data_str_m2_o1_o17_pcu_sym.159
_audit_creation_date              2020-01-03
_audit_creation_method            'Materials Studio'
_symmetry_space_group_name_H-M    'P1'
_symmetry_Int_Tables_number       1
_symmetry_cell_setting            triclinic
loop_
_symmetry_equiv_pos_as_xyz
  x,y,z
_cell_length_a                    32.7144
_cell_length_b                    29.1420
_cell_length_c                    30.0092
_cell_angle_alpha                 91.0186
_cell_angle_beta                  92.1035
_cell_angle_gamma                 90.1369
loop_
_atom_site_label
_atom_site_type_symbol
_atom_site_fract_x
_atom_site_fract_y
_atom_site_fract_z
_atom_site_U_iso_or_equiv
_atom_site_adp_type
_atom_site_occupancy
C1     C     0.08759   0.16642   0.25037   0.00000  Uiso   1.00
C2     C     0.24574   0.16691   0.24964   0.00000  Uiso   1.00
C3     C     0.09136   0.17435   0.01852   0.00000  Uiso   1.00
C4     C     0.24197   0.15899   0.48148   0.00000  Uiso   1.00
C5     C     0.02013   0.13112   0.22766   0.00000  Uiso   1.00
C6     C     0.31320   0.20220   0.27236   0.00000  Uiso   1.00
C7     C     0.31092   0.13323   0.22517   0.00000  Uiso   1.00
C8     C     0.02241   0.20008   0.27486   0.00000  Uiso   1.00
C9     C     0.29046   0.16769   0.24886   0.00000  Uiso   1.00
C10    C     0.04288   0.16563   0.25116   0.00000  Uiso   1.00
C11    C     0.15316   0.02323   0.21316   0.00000  Uiso   1.00
C12    C     0.18018   0.31011   0.28683   0.00000  Uiso   1.00
C13    C     0.18421   0.02550   0.28465   0.00000  Uiso   1.00
C14    C     0.14913   0.30783   0.21535   0.00000  Uiso   1.00
C15    C     0.16589   0.16642   0.16480   0.00000  Uiso   1.00
C16    C     0.16745   0.16691   0.33520   0.00000  Uiso   1.00
C17    C     0.20513   0.17042   0.40794   0.00000  Uiso   1.00
C18    C     0.12820   0.16292   0.09206   0.00000  Uiso   1.00
C19    C     0.16790   0.16709   0.38348   0.00000  Uiso   1.00
C20    C     0.16543   0.16625   0.11652   0.00000  Uiso   1.00
C21    C     0.13096   0.16213   0.40443   0.00000  Uiso   1.00
C22    C     0.20238   0.17119   0.09557   0.00000  Uiso   1.00
C23    C     0.13000   0.16832   0.45085   0.00000  Uiso   1.00
C24    C     0.20333   0.16501   0.04915   0.00000  Uiso   1.00
C25    C     0.16725   0.16675   0.47648   0.00000  Uiso   1.00
C26    C     0.16609   0.16659   0.02352   0.00000  Uiso   1.00
C27    C     0.20555   0.16584   0.45502   0.00000  Uiso   1.00
C28    C     0.12778   0.16749   0.04498   0.00000  Uiso   1.00
C29    C     0.09312   0.17712   0.47213   0.00000  Uiso   1.00
C30    C     0.24021   0.15621   0.02787   0.00000  Uiso   1.00
Cu31   Cu    0.16667   0.21355   0.25000   0.00000  Uiso   1.00
Cu32   Cu    0.16667   0.11978   0.25000   0.00000  Uiso   1.00
N33    N     0.16667   0.28402   0.25000   0.00000  Uiso   1.00
N34    N     0.16667   0.04931   0.25000   0.00000  Uiso   1.00
O35    O     0.10655   0.20625   0.25000   0.00000  Uiso   1.00
O36    O     0.22679   0.12709   0.25001   0.00000  Uiso   1.00
O37    O     0.22679   0.20625   0.25001   0.00000  Uiso   1.00
O38    O     0.10655   0.12709   0.25000   0.00000  Uiso   1.00
O39    O     0.16666   0.20627   0.18513   0.00000  Uiso   1.00
O40    O     0.16668   0.12707   0.31487   0.00000  Uiso   1.00
O41    O     0.16668   0.20627   0.31487   0.00000  Uiso   1.00
O42    O     0.16666   0.12707   0.18513   0.00000  Uiso   1.00
Cl43   Cl    0.24925   0.18198   0.37726   0.00000  Uiso   1.00
Cl44   Cl    0.08409   0.15137   0.12275   0.00000  Uiso   1.00
Cl45   Cl    0.08789   0.14139   0.37217   0.00000  Uiso   1.00
Cl46   Cl    0.24545   0.19192   0.12783   0.00000  Uiso   1.00
Cl47   Cl    0.05072   0.20140   0.44233   0.00000  Uiso   1.00
Cl48   Cl    0.28261   0.13191   0.05766   0.00000  Uiso   1.00
Cl49   Cl    0.04277   0.18439   0.04082   0.00000  Uiso   1.00
Cl50   Cl    0.29056   0.14893   0.45918   0.00000  Uiso   1.00
Cl51   Cl    0.04351   0.08379   0.20156   0.00000  Uiso   1.00
Cl52   Cl    0.28982   0.24956   0.29842   0.00000  Uiso   1.00
Cl53   Cl    0.28409   0.09506   0.18810   0.00000  Uiso   1.00
Cl54   Cl    0.04924   0.23825   0.31194   0.00000  Uiso   1.00
C55    C     0.15855   0.03955   0.16732   0.00000  Uiso   1.00
C56    C     0.12520   0.04624   0.13729   0.00000  Uiso   1.00
C57    C     0.13156   0.05319   0.09205   0.00000  Uiso   1.00
C58    C     0.17123   0.05417   0.07644   0.00000  Uiso   1.00
C59    C     0.20458   0.04727   0.10589   0.00000  Uiso   1.00
C60    C     0.19821   0.03921   0.15089   0.00000  Uiso   1.00
H61    H     0.09435   0.04283   0.14803   0.00000  Uiso   1.00
H62    H     0.10566   0.05750   0.06902   0.00000  Uiso   1.00
H63    H     0.17610   0.05977   0.04146   0.00000  Uiso   1.00
H64    H     0.23529   0.04700   0.09367   0.00000  Uiso   1.00
H65    H     0.22396   0.03069   0.17277   0.00000  Uiso   1.00
C66    C     0.17479   0.29378   0.33268   0.00000  Uiso   1.00
C67    C     0.20814   0.28710   0.36271   0.00000  Uiso   1.00
C68    C     0.20177   0.28015   0.40795   0.00000  Uiso   1.00
C69    C     0.16209   0.27913   0.42355   0.00000  Uiso   1.00
C70    C     0.12875   0.28602   0.39409   0.00000  Uiso   1.00
C71    C     0.13513   0.29410   0.34909   0.00000  Uiso   1.00
H72    H     0.23899   0.29054   0.35199   0.00000  Uiso   1.00
H73    H     0.22766   0.27586   0.43099   0.00000  Uiso   1.00
H74    H     0.15722   0.27353   0.45852   0.00000  Uiso   1.00
H75    H     0.09804   0.28627   0.40629   0.00000  Uiso   1.00
H76    H     0.10938   0.30262   0.32720   0.00000  Uiso   1.00
C77    C     0.21616   0.04717   0.31418   0.00000  Uiso   1.00
C78    C     0.25633   0.04849   0.29923   0.00000  Uiso   1.00
C79    C     0.28898   0.05985   0.32864   0.00000  Uiso   1.00
C80    C     0.28199   0.06819   0.37364   0.00000  Uiso   1.00
C81    C     0.24219   0.06652   0.38902   0.00000  Uiso   1.00
C82    C     0.20927   0.05679   0.35935   0.00000  Uiso   1.00
H83    H     0.26246   0.03914   0.26505   0.00000  Uiso   1.00
H84    H     0.31983   0.06073   0.31681   0.00000  Uiso   1.00
H85    H     0.30752   0.07543   0.39662   0.00000  Uiso   1.00
H86    H     0.23683   0.07211   0.42404   0.00000  Uiso   1.00
H87    H     0.17876   0.05429   0.37196   0.00000  Uiso   1.00
C88    C     0.11717   0.28616   0.18582   0.00000  Uiso   1.00
C89    C     0.12404   0.27655   0.14065   0.00000  Uiso   1.00
C90    C     0.09112   0.26680   0.11101   0.00000  Uiso   1.00
C91    C     0.05132   0.26509   0.12641   0.00000  Uiso   1.00
C92    C     0.04436   0.27343   0.17141   0.00000  Uiso   1.00
C93    C     0.07701   0.28481   0.20080   0.00000  Uiso   1.00
H94    H     0.15455   0.27908   0.12803   0.00000  Uiso   1.00
H95    H     0.09646   0.26120   0.07598   0.00000  Uiso   1.00
H96    H     0.02579   0.25781   0.10345   0.00000  Uiso   1.00
H97    H     0.01352   0.27251   0.18326   0.00000  Uiso   1.00
H98    H     0.07089   0.29415   0.23499   0.00000  Uiso   1.00
C99    C     0.42093   0.16642   0.25037   0.00000  Uiso   1.00
C100   C     0.57907   0.16691   0.24964   0.00000  Uiso   1.00
C101   C     0.42469   0.17435   0.01852   0.00000  Uiso   1.00
C102   C     0.57531   0.15899   0.48148   0.00000  Uiso   1.00
C103   C     0.35346   0.13112   0.22766   0.00000  Uiso   1.00
C104   C     0.64654   0.20220   0.27236   0.00000  Uiso   1.00
C105   C     0.64425   0.13323   0.22517   0.00000  Uiso   1.00
C106   C     0.35575   0.20008   0.27486   0.00000  Uiso   1.00
C107   C     0.62379   0.16769   0.24886   0.00000  Uiso   1.00
C108   C     0.37621   0.16563   0.25116   0.00000  Uiso   1.00
C109   C     0.48650   0.02323   0.21316   0.00000  Uiso   1.00
C110   C     0.51351   0.31011   0.28683   0.00000  Uiso   1.00
C111   C     0.51754   0.02550   0.28465   0.00000  Uiso   1.00
C112   C     0.48246   0.30783   0.21535   0.00000  Uiso   1.00
C113   C     0.49922   0.16642   0.16480   0.00000  Uiso   1.00
C114   C     0.50078   0.16691   0.33520   0.00000  Uiso   1.00
C115   C     0.53847   0.17042   0.40794   0.00000  Uiso   1.00
C116   C     0.46153   0.16292   0.09206   0.00000  Uiso   1.00
C117   C     0.50124   0.16709   0.38348   0.00000  Uiso   1.00
C118   C     0.49876   0.16625   0.11652   0.00000  Uiso   1.00
C119   C     0.46429   0.16213   0.40443   0.00000  Uiso   1.00
C120   C     0.53571   0.17119   0.09557   0.00000  Uiso   1.00
C121   C     0.46334   0.16832   0.45085   0.00000  Uiso   1.00
C122   C     0.53666   0.16501   0.04915   0.00000  Uiso   1.00
C123   C     0.50058   0.16675   0.47648   0.00000  Uiso   1.00
C124   C     0.49942   0.16659   0.02352   0.00000  Uiso   1.00
C125   C     0.53888   0.16584   0.45502   0.00000  Uiso   1.00
C126   C     0.46112   0.16749   0.04498   0.00000  Uiso   1.00
C127   C     0.42646   0.17712   0.47213   0.00000  Uiso   1.00
C128   C     0.57354   0.15621   0.02787   0.00000  Uiso   1.00
Cu129  Cu    0.50000   0.21355   0.25000   0.00000  Uiso   1.00
Cu130  Cu    0.50000   0.11978   0.25000   0.00000  Uiso   1.00
N131   N     0.50000   0.28402   0.25000   0.00000  Uiso   1.00
N132   N     0.50000   0.04931   0.25000   0.00000  Uiso   1.00
O133   O     0.43988   0.20625   0.25000   0.00000  Uiso   1.00
O134   O     0.56012   0.12709   0.25001   0.00000  Uiso   1.00
O135   O     0.56012   0.20625   0.25001   0.00000  Uiso   1.00
O136   O     0.43988   0.12709   0.25000   0.00000  Uiso   1.00
O137   O     0.49999   0.20627   0.18513   0.00000  Uiso   1.00
O138   O     0.50001   0.12707   0.31487   0.00000  Uiso   1.00
O139   O     0.50001   0.20627   0.31487   0.00000  Uiso   1.00
O140   O     0.49999   0.12707   0.18513   0.00000  Uiso   1.00
Cl141  Cl    0.58258   0.18198   0.37726   0.00000  Uiso   1.00
Cl142  Cl    0.41742   0.15137   0.12275   0.00000  Uiso   1.00
Cl143  Cl    0.42122   0.14139   0.37217   0.00000  Uiso   1.00
Cl144  Cl    0.57879   0.19192   0.12783   0.00000  Uiso   1.00
Cl145  Cl    0.38405   0.20140   0.44233   0.00000  Uiso   1.00
Cl146  Cl    0.61595   0.13191   0.05766   0.00000  Uiso   1.00
Cl147  Cl    0.37610   0.18439   0.04082   0.00000  Uiso   1.00
Cl148  Cl    0.62389   0.14893   0.45918   0.00000  Uiso   1.00
Cl149  Cl    0.37685   0.08379   0.20156   0.00000  Uiso   1.00
Cl150  Cl    0.62315   0.24956   0.29842   0.00000  Uiso   1.00
Cl151  Cl    0.61742   0.09506   0.18810   0.00000  Uiso   1.00
Cl152  Cl    0.38257   0.23825   0.31194   0.00000  Uiso   1.00
C153   C     0.49188   0.03955   0.16732   0.00000  Uiso   1.00
C154   C     0.45853   0.04624   0.13729   0.00000  Uiso   1.00
C155   C     0.46489   0.05319   0.09205   0.00000  Uiso   1.00
C156   C     0.50457   0.05417   0.07644   0.00000  Uiso   1.00
C157   C     0.53791   0.04727   0.10589   0.00000  Uiso   1.00
C158   C     0.53154   0.03921   0.15089   0.00000  Uiso   1.00
H159   H     0.42768   0.04283   0.14803   0.00000  Uiso   1.00
H160   H     0.43900   0.05750   0.06902   0.00000  Uiso   1.00
H161   H     0.50943   0.05977   0.04146   0.00000  Uiso   1.00
H162   H     0.56862   0.04700   0.09367   0.00000  Uiso   1.00
H163   H     0.55730   0.03069   0.17277   0.00000  Uiso   1.00
C164   C     0.50812   0.29378   0.33268   0.00000  Uiso   1.00
C165   C     0.54147   0.28710   0.36271   0.00000  Uiso   1.00
C166   C     0.53510   0.28015   0.40795   0.00000  Uiso   1.00
C167   C     0.49542   0.27913   0.42355   0.00000  Uiso   1.00
C168   C     0.46208   0.28602   0.39409   0.00000  Uiso   1.00
C169   C     0.46846   0.29410   0.34909   0.00000  Uiso   1.00
H170   H     0.57232   0.29054   0.35199   0.00000  Uiso   1.00
H171   H     0.56099   0.27586   0.43099   0.00000  Uiso   1.00
H172   H     0.49055   0.27353   0.45852   0.00000  Uiso   1.00
H173   H     0.43137   0.28627   0.40629   0.00000  Uiso   1.00
H174   H     0.44271   0.30262   0.32720   0.00000  Uiso   1.00
C175   C     0.54949   0.04717   0.31418   0.00000  Uiso   1.00
C176   C     0.58966   0.04849   0.29923   0.00000  Uiso   1.00
C177   C     0.62231   0.05985   0.32864   0.00000  Uiso   1.00
C178   C     0.61532   0.06819   0.37364   0.00000  Uiso   1.00
C179   C     0.57552   0.06652   0.38902   0.00000  Uiso   1.00
C180   C     0.54260   0.05679   0.35935   0.00000  Uiso   1.00
H181   H     0.59579   0.03914   0.26505   0.00000  Uiso   1.00
H182   H     0.65316   0.06073   0.31681   0.00000  Uiso   1.00
H183   H     0.64085   0.07543   0.39662   0.00000  Uiso   1.00
H184   H     0.57016   0.07211   0.42404   0.00000  Uiso   1.00
H185   H     0.51209   0.05429   0.37196   0.00000  Uiso   1.00
C186   C     0.45050   0.28616   0.18582   0.00000  Uiso   1.00
C187   C     0.45738   0.27655   0.14065   0.00000  Uiso   1.00
C188   C     0.42445   0.26680   0.11101   0.00000  Uiso   1.00
C189   C     0.38466   0.26509   0.12641   0.00000  Uiso   1.00
C190   C     0.37769   0.27343   0.17141   0.00000  Uiso   1.00
C191   C     0.41035   0.28481   0.20080   0.00000  Uiso   1.00
H192   H     0.48788   0.27908   0.12803   0.00000  Uiso   1.00
H193   H     0.42980   0.26120   0.07598   0.00000  Uiso   1.00
H194   H     0.35912   0.25781   0.10345   0.00000  Uiso   1.00
H195   H     0.34685   0.27251   0.18326   0.00000  Uiso   1.00
H196   H     0.40423   0.29415   0.23499   0.00000  Uiso   1.00
C197   C     0.75426   0.16642   0.25037   0.00000  Uiso   1.00
C198   C     0.91241   0.16691   0.24964   0.00000  Uiso   1.00
C199   C     0.75803   0.17435   0.01852   0.00000  Uiso   1.00
C200   C     0.90864   0.15899   0.48148   0.00000  Uiso   1.00
C201   C     0.68680   0.13112   0.22766   0.00000  Uiso   1.00
C202   C     0.97987   0.20220   0.27236   0.00000  Uiso   1.00
C203   C     0.97759   0.13323   0.22517   0.00000  Uiso   1.00
C204   C     0.68908   0.20008   0.27486   0.00000  Uiso   1.00
C205   C     0.95712   0.16769   0.24886   0.00000  Uiso   1.00
C206   C     0.70954   0.16563   0.25116   0.00000  Uiso   1.00
C207   C     0.81983   0.02323   0.21316   0.00000  Uiso   1.00
C208   C     0.84684   0.31011   0.28683   0.00000  Uiso   1.00
C209   C     0.85087   0.02550   0.28465   0.00000  Uiso   1.00
C210   C     0.81580   0.30783   0.21535   0.00000  Uiso   1.00
C211   C     0.83255   0.16642   0.16480   0.00000  Uiso   1.00
C212   C     0.83411   0.16691   0.33520   0.00000  Uiso   1.00
C213   C     0.87180   0.17042   0.40794   0.00000  Uiso   1.00
C214   C     0.79487   0.16292   0.09206   0.00000  Uiso   1.00
C215   C     0.83457   0.16709   0.38348   0.00000  Uiso   1.00
C216   C     0.83210   0.16625   0.11652   0.00000  Uiso   1.00
C217   C     0.79762   0.16213   0.40443   0.00000  Uiso   1.00
C218   C     0.86905   0.17119   0.09557   0.00000  Uiso   1.00
C219   C     0.79667   0.16832   0.45085   0.00000  Uiso   1.00
C220   C     0.87000   0.16501   0.04915   0.00000  Uiso   1.00
C221   C     0.83391   0.16675   0.47648   0.00000  Uiso   1.00
C222   C     0.83275   0.16659   0.02352   0.00000  Uiso   1.00
C223   C     0.87221   0.16584   0.45502   0.00000  Uiso   1.00
C224   C     0.79445   0.16749   0.04498   0.00000  Uiso   1.00
C225   C     0.75979   0.17712   0.47213   0.00000  Uiso   1.00
C226   C     0.90688   0.15621   0.02787   0.00000  Uiso   1.00
Cu227  Cu    0.83333   0.21355   0.25000   0.00000  Uiso   1.00
Cu228  Cu    0.83333   0.11978   0.25000   0.00000  Uiso   1.00
N229   N     0.83333   0.28402   0.25000   0.00000  Uiso   1.00
N230   N     0.83333   0.04931   0.25000   0.00000  Uiso   1.00
O231   O     0.77321   0.20625   0.25000   0.00000  Uiso   1.00
O232   O     0.89345   0.12709   0.25001   0.00000  Uiso   1.00
O233   O     0.89345   0.20625   0.25001   0.00000  Uiso   1.00
O234   O     0.77321   0.12709   0.25000   0.00000  Uiso   1.00
O235   O     0.83332   0.20627   0.18513   0.00000  Uiso   1.00
O236   O     0.83334   0.12707   0.31487   0.00000  Uiso   1.00
O237   O     0.83334   0.20627   0.31487   0.00000  Uiso   1.00
O238   O     0.83332   0.12707   0.18513   0.00000  Uiso   1.00
Cl239  Cl    0.91591   0.18198   0.37726   0.00000  Uiso   1.00
Cl240  Cl    0.75075   0.15137   0.12275   0.00000  Uiso   1.00
Cl241  Cl    0.75455   0.14139   0.37217   0.00000  Uiso   1.00
Cl242  Cl    0.91212   0.19192   0.12783   0.00000  Uiso   1.00
Cl243  Cl    0.71738   0.20140   0.44233   0.00000  Uiso   1.00
Cl244  Cl    0.94928   0.13191   0.05766   0.00000  Uiso   1.00
Cl245  Cl    0.70943   0.18439   0.04082   0.00000  Uiso   1.00
Cl246  Cl    0.95723   0.14893   0.45918   0.00000  Uiso   1.00
Cl247  Cl    0.71018   0.08379   0.20156   0.00000  Uiso   1.00
Cl248  Cl    0.95649   0.24956   0.29842   0.00000  Uiso   1.00
Cl249  Cl    0.95076   0.09506   0.18810   0.00000  Uiso   1.00
Cl250  Cl    0.71591   0.23825   0.31194   0.00000  Uiso   1.00
C251   C     0.82522   0.03955   0.16732   0.00000  Uiso   1.00
C252   C     0.79186   0.04624   0.13729   0.00000  Uiso   1.00
C253   C     0.79823   0.05319   0.09205   0.00000  Uiso   1.00
C254   C     0.83790   0.05417   0.07644   0.00000  Uiso   1.00
C255   C     0.87124   0.04727   0.10589   0.00000  Uiso   1.00
C256   C     0.86488   0.03921   0.15089   0.00000  Uiso   1.00
H257   H     0.76101   0.04283   0.14803   0.00000  Uiso   1.00
H258   H     0.77233   0.05750   0.06902   0.00000  Uiso   1.00
H259   H     0.84276   0.05977   0.04146   0.00000  Uiso   1.00
H260   H     0.90195   0.04700   0.09367   0.00000  Uiso   1.00
H261   H     0.89063   0.03069   0.17277   0.00000  Uiso   1.00
C262   C     0.84146   0.29378   0.33268   0.00000  Uiso   1.00
C263   C     0.87481   0.28710   0.36271   0.00000  Uiso   1.00
C264   C     0.86843   0.28015   0.40795   0.00000  Uiso   1.00
C265   C     0.82876   0.27913   0.42355   0.00000  Uiso   1.00
C266   C     0.79542   0.28602   0.39409   0.00000  Uiso   1.00
C267   C     0.80179   0.29410   0.34909   0.00000  Uiso   1.00
H268   H     0.90565   0.29054   0.35199   0.00000  Uiso   1.00
H269   H     0.89432   0.27586   0.43099   0.00000  Uiso   1.00
H270   H     0.82389   0.27353   0.45852   0.00000  Uiso   1.00
H271   H     0.76470   0.28627   0.40629   0.00000  Uiso   1.00
H272   H     0.77604   0.30262   0.32720   0.00000  Uiso   1.00
C273   C     0.88283   0.04717   0.31418   0.00000  Uiso   1.00
C274   C     0.92299   0.04849   0.29923   0.00000  Uiso   1.00
C275   C     0.95564   0.05985   0.32864   0.00000  Uiso   1.00
C276   C     0.94866   0.06819   0.37364   0.00000  Uiso   1.00
C277   C     0.90886   0.06652   0.38902   0.00000  Uiso   1.00
C278   C     0.87594   0.05679   0.35935   0.00000  Uiso   1.00
H279   H     0.92912   0.03914   0.26505   0.00000  Uiso   1.00
H280   H     0.98649   0.06073   0.31681   0.00000  Uiso   1.00
H281   H     0.97419   0.07543   0.39662   0.00000  Uiso   1.00
H282   H     0.90350   0.07211   0.42404   0.00000  Uiso   1.00
H283   H     0.84542   0.05429   0.37196   0.00000  Uiso   1.00
C284   C     0.78384   0.28616   0.18582   0.00000  Uiso   1.00
C285   C     0.79071   0.27655   0.14065   0.00000  Uiso   1.00
C286   C     0.75778   0.26680   0.11101   0.00000  Uiso   1.00
C287   C     0.71799   0.26509   0.12641   0.00000  Uiso   1.00
C288   C     0.71102   0.27343   0.17141   0.00000  Uiso   1.00
C289   C     0.74368   0.28481   0.20080   0.00000  Uiso   1.00
H290   H     0.82122   0.27908   0.12803   0.00000  Uiso   1.00
H291   H     0.76313   0.26120   0.07598   0.00000  Uiso   1.00
H292   H     0.69245   0.25781   0.10345   0.00000  Uiso   1.00
H293   H     0.68018   0.27251   0.18326   0.00000  Uiso   1.00
H294   H     0.73756   0.29415   0.23499   0.00000  Uiso   1.00
C295   C     0.08759   0.49975   0.25037   0.00000  Uiso   1.00
C296   C     0.24574   0.50025   0.24964   0.00000  Uiso   1.00
C297   C     0.09136   0.50768   0.01852   0.00000  Uiso   1.00
C298   C     0.24197   0.49232   0.48148   0.00000  Uiso   1.00
C299   C     0.02013   0.46445   0.22766   0.00000  Uiso   1.00
C300   C     0.31320   0.53553   0.27236   0.00000  Uiso   1.00
C301   C     0.31092   0.46656   0.22517   0.00000  Uiso   1.00
C302   C     0.02241   0.53342   0.27486   0.00000  Uiso   1.00
C303   C     0.29046   0.50102   0.24886   0.00000  Uiso   1.00
C304   C     0.04288   0.49897   0.25116   0.00000  Uiso   1.00
C305   C     0.15316   0.35656   0.21316   0.00000  Uiso   1.00
C306   C     0.18018   0.64344   0.28683   0.00000  Uiso   1.00
C307   C     0.18421   0.35883   0.28465   0.00000  Uiso   1.00
C308   C     0.14913   0.64117   0.21535   0.00000  Uiso   1.00
C309   C     0.16589   0.49976   0.16480   0.00000  Uiso   1.00
C310   C     0.16745   0.50024   0.33520   0.00000  Uiso   1.00
C311   C     0.20513   0.50376   0.40794   0.00000  Uiso   1.00
C312   C     0.12820   0.49625   0.09206   0.00000  Uiso   1.00
C313   C     0.16790   0.50042   0.38348   0.00000  Uiso   1.00
C314   C     0.16543   0.49958   0.11652   0.00000  Uiso   1.00
C315   C     0.13096   0.49547   0.40443   0.00000  Uiso   1.00
C316   C     0.20238   0.50453   0.09557   0.00000  Uiso   1.00
C317   C     0.13000   0.50165   0.45085   0.00000  Uiso   1.00
C318   C     0.20333   0.49835   0.04915   0.00000  Uiso   1.00
C319   C     0.16725   0.50008   0.47648   0.00000  Uiso   1.00
C320   C     0.16609   0.49992   0.02352   0.00000  Uiso   1.00
C321   C     0.20555   0.49918   0.45502   0.00000  Uiso   1.00
C322   C     0.12778   0.50083   0.04498   0.00000  Uiso   1.00
C323   C     0.09312   0.51046   0.47213   0.00000  Uiso   1.00
C324   C     0.24021   0.48954   0.02787   0.00000  Uiso   1.00
Cu325  Cu    0.16667   0.54689   0.25000   0.00000  Uiso   1.00
Cu326  Cu    0.16667   0.45311   0.25000   0.00000  Uiso   1.00
N327   N     0.16667   0.61736   0.25000   0.00000  Uiso   1.00
N328   N     0.16667   0.38264   0.25000   0.00000  Uiso   1.00
O329   O     0.10655   0.53958   0.25000   0.00000  Uiso   1.00
O330   O     0.22679   0.46042   0.25001   0.00000  Uiso   1.00
O331   O     0.22679   0.53958   0.25001   0.00000  Uiso   1.00
O332   O     0.10655   0.46042   0.25000   0.00000  Uiso   1.00
O333   O     0.16666   0.53960   0.18513   0.00000  Uiso   1.00
O334   O     0.16668   0.46040   0.31487   0.00000  Uiso   1.00
O335   O     0.16668   0.53960   0.31487   0.00000  Uiso   1.00
O336   O     0.16666   0.46040   0.18513   0.00000  Uiso   1.00
Cl337  Cl    0.24925   0.51531   0.37726   0.00000  Uiso   1.00
Cl338  Cl    0.08409   0.48471   0.12275   0.00000  Uiso   1.00
Cl339  Cl    0.08789   0.47473   0.37217   0.00000  Uiso   1.00
Cl340  Cl    0.24545   0.52525   0.12783   0.00000  Uiso   1.00
Cl341  Cl    0.05072   0.53474   0.44233   0.00000  Uiso   1.00
Cl342  Cl    0.28261   0.46524   0.05766   0.00000  Uiso   1.00
Cl343  Cl    0.04277   0.51772   0.04082   0.00000  Uiso   1.00
Cl344  Cl    0.29056   0.48227   0.45918   0.00000  Uiso   1.00
Cl345  Cl    0.04351   0.41712   0.20156   0.00000  Uiso   1.00
Cl346  Cl    0.28982   0.58290   0.29842   0.00000  Uiso   1.00
Cl347  Cl    0.28409   0.42839   0.18810   0.00000  Uiso   1.00
Cl348  Cl    0.04924   0.57158   0.31194   0.00000  Uiso   1.00
C349   C     0.15855   0.37289   0.16732   0.00000  Uiso   1.00
C350   C     0.12520   0.37958   0.13729   0.00000  Uiso   1.00
C351   C     0.13156   0.38653   0.09205   0.00000  Uiso   1.00
C352   C     0.17123   0.38751   0.07644   0.00000  Uiso   1.00
C353   C     0.20458   0.38061   0.10589   0.00000  Uiso   1.00
C354   C     0.19821   0.37254   0.15089   0.00000  Uiso   1.00
H355   H     0.09435   0.37616   0.14803   0.00000  Uiso   1.00
H356   H     0.10566   0.39083   0.06902   0.00000  Uiso   1.00
H357   H     0.17610   0.39311   0.04146   0.00000  Uiso   1.00
H358   H     0.23529   0.38033   0.09367   0.00000  Uiso   1.00
H359   H     0.22396   0.36402   0.17277   0.00000  Uiso   1.00
C360   C     0.17479   0.62711   0.33268   0.00000  Uiso   1.00
C361   C     0.20814   0.62044   0.36271   0.00000  Uiso   1.00
C362   C     0.20177   0.61348   0.40795   0.00000  Uiso   1.00
C363   C     0.16209   0.61247   0.42355   0.00000  Uiso   1.00
C364   C     0.12875   0.61935   0.39409   0.00000  Uiso   1.00
C365   C     0.13513   0.62743   0.34909   0.00000  Uiso   1.00
H366   H     0.23899   0.62387   0.35199   0.00000  Uiso   1.00
H367   H     0.22766   0.60919   0.43099   0.00000  Uiso   1.00
H368   H     0.15722   0.60686   0.45852   0.00000  Uiso   1.00
H369   H     0.09804   0.61961   0.40629   0.00000  Uiso   1.00
H370   H     0.10938   0.63595   0.32720   0.00000  Uiso   1.00
C371   C     0.21616   0.38051   0.31418   0.00000  Uiso   1.00
C372   C     0.25633   0.38183   0.29923   0.00000  Uiso   1.00
C373   C     0.28898   0.39318   0.32864   0.00000  Uiso   1.00
C374   C     0.28199   0.40152   0.37364   0.00000  Uiso   1.00
C375   C     0.24219   0.39985   0.38902   0.00000  Uiso   1.00
C376   C     0.20927   0.39012   0.35935   0.00000  Uiso   1.00
H377   H     0.26246   0.37248   0.26505   0.00000  Uiso   1.00
H378   H     0.31983   0.39406   0.31681   0.00000  Uiso   1.00
H379   H     0.30752   0.40876   0.39662   0.00000  Uiso   1.00
H380   H     0.23683   0.40544   0.42404   0.00000  Uiso   1.00
H381   H     0.17876   0.38762   0.37196   0.00000  Uiso   1.00
C382   C     0.11717   0.61950   0.18582   0.00000  Uiso   1.00
C383   C     0.12404   0.60989   0.14065   0.00000  Uiso   1.00
C384   C     0.09112   0.60013   0.11101   0.00000  Uiso   1.00
C385   C     0.05132   0.59842   0.12641   0.00000  Uiso   1.00
C386   C     0.04436   0.60676   0.17141   0.00000  Uiso   1.00
C387   C     0.07701   0.61815   0.20080   0.00000  Uiso   1.00
H388   H     0.15455   0.61241   0.12803   0.00000  Uiso   1.00
H389   H     0.09646   0.59454   0.07598   0.00000  Uiso   1.00
H390   H     0.02579   0.59115   0.10345   0.00000  Uiso   1.00
H391   H     0.01352   0.60584   0.18326   0.00000  Uiso   1.00
H392   H     0.07089   0.62748   0.23499   0.00000  Uiso   1.00
C393   C     0.42093   0.49975   0.25037   0.00000  Uiso   1.00
C394   C     0.57907   0.50025   0.24964   0.00000  Uiso   1.00
C395   C     0.42469   0.50768   0.01852   0.00000  Uiso   1.00
C396   C     0.57531   0.49232   0.48148   0.00000  Uiso   1.00
C397   C     0.35346   0.46445   0.22766   0.00000  Uiso   1.00
C398   C     0.64654   0.53553   0.27236   0.00000  Uiso   1.00
C399   C     0.64425   0.46656   0.22517   0.00000  Uiso   1.00
C400   C     0.35575   0.53342   0.27486   0.00000  Uiso   1.00
C401   C     0.62379   0.50102   0.24886   0.00000  Uiso   1.00
C402   C     0.37621   0.49897   0.25116   0.00000  Uiso   1.00
C403   C     0.48650   0.35656   0.21316   0.00000  Uiso   1.00
C404   C     0.51351   0.64344   0.28683   0.00000  Uiso   1.00
C405   C     0.51754   0.35883   0.28465   0.00000  Uiso   1.00
C406   C     0.48246   0.64117   0.21535   0.00000  Uiso   1.00
C407   C     0.49922   0.49976   0.16480   0.00000  Uiso   1.00
C408   C     0.50078   0.50024   0.33520   0.00000  Uiso   1.00
C409   C     0.53847   0.50376   0.40794   0.00000  Uiso   1.00
C410   C     0.46153   0.49625   0.09206   0.00000  Uiso   1.00
C411   C     0.50124   0.50042   0.38348   0.00000  Uiso   1.00
C412   C     0.49876   0.49958   0.11652   0.00000  Uiso   1.00
C413   C     0.46429   0.49547   0.40443   0.00000  Uiso   1.00
C414   C     0.53571   0.50453   0.09557   0.00000  Uiso   1.00
C415   C     0.46334   0.50165   0.45085   0.00000  Uiso   1.00
C416   C     0.53666   0.49835   0.04915   0.00000  Uiso   1.00
C417   C     0.50058   0.50008   0.47648   0.00000  Uiso   1.00
C418   C     0.49942   0.49992   0.02352   0.00000  Uiso   1.00
C419   C     0.53888   0.49918   0.45502   0.00000  Uiso   1.00
C420   C     0.46112   0.50083   0.04498   0.00000  Uiso   1.00
C421   C     0.42646   0.51046   0.47213   0.00000  Uiso   1.00
C422   C     0.57354   0.48954   0.02787   0.00000  Uiso   1.00
Cu423  Cu    0.50000   0.54689   0.25000   0.00000  Uiso   1.00
Cu424  Cu    0.50000   0.45311   0.25000   0.00000  Uiso   1.00
N425   N     0.50000   0.61736   0.25000   0.00000  Uiso   1.00
N426   N     0.50000   0.38264   0.25000   0.00000  Uiso   1.00
O427   O     0.43988   0.53958   0.25000   0.00000  Uiso   1.00
O428   O     0.56012   0.46042   0.25001   0.00000  Uiso   1.00
O429   O     0.56012   0.53958   0.25001   0.00000  Uiso   1.00
O430   O     0.43988   0.46042   0.25000   0.00000  Uiso   1.00
O431   O     0.49999   0.53960   0.18513   0.00000  Uiso   1.00
O432   O     0.50001   0.46040   0.31487   0.00000  Uiso   1.00
O433   O     0.50001   0.53960   0.31487   0.00000  Uiso   1.00
O434   O     0.49999   0.46040   0.18513   0.00000  Uiso   1.00
Cl435  Cl    0.58258   0.51531   0.37726   0.00000  Uiso   1.00
Cl436  Cl    0.41742   0.48471   0.12275   0.00000  Uiso   1.00
Cl437  Cl    0.42122   0.47473   0.37217   0.00000  Uiso   1.00
Cl438  Cl    0.57879   0.52525   0.12783   0.00000  Uiso   1.00
Cl439  Cl    0.38405   0.53474   0.44233   0.00000  Uiso   1.00
Cl440  Cl    0.61595   0.46524   0.05766   0.00000  Uiso   1.00
Cl441  Cl    0.37610   0.51772   0.04082   0.00000  Uiso   1.00
Cl442  Cl    0.62389   0.48227   0.45918   0.00000  Uiso   1.00
Cl443  Cl    0.37685   0.41712   0.20156   0.00000  Uiso   1.00
Cl444  Cl    0.62315   0.58290   0.29842   0.00000  Uiso   1.00
Cl445  Cl    0.61742   0.42839   0.18810   0.00000  Uiso   1.00
Cl446  Cl    0.38257   0.57158   0.31194   0.00000  Uiso   1.00
C447   C     0.49188   0.37289   0.16732   0.00000  Uiso   1.00
C448   C     0.45853   0.37958   0.13729   0.00000  Uiso   1.00
C449   C     0.46489   0.38653   0.09205   0.00000  Uiso   1.00
C450   C     0.50457   0.38751   0.07644   0.00000  Uiso   1.00
C451   C     0.53791   0.38061   0.10589   0.00000  Uiso   1.00
C452   C     0.53154   0.37254   0.15089   0.00000  Uiso   1.00
H453   H     0.42768   0.37616   0.14803   0.00000  Uiso   1.00
H454   H     0.43900   0.39083   0.06902   0.00000  Uiso   1.00
H455   H     0.50943   0.39311   0.04146   0.00000  Uiso   1.00
H456   H     0.56862   0.38033   0.09367   0.00000  Uiso   1.00
H457   H     0.55730   0.36402   0.17277   0.00000  Uiso   1.00
C458   C     0.50812   0.62711   0.33268   0.00000  Uiso   1.00
C459   C     0.54147   0.62044   0.36271   0.00000  Uiso   1.00
C460   C     0.53510   0.61348   0.40795   0.00000  Uiso   1.00
C461   C     0.49542   0.61247   0.42355   0.00000  Uiso   1.00
C462   C     0.46208   0.61935   0.39409   0.00000  Uiso   1.00
C463   C     0.46846   0.62743   0.34909   0.00000  Uiso   1.00
H464   H     0.57232   0.62387   0.35199   0.00000  Uiso   1.00
H465   H     0.56099   0.60919   0.43099   0.00000  Uiso   1.00
H466   H     0.49055   0.60686   0.45852   0.00000  Uiso   1.00
H467   H     0.43137   0.61961   0.40629   0.00000  Uiso   1.00
H468   H     0.44271   0.63595   0.32720   0.00000  Uiso   1.00
C469   C     0.54949   0.38051   0.31418   0.00000  Uiso   1.00
C470   C     0.58966   0.38183   0.29923   0.00000  Uiso   1.00
C471   C     0.62231   0.39318   0.32864   0.00000  Uiso   1.00
C472   C     0.61532   0.40152   0.37364   0.00000  Uiso   1.00
C473   C     0.57552   0.39985   0.38902   0.00000  Uiso   1.00
C474   C     0.54260   0.39012   0.35935   0.00000  Uiso   1.00
H475   H     0.59579   0.37248   0.26505   0.00000  Uiso   1.00
H476   H     0.65316   0.39406   0.31681   0.00000  Uiso   1.00
H477   H     0.64085   0.40876   0.39662   0.00000  Uiso   1.00
H478   H     0.57016   0.40544   0.42404   0.00000  Uiso   1.00
H479   H     0.51209   0.38762   0.37196   0.00000  Uiso   1.00
C480   C     0.45050   0.61950   0.18582   0.00000  Uiso   1.00
C481   C     0.45738   0.60989   0.14065   0.00000  Uiso   1.00
C482   C     0.42445   0.60013   0.11101   0.00000  Uiso   1.00
C483   C     0.38466   0.59842   0.12641   0.00000  Uiso   1.00
C484   C     0.37769   0.60676   0.17141   0.00000  Uiso   1.00
C485   C     0.41035   0.61815   0.20080   0.00000  Uiso   1.00
H486   H     0.48788   0.61241   0.12803   0.00000  Uiso   1.00
H487   H     0.42980   0.59454   0.07598   0.00000  Uiso   1.00
H488   H     0.35912   0.59115   0.10345   0.00000  Uiso   1.00
H489   H     0.34685   0.60584   0.18326   0.00000  Uiso   1.00
H490   H     0.40423   0.62748   0.23499   0.00000  Uiso   1.00
C491   C     0.75426   0.49975   0.25037   0.00000  Uiso   1.00
C492   C     0.91241   0.50025   0.24964   0.00000  Uiso   1.00
C493   C     0.75803   0.50768   0.01852   0.00000  Uiso   1.00
C494   C     0.90864   0.49232   0.48148   0.00000  Uiso   1.00
C495   C     0.68680   0.46445   0.22766   0.00000  Uiso   1.00
C496   C     0.97987   0.53553   0.27236   0.00000  Uiso   1.00
C497   C     0.97759   0.46656   0.22517   0.00000  Uiso   1.00
C498   C     0.68908   0.53342   0.27486   0.00000  Uiso   1.00
C499   C     0.95712   0.50102   0.24886   0.00000  Uiso   1.00
C500   C     0.70954   0.49897   0.25116   0.00000  Uiso   1.00
C501   C     0.81983   0.35656   0.21316   0.00000  Uiso   1.00
C502   C     0.84684   0.64344   0.28683   0.00000  Uiso   1.00
C503   C     0.85087   0.35883   0.28465   0.00000  Uiso   1.00
C504   C     0.81580   0.64117   0.21535   0.00000  Uiso   1.00
C505   C     0.83255   0.49976   0.16480   0.00000  Uiso   1.00
C506   C     0.83411   0.50024   0.33520   0.00000  Uiso   1.00
C507   C     0.87180   0.50376   0.40794   0.00000  Uiso   1.00
C508   C     0.79487   0.49625   0.09206   0.00000  Uiso   1.00
C509   C     0.83457   0.50042   0.38348   0.00000  Uiso   1.00
C510   C     0.83210   0.49958   0.11652   0.00000  Uiso   1.00
C511   C     0.79762   0.49547   0.40443   0.00000  Uiso   1.00
C512   C     0.86905   0.50453   0.09557   0.00000  Uiso   1.00
C513   C     0.79667   0.50165   0.45085   0.00000  Uiso   1.00
C514   C     0.87000   0.49835   0.04915   0.00000  Uiso   1.00
C515   C     0.83391   0.50008   0.47648   0.00000  Uiso   1.00
C516   C     0.83275   0.49992   0.02352   0.00000  Uiso   1.00
C517   C     0.87221   0.49918   0.45502   0.00000  Uiso   1.00
C518   C     0.79445   0.50083   0.04498   0.00000  Uiso   1.00
C519   C     0.75979   0.51046   0.47213   0.00000  Uiso   1.00
C520   C     0.90688   0.48954   0.02787   0.00000  Uiso   1.00
Cu521  Cu    0.83333   0.54689   0.25000   0.00000  Uiso   1.00
Cu522  Cu    0.83333   0.45311   0.25000   0.00000  Uiso   1.00
N523   N     0.83333   0.61736   0.25000   0.00000  Uiso   1.00
N524   N     0.83333   0.38264   0.25000   0.00000  Uiso   1.00
O525   O     0.77321   0.53958   0.25000   0.00000  Uiso   1.00
O526   O     0.89345   0.46042   0.25001   0.00000  Uiso   1.00
O527   O     0.89345   0.53958   0.25001   0.00000  Uiso   1.00
O528   O     0.77321   0.46042   0.25000   0.00000  Uiso   1.00
O529   O     0.83332   0.53960   0.18513   0.00000  Uiso   1.00
O530   O     0.83334   0.46040   0.31487   0.00000  Uiso   1.00
O531   O     0.83334   0.53960   0.31487   0.00000  Uiso   1.00
O532   O     0.83332   0.46040   0.18513   0.00000  Uiso   1.00
Cl533  Cl    0.91591   0.51531   0.37726   0.00000  Uiso   1.00
Cl534  Cl    0.75075   0.48471   0.12275   0.00000  Uiso   1.00
Cl535  Cl    0.75455   0.47473   0.37217   0.00000  Uiso   1.00
Cl536  Cl    0.91212   0.52525   0.12783   0.00000  Uiso   1.00
Cl537  Cl    0.71738   0.53474   0.44233   0.00000  Uiso   1.00
Cl538  Cl    0.94928   0.46524   0.05766   0.00000  Uiso   1.00
Cl539  Cl    0.70943   0.51772   0.04082   0.00000  Uiso   1.00
Cl540  Cl    0.95723   0.48227   0.45918   0.00000  Uiso   1.00
Cl541  Cl    0.71018   0.41712   0.20156   0.00000  Uiso   1.00
Cl542  Cl    0.95649   0.58290   0.29842   0.00000  Uiso   1.00
Cl543  Cl    0.95076   0.42839   0.18810   0.00000  Uiso   1.00
Cl544  Cl    0.71591   0.57158   0.31194   0.00000  Uiso   1.00
C545   C     0.82522   0.37289   0.16732   0.00000  Uiso   1.00
C546   C     0.79186   0.37958   0.13729   0.00000  Uiso   1.00
C547   C     0.79823   0.38653   0.09205   0.00000  Uiso   1.00
C548   C     0.83790   0.38751   0.07644   0.00000  Uiso   1.00
C549   C     0.87124   0.38061   0.10589   0.00000  Uiso   1.00
C550   C     0.86488   0.37254   0.15089   0.00000  Uiso   1.00
H551   H     0.76101   0.37616   0.14803   0.00000  Uiso   1.00
H552   H     0.77233   0.39083   0.06902   0.00000  Uiso   1.00
H553   H     0.84276   0.39311   0.04146   0.00000  Uiso   1.00
H554   H     0.90195   0.38033   0.09367   0.00000  Uiso   1.00
H555   H     0.89063   0.36402   0.17277   0.00000  Uiso   1.00
C556   C     0.84146   0.62711   0.33268   0.00000  Uiso   1.00
C557   C     0.87481   0.62044   0.36271   0.00000  Uiso   1.00
C558   C     0.86843   0.61348   0.40795   0.00000  Uiso   1.00
C559   C     0.82876   0.61247   0.42355   0.00000  Uiso   1.00
C560   C     0.79542   0.61935   0.39409   0.00000  Uiso   1.00
C561   C     0.80179   0.62743   0.34909   0.00000  Uiso   1.00
H562   H     0.90565   0.62387   0.35199   0.00000  Uiso   1.00
H563   H     0.89432   0.60919   0.43099   0.00000  Uiso   1.00
H564   H     0.82389   0.60686   0.45852   0.00000  Uiso   1.00
H565   H     0.76470   0.61961   0.40629   0.00000  Uiso   1.00
H566   H     0.77604   0.63595   0.32720   0.00000  Uiso   1.00
C567   C     0.88283   0.38051   0.31418   0.00000  Uiso   1.00
C568   C     0.92299   0.38183   0.29923   0.00000  Uiso   1.00
C569   C     0.95564   0.39318   0.32864   0.00000  Uiso   1.00
C570   C     0.94866   0.40152   0.37364   0.00000  Uiso   1.00
C571   C     0.90886   0.39985   0.38902   0.00000  Uiso   1.00
C572   C     0.87594   0.39012   0.35935   0.00000  Uiso   1.00
H573   H     0.92912   0.37248   0.26505   0.00000  Uiso   1.00
H574   H     0.98649   0.39406   0.31681   0.00000  Uiso   1.00
H575   H     0.97419   0.40876   0.39662   0.00000  Uiso   1.00
H576   H     0.90350   0.40544   0.42404   0.00000  Uiso   1.00
H577   H     0.84542   0.38762   0.37196   0.00000  Uiso   1.00
C578   C     0.78384   0.61950   0.18582   0.00000  Uiso   1.00
C579   C     0.79071   0.60989   0.14065   0.00000  Uiso   1.00
C580   C     0.75778   0.60013   0.11101   0.00000  Uiso   1.00
C581   C     0.71799   0.59842   0.12641   0.00000  Uiso   1.00
C582   C     0.71102   0.60676   0.17141   0.00000  Uiso   1.00
C583   C     0.74368   0.61815   0.20080   0.00000  Uiso   1.00
H584   H     0.82122   0.61241   0.12803   0.00000  Uiso   1.00
H585   H     0.76313   0.59454   0.07598   0.00000  Uiso   1.00
H586   H     0.69245   0.59115   0.10345   0.00000  Uiso   1.00
H587   H     0.68018   0.60584   0.18326   0.00000  Uiso   1.00
H588   H     0.73756   0.62748   0.23499   0.00000  Uiso   1.00
C589   C     0.08759   0.83309   0.25037   0.00000  Uiso   1.00
C590   C     0.24574   0.83358   0.24964   0.00000  Uiso   1.00
C591   C     0.09136   0.84101   0.01852   0.00000  Uiso   1.00
C592   C     0.24197   0.82566   0.48148   0.00000  Uiso   1.00
C593   C     0.02013   0.79779   0.22766   0.00000  Uiso   1.00
C594   C     0.31320   0.86886   0.27236   0.00000  Uiso   1.00
C595   C     0.31092   0.79990   0.22517   0.00000  Uiso   1.00
C596   C     0.02241   0.86675   0.27486   0.00000  Uiso   1.00
C597   C     0.29046   0.83436   0.24886   0.00000  Uiso   1.00
C598   C     0.04288   0.83230   0.25116   0.00000  Uiso   1.00
C599   C     0.15316   0.68989   0.21316   0.00000  Uiso   1.00
C600   C     0.18018   0.97677   0.28683   0.00000  Uiso   1.00
C601   C     0.18421   0.69217   0.28465   0.00000  Uiso   1.00
C602   C     0.14913   0.97450   0.21535   0.00000  Uiso   1.00
C603   C     0.16589   0.83309   0.16480   0.00000  Uiso   1.00
C604   C     0.16745   0.83358   0.33520   0.00000  Uiso   1.00
C605   C     0.20513   0.83709   0.40794   0.00000  Uiso   1.00
C606   C     0.12820   0.82958   0.09206   0.00000  Uiso   1.00
C607   C     0.16790   0.83375   0.38348   0.00000  Uiso   1.00
C608   C     0.16543   0.83291   0.11652   0.00000  Uiso   1.00
C609   C     0.13096   0.82880   0.40443   0.00000  Uiso   1.00
C610   C     0.20238   0.83786   0.09557   0.00000  Uiso   1.00
C611   C     0.13000   0.83498   0.45085   0.00000  Uiso   1.00
C612   C     0.20333   0.83168   0.04915   0.00000  Uiso   1.00
C613   C     0.16725   0.83341   0.47648   0.00000  Uiso   1.00
C614   C     0.16609   0.83326   0.02352   0.00000  Uiso   1.00
C615   C     0.20555   0.83251   0.45502   0.00000  Uiso   1.00
C616   C     0.12778   0.83416   0.04498   0.00000  Uiso   1.00
C617   C     0.09312   0.84379   0.47213   0.00000  Uiso   1.00
C618   C     0.24021   0.82287   0.02787   0.00000  Uiso   1.00
Cu619  Cu    0.16667   0.88022   0.25000   0.00000  Uiso   1.00
Cu620  Cu    0.16667   0.78645   0.25000   0.00000  Uiso   1.00
N621   N     0.16667   0.95069   0.25000   0.00000  Uiso   1.00
N622   N     0.16667   0.71598   0.25000   0.00000  Uiso   1.00
O623   O     0.10655   0.87291   0.25000   0.00000  Uiso   1.00
O624   O     0.22679   0.79375   0.25001   0.00000  Uiso   1.00
O625   O     0.22679   0.87291   0.25001   0.00000  Uiso   1.00
O626   O     0.10655   0.79375   0.25000   0.00000  Uiso   1.00
O627   O     0.16666   0.87293   0.18513   0.00000  Uiso   1.00
O628   O     0.16668   0.79373   0.31487   0.00000  Uiso   1.00
O629   O     0.16668   0.87293   0.31487   0.00000  Uiso   1.00
O630   O     0.16666   0.79373   0.18513   0.00000  Uiso   1.00
Cl631  Cl    0.24925   0.84865   0.37726   0.00000  Uiso   1.00
Cl632  Cl    0.08409   0.81804   0.12275   0.00000  Uiso   1.00
Cl633  Cl    0.08789   0.80806   0.37217   0.00000  Uiso   1.00
Cl634  Cl    0.24545   0.85859   0.12783   0.00000  Uiso   1.00
Cl635  Cl    0.05072   0.86807   0.44233   0.00000  Uiso   1.00
Cl636  Cl    0.28261   0.79857   0.05766   0.00000  Uiso   1.00
Cl637  Cl    0.04277   0.85106   0.04082   0.00000  Uiso   1.00
Cl638  Cl    0.29056   0.81560   0.45918   0.00000  Uiso   1.00
Cl639  Cl    0.04351   0.75045   0.20156   0.00000  Uiso   1.00
Cl640  Cl    0.28982   0.91623   0.29842   0.00000  Uiso   1.00
Cl641  Cl    0.28409   0.76172   0.18810   0.00000  Uiso   1.00
Cl642  Cl    0.04924   0.90492   0.31194   0.00000  Uiso   1.00
C643   C     0.15855   0.70622   0.16732   0.00000  Uiso   1.00
C644   C     0.12520   0.71291   0.13729   0.00000  Uiso   1.00
C645   C     0.13156   0.71986   0.09205   0.00000  Uiso   1.00
C646   C     0.17123   0.72084   0.07644   0.00000  Uiso   1.00
C647   C     0.20458   0.71394   0.10589   0.00000  Uiso   1.00
C648   C     0.19821   0.70588   0.15089   0.00000  Uiso   1.00
H649   H     0.09435   0.70950   0.14803   0.00000  Uiso   1.00
H650   H     0.10566   0.72416   0.06902   0.00000  Uiso   1.00
H651   H     0.17610   0.72644   0.04146   0.00000  Uiso   1.00
H652   H     0.23529   0.71366   0.09367   0.00000  Uiso   1.00
H653   H     0.22396   0.69736   0.17277   0.00000  Uiso   1.00
C654   C     0.17479   0.96045   0.33268   0.00000  Uiso   1.00
C655   C     0.20814   0.95377   0.36271   0.00000  Uiso   1.00
C656   C     0.20177   0.94681   0.40795   0.00000  Uiso   1.00
C657   C     0.16209   0.94580   0.42355   0.00000  Uiso   1.00
C658   C     0.12875   0.95269   0.39409   0.00000  Uiso   1.00
C659   C     0.13513   0.96077   0.34909   0.00000  Uiso   1.00
H660   H     0.23899   0.95721   0.35199   0.00000  Uiso   1.00
H661   H     0.22766   0.94252   0.43099   0.00000  Uiso   1.00
H662   H     0.15722   0.94019   0.45852   0.00000  Uiso   1.00
H663   H     0.09804   0.95294   0.40629   0.00000  Uiso   1.00
H664   H     0.10938   0.96928   0.32720   0.00000  Uiso   1.00
C665   C     0.21616   0.71384   0.31418   0.00000  Uiso   1.00
C666   C     0.25633   0.71516   0.29923   0.00000  Uiso   1.00
C667   C     0.28898   0.72651   0.32864   0.00000  Uiso   1.00
C668   C     0.28199   0.73486   0.37364   0.00000  Uiso   1.00
C669   C     0.24219   0.73318   0.38902   0.00000  Uiso   1.00
C670   C     0.20927   0.72346   0.35935   0.00000  Uiso   1.00
H671   H     0.26246   0.70581   0.26505   0.00000  Uiso   1.00
H672   H     0.31983   0.72740   0.31681   0.00000  Uiso   1.00
H673   H     0.30752   0.74209   0.39662   0.00000  Uiso   1.00
H674   H     0.23683   0.73878   0.42404   0.00000  Uiso   1.00
H675   H     0.17876   0.72095   0.37196   0.00000  Uiso   1.00
C676   C     0.11717   0.95283   0.18582   0.00000  Uiso   1.00
C677   C     0.12404   0.94322   0.14065   0.00000  Uiso   1.00
C678   C     0.09112   0.93347   0.11101   0.00000  Uiso   1.00
C679   C     0.05132   0.93175   0.12641   0.00000  Uiso   1.00
C680   C     0.04436   0.94009   0.17141   0.00000  Uiso   1.00
C681   C     0.07701   0.95148   0.20080   0.00000  Uiso   1.00
H682   H     0.15455   0.94574   0.12803   0.00000  Uiso   1.00
H683   H     0.09646   0.92787   0.07598   0.00000  Uiso   1.00
H684   H     0.02579   0.92448   0.10345   0.00000  Uiso   1.00
H685   H     0.01352   0.93917   0.18326   0.00000  Uiso   1.00
H686   H     0.07089   0.96082   0.23499   0.00000  Uiso   1.00
C687   C     0.42093   0.83309   0.25037   0.00000  Uiso   1.00
C688   C     0.57907   0.83358   0.24964   0.00000  Uiso   1.00
C689   C     0.42469   0.84101   0.01852   0.00000  Uiso   1.00
C690   C     0.57531   0.82566   0.48148   0.00000  Uiso   1.00
C691   C     0.35346   0.79779   0.22766   0.00000  Uiso   1.00
C692   C     0.64654   0.86886   0.27236   0.00000  Uiso   1.00
C693   C     0.64425   0.79990   0.22517   0.00000  Uiso   1.00
C694   C     0.35575   0.86675   0.27486   0.00000  Uiso   1.00
C695   C     0.62379   0.83436   0.24886   0.00000  Uiso   1.00
C696   C     0.37621   0.83230   0.25116   0.00000  Uiso   1.00
C697   C     0.48650   0.68989   0.21316   0.00000  Uiso   1.00
C698   C     0.51351   0.97677   0.28683   0.00000  Uiso   1.00
C699   C     0.51754   0.69217   0.28465   0.00000  Uiso   1.00
C700   C     0.48246   0.97450   0.21535   0.00000  Uiso   1.00
C701   C     0.49922   0.83309   0.16480   0.00000  Uiso   1.00
C702   C     0.50078   0.83358   0.33520   0.00000  Uiso   1.00
C703   C     0.53847   0.83709   0.40794   0.00000  Uiso   1.00
C704   C     0.46153   0.82958   0.09206   0.00000  Uiso   1.00
C705   C     0.50124   0.83375   0.38348   0.00000  Uiso   1.00
C706   C     0.49876   0.83291   0.11652   0.00000  Uiso   1.00
C707   C     0.46429   0.82880   0.40443   0.00000  Uiso   1.00
C708   C     0.53571   0.83786   0.09557   0.00000  Uiso   1.00
C709   C     0.46334   0.83498   0.45085   0.00000  Uiso   1.00
C710   C     0.53666   0.83168   0.04915   0.00000  Uiso   1.00
C711   C     0.50058   0.83341   0.47648   0.00000  Uiso   1.00
C712   C     0.49942   0.83326   0.02352   0.00000  Uiso   1.00
C713   C     0.53888   0.83251   0.45502   0.00000  Uiso   1.00
C714   C     0.46112   0.83416   0.04498   0.00000  Uiso   1.00
C715   C     0.42646   0.84379   0.47213   0.00000  Uiso   1.00
C716   C     0.57354   0.82287   0.02787   0.00000  Uiso   1.00
Cu717  Cu    0.50000   0.88022   0.25000   0.00000  Uiso   1.00
Cu718  Cu    0.50000   0.78645   0.25000   0.00000  Uiso   1.00
N719   N     0.50000   0.95069   0.25000   0.00000  Uiso   1.00
N720   N     0.50000   0.71598   0.25000   0.00000  Uiso   1.00
O721   O     0.43988   0.87291   0.25000   0.00000  Uiso   1.00
O722   O     0.56012   0.79375   0.25001   0.00000  Uiso   1.00
O723   O     0.56012   0.87291   0.25001   0.00000  Uiso   1.00
O724   O     0.43988   0.79375   0.25000   0.00000  Uiso   1.00
O725   O     0.49999   0.87293   0.18513   0.00000  Uiso   1.00
O726   O     0.50001   0.79373   0.31487   0.00000  Uiso   1.00
O727   O     0.50001   0.87293   0.31487   0.00000  Uiso   1.00
O728   O     0.49999   0.79373   0.18513   0.00000  Uiso   1.00
Cl729  Cl    0.58258   0.84865   0.37726   0.00000  Uiso   1.00
Cl730  Cl    0.41742   0.81804   0.12275   0.00000  Uiso   1.00
Cl731  Cl    0.42122   0.80806   0.37217   0.00000  Uiso   1.00
Cl732  Cl    0.57879   0.85859   0.12783   0.00000  Uiso   1.00
Cl733  Cl    0.38405   0.86807   0.44233   0.00000  Uiso   1.00
Cl734  Cl    0.61595   0.79857   0.05766   0.00000  Uiso   1.00
Cl735  Cl    0.37610   0.85106   0.04082   0.00000  Uiso   1.00
Cl736  Cl    0.62389   0.81560   0.45918   0.00000  Uiso   1.00
Cl737  Cl    0.37685   0.75045   0.20156   0.00000  Uiso   1.00
Cl738  Cl    0.62315   0.91623   0.29842   0.00000  Uiso   1.00
Cl739  Cl    0.61742   0.76172   0.18810   0.00000  Uiso   1.00
Cl740  Cl    0.38257   0.90492   0.31194   0.00000  Uiso   1.00
C741   C     0.49188   0.70622   0.16732   0.00000  Uiso   1.00
C742   C     0.45853   0.71291   0.13729   0.00000  Uiso   1.00
C743   C     0.46489   0.71986   0.09205   0.00000  Uiso   1.00
C744   C     0.50457   0.72084   0.07644   0.00000  Uiso   1.00
C745   C     0.53791   0.71394   0.10589   0.00000  Uiso   1.00
C746   C     0.53154   0.70588   0.15089   0.00000  Uiso   1.00
H747   H     0.42768   0.70950   0.14803   0.00000  Uiso   1.00
H748   H     0.43900   0.72416   0.06902   0.00000  Uiso   1.00
H749   H     0.50943   0.72644   0.04146   0.00000  Uiso   1.00
H750   H     0.56862   0.71366   0.09367   0.00000  Uiso   1.00
H751   H     0.55730   0.69736   0.17277   0.00000  Uiso   1.00
C752   C     0.50812   0.96045   0.33268   0.00000  Uiso   1.00
C753   C     0.54147   0.95377   0.36271   0.00000  Uiso   1.00
C754   C     0.53510   0.94681   0.40795   0.00000  Uiso   1.00
C755   C     0.49542   0.94580   0.42355   0.00000  Uiso   1.00
C756   C     0.46208   0.95269   0.39409   0.00000  Uiso   1.00
C757   C     0.46846   0.96077   0.34909   0.00000  Uiso   1.00
H758   H     0.57232   0.95721   0.35199   0.00000  Uiso   1.00
H759   H     0.56099   0.94252   0.43099   0.00000  Uiso   1.00
H760   H     0.49055   0.94019   0.45852   0.00000  Uiso   1.00
H761   H     0.43137   0.95294   0.40629   0.00000  Uiso   1.00
H762   H     0.44271   0.96928   0.32720   0.00000  Uiso   1.00
C763   C     0.54949   0.71384   0.31418   0.00000  Uiso   1.00
C764   C     0.58966   0.71516   0.29923   0.00000  Uiso   1.00
C765   C     0.62231   0.72651   0.32864   0.00000  Uiso   1.00
C766   C     0.61532   0.73486   0.37364   0.00000  Uiso   1.00
C767   C     0.57552   0.73318   0.38902   0.00000  Uiso   1.00
C768   C     0.54260   0.72346   0.35935   0.00000  Uiso   1.00
H769   H     0.59579   0.70581   0.26505   0.00000  Uiso   1.00
H770   H     0.65316   0.72740   0.31681   0.00000  Uiso   1.00
H771   H     0.64085   0.74209   0.39662   0.00000  Uiso   1.00
H772   H     0.57016   0.73878   0.42404   0.00000  Uiso   1.00
H773   H     0.51209   0.72095   0.37196   0.00000  Uiso   1.00
C774   C     0.45050   0.95283   0.18582   0.00000  Uiso   1.00
C775   C     0.45738   0.94322   0.14065   0.00000  Uiso   1.00
C776   C     0.42445   0.93347   0.11101   0.00000  Uiso   1.00
C777   C     0.38466   0.93175   0.12641   0.00000  Uiso   1.00
C778   C     0.37769   0.94009   0.17141   0.00000  Uiso   1.00
C779   C     0.41035   0.95148   0.20080   0.00000  Uiso   1.00
H780   H     0.48788   0.94574   0.12803   0.00000  Uiso   1.00
H781   H     0.42980   0.92787   0.07598   0.00000  Uiso   1.00
H782   H     0.35912   0.92448   0.10345   0.00000  Uiso   1.00
H783   H     0.34685   0.93917   0.18326   0.00000  Uiso   1.00
H784   H     0.40423   0.96082   0.23499   0.00000  Uiso   1.00
C785   C     0.75426   0.83309   0.25037   0.00000  Uiso   1.00
C786   C     0.91241   0.83358   0.24964   0.00000  Uiso   1.00
C787   C     0.75803   0.84101   0.01852   0.00000  Uiso   1.00
C788   C     0.90864   0.82566   0.48148   0.00000  Uiso   1.00
C789   C     0.68680   0.79779   0.22766   0.00000  Uiso   1.00
C790   C     0.97987   0.86886   0.27236   0.00000  Uiso   1.00
C791   C     0.97759   0.79990   0.22517   0.00000  Uiso   1.00
C792   C     0.68908   0.86675   0.27486   0.00000  Uiso   1.00
C793   C     0.95712   0.83436   0.24886   0.00000  Uiso   1.00
C794   C     0.70954   0.83230   0.25116   0.00000  Uiso   1.00
C795   C     0.81983   0.68989   0.21316   0.00000  Uiso   1.00
C796   C     0.84684   0.97677   0.28683   0.00000  Uiso   1.00
C797   C     0.85087   0.69217   0.28465   0.00000  Uiso   1.00
C798   C     0.81580   0.97450   0.21535   0.00000  Uiso   1.00
C799   C     0.83255   0.83309   0.16480   0.00000  Uiso   1.00
C800   C     0.83411   0.83358   0.33520   0.00000  Uiso   1.00
C801   C     0.87180   0.83709   0.40794   0.00000  Uiso   1.00
C802   C     0.79487   0.82958   0.09206   0.00000  Uiso   1.00
C803   C     0.83457   0.83375   0.38348   0.00000  Uiso   1.00
C804   C     0.83210   0.83291   0.11652   0.00000  Uiso   1.00
C805   C     0.79762   0.82880   0.40443   0.00000  Uiso   1.00
C806   C     0.86905   0.83786   0.09557   0.00000  Uiso   1.00
C807   C     0.79667   0.83498   0.45085   0.00000  Uiso   1.00
C808   C     0.87000   0.83168   0.04915   0.00000  Uiso   1.00
C809   C     0.83391   0.83341   0.47648   0.00000  Uiso   1.00
C810   C     0.83275   0.83326   0.02352   0.00000  Uiso   1.00
C811   C     0.87221   0.83251   0.45502   0.00000  Uiso   1.00
C812   C     0.79445   0.83416   0.04498   0.00000  Uiso   1.00
C813   C     0.75979   0.84379   0.47213   0.00000  Uiso   1.00
C814   C     0.90688   0.82287   0.02787   0.00000  Uiso   1.00
Cu815  Cu    0.83333   0.88022   0.25000   0.00000  Uiso   1.00
Cu816  Cu    0.83333   0.78645   0.25000   0.00000  Uiso   1.00
N817   N     0.83333   0.95069   0.25000   0.00000  Uiso   1.00
N818   N     0.83333   0.71598   0.25000   0.00000  Uiso   1.00
O819   O     0.77321   0.87291   0.25000   0.00000  Uiso   1.00
O820   O     0.89345   0.79375   0.25001   0.00000  Uiso   1.00
O821   O     0.89345   0.87291   0.25001   0.00000  Uiso   1.00
O822   O     0.77321   0.79375   0.25000   0.00000  Uiso   1.00
O823   O     0.83332   0.87293   0.18513   0.00000  Uiso   1.00
O824   O     0.83334   0.79373   0.31487   0.00000  Uiso   1.00
O825   O     0.83334   0.87293   0.31487   0.00000  Uiso   1.00
O826   O     0.83332   0.79373   0.18513   0.00000  Uiso   1.00
Cl827  Cl    0.91591   0.84865   0.37726   0.00000  Uiso   1.00
Cl828  Cl    0.75075   0.81804   0.12275   0.00000  Uiso   1.00
Cl829  Cl    0.75455   0.80806   0.37217   0.00000  Uiso   1.00
Cl830  Cl    0.91212   0.85859   0.12783   0.00000  Uiso   1.00
Cl831  Cl    0.71738   0.86807   0.44233   0.00000  Uiso   1.00
Cl832  Cl    0.94928   0.79857   0.05766   0.00000  Uiso   1.00
Cl833  Cl    0.70943   0.85106   0.04082   0.00000  Uiso   1.00
Cl834  Cl    0.95723   0.81560   0.45918   0.00000  Uiso   1.00
Cl835  Cl    0.71018   0.75045   0.20156   0.00000  Uiso   1.00
Cl836  Cl    0.95649   0.91623   0.29842   0.00000  Uiso   1.00
Cl837  Cl    0.95076   0.76172   0.18810   0.00000  Uiso   1.00
Cl838  Cl    0.71591   0.90492   0.31194   0.00000  Uiso   1.00
C839   C     0.82522   0.70622   0.16732   0.00000  Uiso   1.00
C840   C     0.79186   0.71291   0.13729   0.00000  Uiso   1.00
C841   C     0.79823   0.71986   0.09205   0.00000  Uiso   1.00
C842   C     0.83790   0.72084   0.07644   0.00000  Uiso   1.00
C843   C     0.87124   0.71394   0.10589   0.00000  Uiso   1.00
C844   C     0.86488   0.70588   0.15089   0.00000  Uiso   1.00
H845   H     0.76101   0.70950   0.14803   0.00000  Uiso   1.00
H846   H     0.77233   0.72416   0.06902   0.00000  Uiso   1.00
H847   H     0.84276   0.72644   0.04146   0.00000  Uiso   1.00
H848   H     0.90195   0.71366   0.09367   0.00000  Uiso   1.00
H849   H     0.89063   0.69736   0.17277   0.00000  Uiso   1.00
C850   C     0.84146   0.96045   0.33268   0.00000  Uiso   1.00
C851   C     0.87481   0.95377   0.36271   0.00000  Uiso   1.00
C852   C     0.86843   0.94681   0.40795   0.00000  Uiso   1.00
C853   C     0.82876   0.94580   0.42355   0.00000  Uiso   1.00
C854   C     0.79542   0.95269   0.39409   0.00000  Uiso   1.00
C855   C     0.80179   0.96077   0.34909   0.00000  Uiso   1.00
H856   H     0.90565   0.95721   0.35199   0.00000  Uiso   1.00
H857   H     0.89432   0.94252   0.43099   0.00000  Uiso   1.00
H858   H     0.82389   0.94019   0.45852   0.00000  Uiso   1.00
H859   H     0.76470   0.95294   0.40629   0.00000  Uiso   1.00
H860   H     0.77604   0.96928   0.32720   0.00000  Uiso   1.00
C861   C     0.88283   0.71384   0.31418   0.00000  Uiso   1.00
C862   C     0.92299   0.71516   0.29923   0.00000  Uiso   1.00
C863   C     0.95564   0.72651   0.32864   0.00000  Uiso   1.00
C864   C     0.94866   0.73486   0.37364   0.00000  Uiso   1.00
C865   C     0.90886   0.73318   0.38902   0.00000  Uiso   1.00
C866   C     0.87594   0.72346   0.35935   0.00000  Uiso   1.00
H867   H     0.92912   0.70581   0.26505   0.00000  Uiso   1.00
H868   H     0.98649   0.72740   0.31681   0.00000  Uiso   1.00
H869   H     0.97419   0.74209   0.39662   0.00000  Uiso   1.00
H870   H     0.90350   0.73878   0.42404   0.00000  Uiso   1.00
H871   H     0.84542   0.72095   0.37196   0.00000  Uiso   1.00
C872   C     0.78384   0.95283   0.18582   0.00000  Uiso   1.00
C873   C     0.79071   0.94322   0.14065   0.00000  Uiso   1.00
C874   C     0.75778   0.93347   0.11101   0.00000  Uiso   1.00
C875   C     0.71799   0.93175   0.12641   0.00000  Uiso   1.00
C876   C     0.71102   0.94009   0.17141   0.00000  Uiso   1.00
C877   C     0.74368   0.95148   0.20080   0.00000  Uiso   1.00
H878   H     0.82122   0.94574   0.12803   0.00000  Uiso   1.00
H879   H     0.76313   0.92787   0.07598   0.00000  Uiso   1.00
H880   H     0.69245   0.92448   0.10345   0.00000  Uiso   1.00
H881   H     0.68018   0.93917   0.18326   0.00000  Uiso   1.00
H882   H     0.73756   0.96082   0.23499   0.00000  Uiso   1.00
C883   C     0.08759   0.16642   0.75037   0.00000  Uiso   1.00
C884   C     0.24574   0.16691   0.74964   0.00000  Uiso   1.00
C885   C     0.09136   0.17435   0.51852   0.00000  Uiso   1.00
C886   C     0.24197   0.15899   0.98148   0.00000  Uiso   1.00
C887   C     0.02013   0.13112   0.72766   0.00000  Uiso   1.00
C888   C     0.31320   0.20220   0.77236   0.00000  Uiso   1.00
C889   C     0.31092   0.13323   0.72517   0.00000  Uiso   1.00
C890   C     0.02241   0.20008   0.77486   0.00000  Uiso   1.00
C891   C     0.29046   0.16769   0.74886   0.00000  Uiso   1.00
C892   C     0.04288   0.16563   0.75116   0.00000  Uiso   1.00
C893   C     0.15316   0.02323   0.71316   0.00000  Uiso   1.00
C894   C     0.18018   0.31011   0.78683   0.00000  Uiso   1.00
C895   C     0.18421   0.02550   0.78465   0.00000  Uiso   1.00
C896   C     0.14913   0.30783   0.71535   0.00000  Uiso   1.00
C897   C     0.16589   0.16642   0.66480   0.00000  Uiso   1.00
C898   C     0.16745   0.16691   0.83520   0.00000  Uiso   1.00
C899   C     0.20513   0.17042   0.90794   0.00000  Uiso   1.00
C900   C     0.12820   0.16292   0.59206   0.00000  Uiso   1.00
C901   C     0.16790   0.16709   0.88348   0.00000  Uiso   1.00
C902   C     0.16543   0.16625   0.61652   0.00000  Uiso   1.00
C903   C     0.13096   0.16213   0.90443   0.00000  Uiso   1.00
C904   C     0.20238   0.17119   0.59557   0.00000  Uiso   1.00
C905   C     0.13000   0.16832   0.95085   0.00000  Uiso   1.00
C906   C     0.20333   0.16501   0.54915   0.00000  Uiso   1.00
C907   C     0.16725   0.16675   0.97648   0.00000  Uiso   1.00
C908   C     0.16609   0.16659   0.52352   0.00000  Uiso   1.00
C909   C     0.20555   0.16584   0.95502   0.00000  Uiso   1.00
C910   C     0.12778   0.16749   0.54498   0.00000  Uiso   1.00
C911   C     0.09312   0.17712   0.97213   0.00000  Uiso   1.00
C912   C     0.24021   0.15621   0.52787   0.00000  Uiso   1.00
Cu913  Cu    0.16667   0.21355   0.75000   0.00000  Uiso   1.00
Cu914  Cu    0.16667   0.11978   0.75000   0.00000  Uiso   1.00
N915   N     0.16667   0.28402   0.75000   0.00000  Uiso   1.00
N916   N     0.16667   0.04931   0.75000   0.00000  Uiso   1.00
O917   O     0.10655   0.20625   0.75000   0.00000  Uiso   1.00
O918   O     0.22679   0.12709   0.75001   0.00000  Uiso   1.00
O919   O     0.22679   0.20625   0.75001   0.00000  Uiso   1.00
O920   O     0.10655   0.12709   0.75000   0.00000  Uiso   1.00
O921   O     0.16666   0.20627   0.68513   0.00000  Uiso   1.00
O922   O     0.16668   0.12707   0.81487   0.00000  Uiso   1.00
O923   O     0.16668   0.20627   0.81487   0.00000  Uiso   1.00
O924   O     0.16666   0.12707   0.68513   0.00000  Uiso   1.00
Cl925  Cl    0.24925   0.18198   0.87726   0.00000  Uiso   1.00
Cl926  Cl    0.08409   0.15137   0.62275   0.00000  Uiso   1.00
Cl927  Cl    0.08789   0.14139   0.87217   0.00000  Uiso   1.00
Cl928  Cl    0.24545   0.19192   0.62783   0.00000  Uiso   1.00
Cl929  Cl    0.05072   0.20140   0.94233   0.00000  Uiso   1.00
Cl930  Cl    0.28261   0.13191   0.55766   0.00000  Uiso   1.00
Cl931  Cl    0.04277   0.18439   0.54082   0.00000  Uiso   1.00
Cl932  Cl    0.29056   0.14893   0.95918   0.00000  Uiso   1.00
Cl933  Cl    0.04351   0.08379   0.70156   0.00000  Uiso   1.00
Cl934  Cl    0.28982   0.24956   0.79842   0.00000  Uiso   1.00
Cl935  Cl    0.28409   0.09506   0.68810   0.00000  Uiso   1.00
Cl936  Cl    0.04924   0.23825   0.81194   0.00000  Uiso   1.00
C937   C     0.15855   0.03955   0.66732   0.00000  Uiso   1.00
C938   C     0.12520   0.04624   0.63729   0.00000  Uiso   1.00
C939   C     0.13156   0.05319   0.59205   0.00000  Uiso   1.00
C940   C     0.17123   0.05417   0.57644   0.00000  Uiso   1.00
C941   C     0.20458   0.04727   0.60589   0.00000  Uiso   1.00
C942   C     0.19821   0.03921   0.65089   0.00000  Uiso   1.00
H943   H     0.09435   0.04283   0.64803   0.00000  Uiso   1.00
H944   H     0.10566   0.05750   0.56902   0.00000  Uiso   1.00
H945   H     0.17610   0.05977   0.54146   0.00000  Uiso   1.00
H946   H     0.23529   0.04700   0.59367   0.00000  Uiso   1.00
H947   H     0.22396   0.03069   0.67277   0.00000  Uiso   1.00
C948   C     0.17479   0.29378   0.83268   0.00000  Uiso   1.00
C949   C     0.20814   0.28710   0.86271   0.00000  Uiso   1.00
C950   C     0.20177   0.28015   0.90795   0.00000  Uiso   1.00
C951   C     0.16209   0.27913   0.92355   0.00000  Uiso   1.00
C952   C     0.12875   0.28602   0.89409   0.00000  Uiso   1.00
C953   C     0.13513   0.29410   0.84909   0.00000  Uiso   1.00
H954   H     0.23899   0.29054   0.85199   0.00000  Uiso   1.00
H955   H     0.22766   0.27586   0.93099   0.00000  Uiso   1.00
H956   H     0.15722   0.27353   0.95852   0.00000  Uiso   1.00
H957   H     0.09804   0.28627   0.90629   0.00000  Uiso   1.00
H958   H     0.10938   0.30262   0.82720   0.00000  Uiso   1.00
C959   C     0.21616   0.04717   0.81418   0.00000  Uiso   1.00
C960   C     0.25633   0.04849   0.79923   0.00000  Uiso   1.00
C961   C     0.28898   0.05985   0.82864   0.00000  Uiso   1.00
C962   C     0.28199   0.06819   0.87364   0.00000  Uiso   1.00
C963   C     0.24219   0.06652   0.88902   0.00000  Uiso   1.00
C964   C     0.20927   0.05679   0.85935   0.00000  Uiso   1.00
H965   H     0.26246   0.03914   0.76505   0.00000  Uiso   1.00
H966   H     0.31983   0.06073   0.81681   0.00000  Uiso   1.00
H967   H     0.30752   0.07543   0.89662   0.00000  Uiso   1.00
H968   H     0.23683   0.07211   0.92404   0.00000  Uiso   1.00
H969   H     0.17876   0.05429   0.87196   0.00000  Uiso   1.00
C970   C     0.11717   0.28616   0.68582   0.00000  Uiso   1.00
C971   C     0.12404   0.27655   0.64065   0.00000  Uiso   1.00
C972   C     0.09112   0.26680   0.61101   0.00000  Uiso   1.00
C973   C     0.05132   0.26509   0.62641   0.00000  Uiso   1.00
C974   C     0.04436   0.27343   0.67141   0.00000  Uiso   1.00
C975   C     0.07701   0.28481   0.70080   0.00000  Uiso   1.00
H976   H     0.15455   0.27908   0.62803   0.00000  Uiso   1.00
H977   H     0.09646   0.26120   0.57598   0.00000  Uiso   1.00
H978   H     0.02579   0.25781   0.60345   0.00000  Uiso   1.00
H979   H     0.01352   0.27251   0.68326   0.00000  Uiso   1.00
H980   H     0.07089   0.29415   0.73499   0.00000  Uiso   1.00
C981   C     0.42093   0.16642   0.75037   0.00000  Uiso   1.00
C982   C     0.57907   0.16691   0.74964   0.00000  Uiso   1.00
C983   C     0.42469   0.17435   0.51852   0.00000  Uiso   1.00
C984   C     0.57531   0.15899   0.98148   0.00000  Uiso   1.00
C985   C     0.35346   0.13112   0.72766   0.00000  Uiso   1.00
C986   C     0.64654   0.20220   0.77236   0.00000  Uiso   1.00
C987   C     0.64425   0.13323   0.72517   0.00000  Uiso   1.00
C988   C     0.35575   0.20008   0.77486   0.00000  Uiso   1.00
C989   C     0.62379   0.16769   0.74886   0.00000  Uiso   1.00
C990   C     0.37621   0.16563   0.75116   0.00000  Uiso   1.00
C991   C     0.48650   0.02323   0.71316   0.00000  Uiso   1.00
C992   C     0.51351   0.31011   0.78683   0.00000  Uiso   1.00
C993   C     0.51754   0.02550   0.78465   0.00000  Uiso   1.00
C994   C     0.48246   0.30783   0.71535   0.00000  Uiso   1.00
C995   C     0.49922   0.16642   0.66480   0.00000  Uiso   1.00
C996   C     0.50078   0.16691   0.83520   0.00000  Uiso   1.00
C997   C     0.53847   0.17042   0.90794   0.00000  Uiso   1.00
C998   C     0.46153   0.16292   0.59206   0.00000  Uiso   1.00
C999   C     0.50124   0.16709   0.88348   0.00000  Uiso   1.00
C1000  C     0.49876   0.16625   0.61652   0.00000  Uiso   1.00
C1001  C     0.46429   0.16213   0.90443   0.00000  Uiso   1.00
C1002  C     0.53571   0.17119   0.59557   0.00000  Uiso   1.00
C1003  C     0.46334   0.16832   0.95085   0.00000  Uiso   1.00
C1004  C     0.53666   0.16501   0.54915   0.00000  Uiso   1.00
C1005  C     0.50058   0.16675   0.97648   0.00000  Uiso   1.00
C1006  C     0.49942   0.16659   0.52352   0.00000  Uiso   1.00
C1007  C     0.53888   0.16584   0.95502   0.00000  Uiso   1.00
C1008  C     0.46112   0.16749   0.54498   0.00000  Uiso   1.00
C1009  C     0.42646   0.17712   0.97213   0.00000  Uiso   1.00
C1010  C     0.57354   0.15621   0.52787   0.00000  Uiso   1.00
Cu1011 Cu    0.50000   0.21355   0.75000   0.00000  Uiso   1.00
Cu1012 Cu    0.50000   0.11978   0.75000   0.00000  Uiso   1.00
N1013  N     0.50000   0.28402   0.75000   0.00000  Uiso   1.00
N1014  N     0.50000   0.04931   0.75000   0.00000  Uiso   1.00
O1015  O     0.43988   0.20625   0.75000   0.00000  Uiso   1.00
O1016  O     0.56012   0.12709   0.75001   0.00000  Uiso   1.00
O1017  O     0.56012   0.20625   0.75001   0.00000  Uiso   1.00
O1018  O     0.43988   0.12709   0.75000   0.00000  Uiso   1.00
O1019  O     0.49999   0.20627   0.68513   0.00000  Uiso   1.00
O1020  O     0.50001   0.12707   0.81487   0.00000  Uiso   1.00
O1021  O     0.50001   0.20627   0.81487   0.00000  Uiso   1.00
O1022  O     0.49999   0.12707   0.68513   0.00000  Uiso   1.00
Cl1023 Cl    0.58258   0.18198   0.87726   0.00000  Uiso   1.00
Cl1024 Cl    0.41742   0.15137   0.62275   0.00000  Uiso   1.00
Cl1025 Cl    0.42122   0.14139   0.87217   0.00000  Uiso   1.00
Cl1026 Cl    0.57879   0.19192   0.62783   0.00000  Uiso   1.00
Cl1027 Cl    0.38405   0.20140   0.94233   0.00000  Uiso   1.00
Cl1028 Cl    0.61595   0.13191   0.55766   0.00000  Uiso   1.00
Cl1029 Cl    0.37610   0.18439   0.54082   0.00000  Uiso   1.00
Cl1030 Cl    0.62389   0.14893   0.95918   0.00000  Uiso   1.00
Cl1031 Cl    0.37685   0.08379   0.70156   0.00000  Uiso   1.00
Cl1032 Cl    0.62315   0.24956   0.79842   0.00000  Uiso   1.00
Cl1033 Cl    0.61742   0.09506   0.68810   0.00000  Uiso   1.00
Cl1034 Cl    0.38257   0.23825   0.81194   0.00000  Uiso   1.00
C1035  C     0.49188   0.03955   0.66732   0.00000  Uiso   1.00
C1036  C     0.45853   0.04624   0.63729   0.00000  Uiso   1.00
C1037  C     0.46489   0.05319   0.59205   0.00000  Uiso   1.00
C1038  C     0.50457   0.05417   0.57644   0.00000  Uiso   1.00
C1039  C     0.53791   0.04727   0.60589   0.00000  Uiso   1.00
C1040  C     0.53154   0.03921   0.65089   0.00000  Uiso   1.00
H1041  H     0.42768   0.04283   0.64803   0.00000  Uiso   1.00
H1042  H     0.43900   0.05750   0.56902   0.00000  Uiso   1.00
H1043  H     0.50943   0.05977   0.54146   0.00000  Uiso   1.00
H1044  H     0.56862   0.04700   0.59367   0.00000  Uiso   1.00
H1045  H     0.55730   0.03069   0.67277   0.00000  Uiso   1.00
C1046  C     0.50812   0.29378   0.83268   0.00000  Uiso   1.00
C1047  C     0.54147   0.28710   0.86271   0.00000  Uiso   1.00
C1048  C     0.53510   0.28015   0.90795   0.00000  Uiso   1.00
C1049  C     0.49542   0.27913   0.92355   0.00000  Uiso   1.00
C1050  C     0.46208   0.28602   0.89409   0.00000  Uiso   1.00
C1051  C     0.46846   0.29410   0.84909   0.00000  Uiso   1.00
H1052  H     0.57232   0.29054   0.85199   0.00000  Uiso   1.00
H1053  H     0.56099   0.27586   0.93099   0.00000  Uiso   1.00
H1054  H     0.49055   0.27353   0.95852   0.00000  Uiso   1.00
H1055  H     0.43137   0.28627   0.90629   0.00000  Uiso   1.00
H1056  H     0.44271   0.30262   0.82720   0.00000  Uiso   1.00
C1057  C     0.54949   0.04717   0.81418   0.00000  Uiso   1.00
C1058  C     0.58966   0.04849   0.79923   0.00000  Uiso   1.00
C1059  C     0.62231   0.05985   0.82864   0.00000  Uiso   1.00
C1060  C     0.61532   0.06819   0.87364   0.00000  Uiso   1.00
C1061  C     0.57552   0.06652   0.88902   0.00000  Uiso   1.00
C1062  C     0.54260   0.05679   0.85935   0.00000  Uiso   1.00
H1063  H     0.59579   0.03914   0.76505   0.00000  Uiso   1.00
H1064  H     0.65316   0.06073   0.81681   0.00000  Uiso   1.00
H1065  H     0.64085   0.07543   0.89662   0.00000  Uiso   1.00
H1066  H     0.57016   0.07211   0.92404   0.00000  Uiso   1.00
H1067  H     0.51209   0.05429   0.87196   0.00000  Uiso   1.00
C1068  C     0.45050   0.28616   0.68582   0.00000  Uiso   1.00
C1069  C     0.45738   0.27655   0.64065   0.00000  Uiso   1.00
C1070  C     0.42445   0.26680   0.61101   0.00000  Uiso   1.00
C1071  C     0.38466   0.26509   0.62641   0.00000  Uiso   1.00
C1072  C     0.37769   0.27343   0.67141   0.00000  Uiso   1.00
C1073  C     0.41035   0.28481   0.70080   0.00000  Uiso   1.00
H1074  H     0.48788   0.27908   0.62803   0.00000  Uiso   1.00
H1075  H     0.42980   0.26120   0.57598   0.00000  Uiso   1.00
H1076  H     0.35912   0.25781   0.60345   0.00000  Uiso   1.00
H1077  H     0.34685   0.27251   0.68326   0.00000  Uiso   1.00
H1078  H     0.40423   0.29415   0.73499   0.00000  Uiso   1.00
C1079  C     0.75426   0.16642   0.75037   0.00000  Uiso   1.00
C1080  C     0.91241   0.16691   0.74964   0.00000  Uiso   1.00
C1081  C     0.75803   0.17435   0.51852   0.00000  Uiso   1.00
C1082  C     0.90864   0.15899   0.98148   0.00000  Uiso   1.00
C1083  C     0.68680   0.13112   0.72766   0.00000  Uiso   1.00
C1084  C     0.97987   0.20220   0.77236   0.00000  Uiso   1.00
C1085  C     0.97759   0.13323   0.72517   0.00000  Uiso   1.00
C1086  C     0.68908   0.20008   0.77486   0.00000  Uiso   1.00
C1087  C     0.95712   0.16769   0.74886   0.00000  Uiso   1.00
C1088  C     0.70954   0.16563   0.75116   0.00000  Uiso   1.00
C1089  C     0.81983   0.02323   0.71316   0.00000  Uiso   1.00
C1090  C     0.84684   0.31011   0.78683   0.00000  Uiso   1.00
C1091  C     0.85087   0.02550   0.78465   0.00000  Uiso   1.00
C1092  C     0.81580   0.30783   0.71535   0.00000  Uiso   1.00
C1093  C     0.83255   0.16642   0.66480   0.00000  Uiso   1.00
C1094  C     0.83411   0.16691   0.83520   0.00000  Uiso   1.00
C1095  C     0.87180   0.17042   0.90794   0.00000  Uiso   1.00
C1096  C     0.79487   0.16292   0.59206   0.00000  Uiso   1.00
C1097  C     0.83457   0.16709   0.88348   0.00000  Uiso   1.00
C1098  C     0.83210   0.16625   0.61652   0.00000  Uiso   1.00
C1099  C     0.79762   0.16213   0.90443   0.00000  Uiso   1.00
C1100  C     0.86905   0.17119   0.59557   0.00000  Uiso   1.00
C1101  C     0.79667   0.16832   0.95085   0.00000  Uiso   1.00
C1102  C     0.87000   0.16501   0.54915   0.00000  Uiso   1.00
C1103  C     0.83391   0.16675   0.97648   0.00000  Uiso   1.00
C1104  C     0.83275   0.16659   0.52352   0.00000  Uiso   1.00
C1105  C     0.87221   0.16584   0.95502   0.00000  Uiso   1.00
C1106  C     0.79445   0.16749   0.54498   0.00000  Uiso   1.00
C1107  C     0.75979   0.17712   0.97213   0.00000  Uiso   1.00
C1108  C     0.90688   0.15621   0.52787   0.00000  Uiso   1.00
Cu1109 Cu    0.83333   0.21355   0.75000   0.00000  Uiso   1.00
Cu1110 Cu    0.83333   0.11978   0.75000   0.00000  Uiso   1.00
N1111  N     0.83333   0.28402   0.75000   0.00000  Uiso   1.00
N1112  N     0.83333   0.04931   0.75000   0.00000  Uiso   1.00
O1113  O     0.77321   0.20625   0.75000   0.00000  Uiso   1.00
O1114  O     0.89345   0.12709   0.75001   0.00000  Uiso   1.00
O1115  O     0.89345   0.20625   0.75001   0.00000  Uiso   1.00
O1116  O     0.77321   0.12709   0.75000   0.00000  Uiso   1.00
O1117  O     0.83332   0.20627   0.68513   0.00000  Uiso   1.00
O1118  O     0.83334   0.12707   0.81487   0.00000  Uiso   1.00
O1119  O     0.83334   0.20627   0.81487   0.00000  Uiso   1.00
O1120  O     0.83332   0.12707   0.68513   0.00000  Uiso   1.00
Cl1121 Cl    0.91591   0.18198   0.87726   0.00000  Uiso   1.00
Cl1122 Cl    0.75075   0.15137   0.62275   0.00000  Uiso   1.00
Cl1123 Cl    0.75455   0.14139   0.87217   0.00000  Uiso   1.00
Cl1124 Cl    0.91212   0.19192   0.62783   0.00000  Uiso   1.00
Cl1125 Cl    0.71738   0.20140   0.94233   0.00000  Uiso   1.00
Cl1126 Cl    0.94928   0.13191   0.55766   0.00000  Uiso   1.00
Cl1127 Cl    0.70943   0.18439   0.54082   0.00000  Uiso   1.00
Cl1128 Cl    0.95723   0.14893   0.95918   0.00000  Uiso   1.00
Cl1129 Cl    0.71018   0.08379   0.70156   0.00000  Uiso   1.00
Cl1130 Cl    0.95649   0.24956   0.79842   0.00000  Uiso   1.00
Cl1131 Cl    0.95076   0.09506   0.68810   0.00000  Uiso   1.00
Cl1132 Cl    0.71591   0.23825   0.81194   0.00000  Uiso   1.00
C1133  C     0.82522   0.03955   0.66732   0.00000  Uiso   1.00
C1134  C     0.79186   0.04624   0.63729   0.00000  Uiso   1.00
C1135  C     0.79823   0.05319   0.59205   0.00000  Uiso   1.00
C1136  C     0.83790   0.05417   0.57644   0.00000  Uiso   1.00
C1137  C     0.87124   0.04727   0.60589   0.00000  Uiso   1.00
C1138  C     0.86488   0.03921   0.65089   0.00000  Uiso   1.00
H1139  H     0.76101   0.04283   0.64803   0.00000  Uiso   1.00
H1140  H     0.77233   0.05750   0.56902   0.00000  Uiso   1.00
H1141  H     0.84276   0.05977   0.54146   0.00000  Uiso   1.00
H1142  H     0.90195   0.04700   0.59367   0.00000  Uiso   1.00
H1143  H     0.89063   0.03069   0.67277   0.00000  Uiso   1.00
C1144  C     0.84146   0.29378   0.83268   0.00000  Uiso   1.00
C1145  C     0.87481   0.28710   0.86271   0.00000  Uiso   1.00
C1146  C     0.86843   0.28015   0.90795   0.00000  Uiso   1.00
C1147  C     0.82876   0.27913   0.92355   0.00000  Uiso   1.00
C1148  C     0.79542   0.28602   0.89409   0.00000  Uiso   1.00
C1149  C     0.80179   0.29410   0.84909   0.00000  Uiso   1.00
H1150  H     0.90565   0.29054   0.85199   0.00000  Uiso   1.00
H1151  H     0.89432   0.27586   0.93099   0.00000  Uiso   1.00
H1152  H     0.82389   0.27353   0.95852   0.00000  Uiso   1.00
H1153  H     0.76470   0.28627   0.90629   0.00000  Uiso   1.00
H1154  H     0.77604   0.30262   0.82720   0.00000  Uiso   1.00
C1155  C     0.88283   0.04717   0.81418   0.00000  Uiso   1.00
C1156  C     0.92299   0.04849   0.79923   0.00000  Uiso   1.00
C1157  C     0.95564   0.05985   0.82864   0.00000  Uiso   1.00
C1158  C     0.94866   0.06819   0.87364   0.00000  Uiso   1.00
C1159  C     0.90886   0.06652   0.88902   0.00000  Uiso   1.00
C1160  C     0.87594   0.05679   0.85935   0.00000  Uiso   1.00
H1161  H     0.92912   0.03914   0.76505   0.00000  Uiso   1.00
H1162  H     0.98649   0.06073   0.81681   0.00000  Uiso   1.00
H1163  H     0.97419   0.07543   0.89662   0.00000  Uiso   1.00
H1164  H     0.90350   0.07211   0.92404   0.00000  Uiso   1.00
H1165  H     0.84542   0.05429   0.87196   0.00000  Uiso   1.00
C1166  C     0.78384   0.28616   0.68582   0.00000  Uiso   1.00
C1167  C     0.79071   0.27655   0.64065   0.00000  Uiso   1.00
C1168  C     0.75778   0.26680   0.61101   0.00000  Uiso   1.00
C1169  C     0.71799   0.26509   0.62641   0.00000  Uiso   1.00
C1170  C     0.71102   0.27343   0.67141   0.00000  Uiso   1.00
C1171  C     0.74368   0.28481   0.70080   0.00000  Uiso   1.00
H1172  H     0.82122   0.27908   0.62803   0.00000  Uiso   1.00
H1173  H     0.76313   0.26120   0.57598   0.00000  Uiso   1.00
H1174  H     0.69245   0.25781   0.60345   0.00000  Uiso   1.00
H1175  H     0.68018   0.27251   0.68326   0.00000  Uiso   1.00
H1176  H     0.73756   0.29415   0.73499   0.00000  Uiso   1.00
C1177  C     0.08759   0.49975   0.75037   0.00000  Uiso   1.00
C1178  C     0.24574   0.50025   0.74964   0.00000  Uiso   1.00
C1179  C     0.09136   0.50768   0.51852   0.00000  Uiso   1.00
C1180  C     0.24197   0.49232   0.98148   0.00000  Uiso   1.00
C1181  C     0.02013   0.46445   0.72766   0.00000  Uiso   1.00
C1182  C     0.31320   0.53553   0.77236   0.00000  Uiso   1.00
C1183  C     0.31092   0.46656   0.72517   0.00000  Uiso   1.00
C1184  C     0.02241   0.53342   0.77486   0.00000  Uiso   1.00
C1185  C     0.29046   0.50102   0.74886   0.00000  Uiso   1.00
C1186  C     0.04288   0.49897   0.75116   0.00000  Uiso   1.00
C1187  C     0.15316   0.35656   0.71316   0.00000  Uiso   1.00
C1188  C     0.18018   0.64344   0.78683   0.00000  Uiso   1.00
C1189  C     0.18421   0.35883   0.78465   0.00000  Uiso   1.00
C1190  C     0.14913   0.64117   0.71535   0.00000  Uiso   1.00
C1191  C     0.16589   0.49976   0.66480   0.00000  Uiso   1.00
C1192  C     0.16745   0.50024   0.83520   0.00000  Uiso   1.00
C1193  C     0.20513   0.50376   0.90794   0.00000  Uiso   1.00
C1194  C     0.12820   0.49625   0.59206   0.00000  Uiso   1.00
C1195  C     0.16790   0.50042   0.88348   0.00000  Uiso   1.00
C1196  C     0.16543   0.49958   0.61652   0.00000  Uiso   1.00
C1197  C     0.13096   0.49547   0.90443   0.00000  Uiso   1.00
C1198  C     0.20238   0.50453   0.59557   0.00000  Uiso   1.00
C1199  C     0.13000   0.50165   0.95085   0.00000  Uiso   1.00
C1200  C     0.20333   0.49835   0.54915   0.00000  Uiso   1.00
C1201  C     0.16725   0.50008   0.97648   0.00000  Uiso   1.00
C1202  C     0.16609   0.49992   0.52352   0.00000  Uiso   1.00
C1203  C     0.20555   0.49918   0.95502   0.00000  Uiso   1.00
C1204  C     0.12778   0.50083   0.54498   0.00000  Uiso   1.00
C1205  C     0.09312   0.51046   0.97213   0.00000  Uiso   1.00
C1206  C     0.24021   0.48954   0.52787   0.00000  Uiso   1.00
Cu1207 Cu    0.16667   0.54689   0.75000   0.00000  Uiso   1.00
Cu1208 Cu    0.16667   0.45311   0.75000   0.00000  Uiso   1.00
N1209  N     0.16667   0.61736   0.75000   0.00000  Uiso   1.00
N1210  N     0.16667   0.38264   0.75000   0.00000  Uiso   1.00
O1211  O     0.10655   0.53958   0.75000   0.00000  Uiso   1.00
O1212  O     0.22679   0.46042   0.75001   0.00000  Uiso   1.00
O1213  O     0.22679   0.53958   0.75001   0.00000  Uiso   1.00
O1214  O     0.10655   0.46042   0.75000   0.00000  Uiso   1.00
O1215  O     0.16666   0.53960   0.68513   0.00000  Uiso   1.00
O1216  O     0.16668   0.46040   0.81487   0.00000  Uiso   1.00
O1217  O     0.16668   0.53960   0.81487   0.00000  Uiso   1.00
O1218  O     0.16666   0.46040   0.68513   0.00000  Uiso   1.00
Cl1219 Cl    0.24925   0.51531   0.87726   0.00000  Uiso   1.00
Cl1220 Cl    0.08409   0.48471   0.62275   0.00000  Uiso   1.00
Cl1221 Cl    0.08789   0.47473   0.87217   0.00000  Uiso   1.00
Cl1222 Cl    0.24545   0.52525   0.62783   0.00000  Uiso   1.00
Cl1223 Cl    0.05072   0.53474   0.94233   0.00000  Uiso   1.00
Cl1224 Cl    0.28261   0.46524   0.55766   0.00000  Uiso   1.00
Cl1225 Cl    0.04277   0.51772   0.54082   0.00000  Uiso   1.00
Cl1226 Cl    0.29056   0.48227   0.95918   0.00000  Uiso   1.00
Cl1227 Cl    0.04351   0.41712   0.70156   0.00000  Uiso   1.00
Cl1228 Cl    0.28982   0.58290   0.79842   0.00000  Uiso   1.00
Cl1229 Cl    0.28409   0.42839   0.68810   0.00000  Uiso   1.00
Cl1230 Cl    0.04924   0.57158   0.81194   0.00000  Uiso   1.00
C1231  C     0.15855   0.37289   0.66732   0.00000  Uiso   1.00
C1232  C     0.12520   0.37958   0.63729   0.00000  Uiso   1.00
C1233  C     0.13156   0.38653   0.59205   0.00000  Uiso   1.00
C1234  C     0.17123   0.38751   0.57644   0.00000  Uiso   1.00
C1235  C     0.20458   0.38061   0.60589   0.00000  Uiso   1.00
C1236  C     0.19821   0.37254   0.65089   0.00000  Uiso   1.00
H1237  H     0.09435   0.37616   0.64803   0.00000  Uiso   1.00
H1238  H     0.10566   0.39083   0.56902   0.00000  Uiso   1.00
H1239  H     0.17610   0.39311   0.54146   0.00000  Uiso   1.00
H1240  H     0.23529   0.38033   0.59367   0.00000  Uiso   1.00
H1241  H     0.22396   0.36402   0.67277   0.00000  Uiso   1.00
C1242  C     0.17479   0.62711   0.83268   0.00000  Uiso   1.00
C1243  C     0.20814   0.62044   0.86271   0.00000  Uiso   1.00
C1244  C     0.20177   0.61348   0.90795   0.00000  Uiso   1.00
C1245  C     0.16209   0.61247   0.92355   0.00000  Uiso   1.00
C1246  C     0.12875   0.61935   0.89409   0.00000  Uiso   1.00
C1247  C     0.13513   0.62743   0.84909   0.00000  Uiso   1.00
H1248  H     0.23899   0.62387   0.85199   0.00000  Uiso   1.00
H1249  H     0.22766   0.60919   0.93099   0.00000  Uiso   1.00
H1250  H     0.15722   0.60686   0.95852   0.00000  Uiso   1.00
H1251  H     0.09804   0.61961   0.90629   0.00000  Uiso   1.00
H1252  H     0.10938   0.63595   0.82720   0.00000  Uiso   1.00
C1253  C     0.21616   0.38051   0.81418   0.00000  Uiso   1.00
C1254  C     0.25633   0.38183   0.79923   0.00000  Uiso   1.00
C1255  C     0.28898   0.39318   0.82864   0.00000  Uiso   1.00
C1256  C     0.28199   0.40152   0.87364   0.00000  Uiso   1.00
C1257  C     0.24219   0.39985   0.88902   0.00000  Uiso   1.00
C1258  C     0.20927   0.39012   0.85935   0.00000  Uiso   1.00
H1259  H     0.26246   0.37248   0.76505   0.00000  Uiso   1.00
H1260  H     0.31983   0.39406   0.81681   0.00000  Uiso   1.00
H1261  H     0.30752   0.40876   0.89662   0.00000  Uiso   1.00
H1262  H     0.23683   0.40544   0.92404   0.00000  Uiso   1.00
H1263  H     0.17876   0.38762   0.87196   0.00000  Uiso   1.00
C1264  C     0.11717   0.61950   0.68582   0.00000  Uiso   1.00
C1265  C     0.12404   0.60989   0.64065   0.00000  Uiso   1.00
C1266  C     0.09112   0.60013   0.61101   0.00000  Uiso   1.00
C1267  C     0.05132   0.59842   0.62641   0.00000  Uiso   1.00
C1268  C     0.04436   0.60676   0.67141   0.00000  Uiso   1.00
C1269  C     0.07701   0.61815   0.70080   0.00000  Uiso   1.00
H1270  H     0.15455   0.61241   0.62803   0.00000  Uiso   1.00
H1271  H     0.09646   0.59454   0.57598   0.00000  Uiso   1.00
H1272  H     0.02579   0.59115   0.60345   0.00000  Uiso   1.00
H1273  H     0.01352   0.60584   0.68326   0.00000  Uiso   1.00
H1274  H     0.07089   0.62748   0.73499   0.00000  Uiso   1.00
C1275  C     0.42093   0.49975   0.75037   0.00000  Uiso   1.00
C1276  C     0.57907   0.50025   0.74964   0.00000  Uiso   1.00
C1277  C     0.42469   0.50768   0.51852   0.00000  Uiso   1.00
C1278  C     0.57531   0.49232   0.98148   0.00000  Uiso   1.00
C1279  C     0.35346   0.46445   0.72766   0.00000  Uiso   1.00
C1280  C     0.64654   0.53553   0.77236   0.00000  Uiso   1.00
C1281  C     0.64425   0.46656   0.72517   0.00000  Uiso   1.00
C1282  C     0.35575   0.53342   0.77486   0.00000  Uiso   1.00
C1283  C     0.62379   0.50102   0.74886   0.00000  Uiso   1.00
C1284  C     0.37621   0.49897   0.75116   0.00000  Uiso   1.00
C1285  C     0.48650   0.35656   0.71316   0.00000  Uiso   1.00
C1286  C     0.51351   0.64344   0.78683   0.00000  Uiso   1.00
C1287  C     0.51754   0.35883   0.78465   0.00000  Uiso   1.00
C1288  C     0.48246   0.64117   0.71535   0.00000  Uiso   1.00
C1289  C     0.49922   0.49976   0.66480   0.00000  Uiso   1.00
C1290  C     0.50078   0.50024   0.83520   0.00000  Uiso   1.00
C1291  C     0.53847   0.50376   0.90794   0.00000  Uiso   1.00
C1292  C     0.46153   0.49625   0.59206   0.00000  Uiso   1.00
C1293  C     0.50124   0.50042   0.88348   0.00000  Uiso   1.00
C1294  C     0.49876   0.49958   0.61652   0.00000  Uiso   1.00
C1295  C     0.46429   0.49547   0.90443   0.00000  Uiso   1.00
C1296  C     0.53571   0.50453   0.59557   0.00000  Uiso   1.00
C1297  C     0.46334   0.50165   0.95085   0.00000  Uiso   1.00
C1298  C     0.53666   0.49835   0.54915   0.00000  Uiso   1.00
C1299  C     0.50058   0.50008   0.97648   0.00000  Uiso   1.00
C1300  C     0.49942   0.49992   0.52352   0.00000  Uiso   1.00
C1301  C     0.53888   0.49918   0.95502   0.00000  Uiso   1.00
C1302  C     0.46112   0.50083   0.54498   0.00000  Uiso   1.00
C1303  C     0.42646   0.51046   0.97213   0.00000  Uiso   1.00
C1304  C     0.57354   0.48954   0.52787   0.00000  Uiso   1.00
Cu1305 Cu    0.50000   0.54689   0.75000   0.00000  Uiso   1.00
Cu1306 Cu    0.50000   0.45311   0.75000   0.00000  Uiso   1.00
N1307  N     0.50000   0.61736   0.75000   0.00000  Uiso   1.00
N1308  N     0.50000   0.38264   0.75000   0.00000  Uiso   1.00
O1309  O     0.43988   0.53958   0.75000   0.00000  Uiso   1.00
O1310  O     0.56012   0.46042   0.75001   0.00000  Uiso   1.00
O1311  O     0.56012   0.53958   0.75001   0.00000  Uiso   1.00
O1312  O     0.43988   0.46042   0.75000   0.00000  Uiso   1.00
O1313  O     0.49999   0.53960   0.68513   0.00000  Uiso   1.00
O1314  O     0.50001   0.46040   0.81487   0.00000  Uiso   1.00
O1315  O     0.50001   0.53960   0.81487   0.00000  Uiso   1.00
O1316  O     0.49999   0.46040   0.68513   0.00000  Uiso   1.00
Cl1317 Cl    0.58258   0.51531   0.87726   0.00000  Uiso   1.00
Cl1318 Cl    0.41742   0.48471   0.62275   0.00000  Uiso   1.00
Cl1319 Cl    0.42122   0.47473   0.87217   0.00000  Uiso   1.00
Cl1320 Cl    0.57879   0.52525   0.62783   0.00000  Uiso   1.00
Cl1321 Cl    0.38405   0.53474   0.94233   0.00000  Uiso   1.00
Cl1322 Cl    0.61595   0.46524   0.55766   0.00000  Uiso   1.00
Cl1323 Cl    0.37610   0.51772   0.54082   0.00000  Uiso   1.00
Cl1324 Cl    0.62389   0.48227   0.95918   0.00000  Uiso   1.00
Cl1325 Cl    0.37685   0.41712   0.70156   0.00000  Uiso   1.00
Cl1326 Cl    0.62315   0.58290   0.79842   0.00000  Uiso   1.00
Cl1327 Cl    0.61742   0.42839   0.68810   0.00000  Uiso   1.00
Cl1328 Cl    0.38257   0.57158   0.81194   0.00000  Uiso   1.00
C1329  C     0.49188   0.37289   0.66732   0.00000  Uiso   1.00
C1330  C     0.45853   0.37958   0.63729   0.00000  Uiso   1.00
C1331  C     0.46489   0.38653   0.59205   0.00000  Uiso   1.00
C1332  C     0.50457   0.38751   0.57644   0.00000  Uiso   1.00
C1333  C     0.53791   0.38061   0.60589   0.00000  Uiso   1.00
C1334  C     0.53154   0.37254   0.65089   0.00000  Uiso   1.00
H1335  H     0.42768   0.37616   0.64803   0.00000  Uiso   1.00
H1336  H     0.43900   0.39083   0.56902   0.00000  Uiso   1.00
H1337  H     0.50943   0.39311   0.54146   0.00000  Uiso   1.00
H1338  H     0.56862   0.38033   0.59367   0.00000  Uiso   1.00
H1339  H     0.55730   0.36402   0.67277   0.00000  Uiso   1.00
C1340  C     0.50812   0.62711   0.83268   0.00000  Uiso   1.00
C1341  C     0.54147   0.62044   0.86271   0.00000  Uiso   1.00
C1342  C     0.53510   0.61348   0.90795   0.00000  Uiso   1.00
C1343  C     0.49542   0.61247   0.92355   0.00000  Uiso   1.00
C1344  C     0.46208   0.61935   0.89409   0.00000  Uiso   1.00
C1345  C     0.46846   0.62743   0.84909   0.00000  Uiso   1.00
H1346  H     0.57232   0.62387   0.85199   0.00000  Uiso   1.00
H1347  H     0.56099   0.60919   0.93099   0.00000  Uiso   1.00
H1348  H     0.49055   0.60686   0.95852   0.00000  Uiso   1.00
H1349  H     0.43137   0.61961   0.90629   0.00000  Uiso   1.00
H1350  H     0.44271   0.63595   0.82720   0.00000  Uiso   1.00
C1351  C     0.54949   0.38051   0.81418   0.00000  Uiso   1.00
C1352  C     0.58966   0.38183   0.79923   0.00000  Uiso   1.00
C1353  C     0.62231   0.39318   0.82864   0.00000  Uiso   1.00
C1354  C     0.61532   0.40152   0.87364   0.00000  Uiso   1.00
C1355  C     0.57552   0.39985   0.88902   0.00000  Uiso   1.00
C1356  C     0.54260   0.39012   0.85935   0.00000  Uiso   1.00
H1357  H     0.59579   0.37248   0.76505   0.00000  Uiso   1.00
H1358  H     0.65316   0.39406   0.81681   0.00000  Uiso   1.00
H1359  H     0.64085   0.40876   0.89662   0.00000  Uiso   1.00
H1360  H     0.57016   0.40544   0.92404   0.00000  Uiso   1.00
H1361  H     0.51209   0.38762   0.87196   0.00000  Uiso   1.00
C1362  C     0.45050   0.61950   0.68582   0.00000  Uiso   1.00
C1363  C     0.45738   0.60989   0.64065   0.00000  Uiso   1.00
C1364  C     0.42445   0.60013   0.61101   0.00000  Uiso   1.00
C1365  C     0.38466   0.59842   0.62641   0.00000  Uiso   1.00
C1366  C     0.37769   0.60676   0.67141   0.00000  Uiso   1.00
C1367  C     0.41035   0.61815   0.70080   0.00000  Uiso   1.00
H1368  H     0.48788   0.61241   0.62803   0.00000  Uiso   1.00
H1369  H     0.42980   0.59454   0.57598   0.00000  Uiso   1.00
H1370  H     0.35912   0.59115   0.60345   0.00000  Uiso   1.00
H1371  H     0.34685   0.60584   0.68326   0.00000  Uiso   1.00
H1372  H     0.40423   0.62748   0.73499   0.00000  Uiso   1.00
C1373  C     0.75426   0.49975   0.75037   0.00000  Uiso   1.00
C1374  C     0.91241   0.50025   0.74964   0.00000  Uiso   1.00
C1375  C     0.75803   0.50768   0.51852   0.00000  Uiso   1.00
C1376  C     0.90864   0.49232   0.98148   0.00000  Uiso   1.00
C1377  C     0.68680   0.46445   0.72766   0.00000  Uiso   1.00
C1378  C     0.97987   0.53553   0.77236   0.00000  Uiso   1.00
C1379  C     0.97759   0.46656   0.72517   0.00000  Uiso   1.00
C1380  C     0.68908   0.53342   0.77486   0.00000  Uiso   1.00
C1381  C     0.95712   0.50102   0.74886   0.00000  Uiso   1.00
C1382  C     0.70954   0.49897   0.75116   0.00000  Uiso   1.00
C1383  C     0.81983   0.35656   0.71316   0.00000  Uiso   1.00
C1384  C     0.84684   0.64344   0.78683   0.00000  Uiso   1.00
C1385  C     0.85087   0.35883   0.78465   0.00000  Uiso   1.00
C1386  C     0.81580   0.64117   0.71535   0.00000  Uiso   1.00
C1387  C     0.83255   0.49976   0.66480   0.00000  Uiso   1.00
C1388  C     0.83411   0.50024   0.83520   0.00000  Uiso   1.00
C1389  C     0.87180   0.50376   0.90794   0.00000  Uiso   1.00
C1390  C     0.79487   0.49625   0.59206   0.00000  Uiso   1.00
C1391  C     0.83457   0.50042   0.88348   0.00000  Uiso   1.00
C1392  C     0.83210   0.49958   0.61652   0.00000  Uiso   1.00
C1393  C     0.79762   0.49547   0.90443   0.00000  Uiso   1.00
C1394  C     0.86905   0.50453   0.59557   0.00000  Uiso   1.00
C1395  C     0.79667   0.50165   0.95085   0.00000  Uiso   1.00
C1396  C     0.87000   0.49835   0.54915   0.00000  Uiso   1.00
C1397  C     0.83391   0.50008   0.97648   0.00000  Uiso   1.00
C1398  C     0.83275   0.49992   0.52352   0.00000  Uiso   1.00
C1399  C     0.87221   0.49918   0.95502   0.00000  Uiso   1.00
C1400  C     0.79445   0.50083   0.54498   0.00000  Uiso   1.00
C1401  C     0.75979   0.51046   0.97213   0.00000  Uiso   1.00
C1402  C     0.90688   0.48954   0.52787   0.00000  Uiso   1.00
Cu1403 Cu    0.83333   0.54689   0.75000   0.00000  Uiso   1.00
Cu1404 Cu    0.83333   0.45311   0.75000   0.00000  Uiso   1.00
N1405  N     0.83333   0.61736   0.75000   0.00000  Uiso   1.00
N1406  N     0.83333   0.38264   0.75000   0.00000  Uiso   1.00
O1407  O     0.77321   0.53958   0.75000   0.00000  Uiso   1.00
O1408  O     0.89345   0.46042   0.75001   0.00000  Uiso   1.00
O1409  O     0.89345   0.53958   0.75001   0.00000  Uiso   1.00
O1410  O     0.77321   0.46042   0.75000   0.00000  Uiso   1.00
O1411  O     0.83332   0.53960   0.68513   0.00000  Uiso   1.00
O1412  O     0.83334   0.46040   0.81487   0.00000  Uiso   1.00
O1413  O     0.83334   0.53960   0.81487   0.00000  Uiso   1.00
O1414  O     0.83332   0.46040   0.68513   0.00000  Uiso   1.00
Cl1415 Cl    0.91591   0.51531   0.87726   0.00000  Uiso   1.00
Cl1416 Cl    0.75075   0.48471   0.62275   0.00000  Uiso   1.00
Cl1417 Cl    0.75455   0.47473   0.87217   0.00000  Uiso   1.00
Cl1418 Cl    0.91212   0.52525   0.62783   0.00000  Uiso   1.00
Cl1419 Cl    0.71738   0.53474   0.94233   0.00000  Uiso   1.00
Cl1420 Cl    0.94928   0.46524   0.55766   0.00000  Uiso   1.00
Cl1421 Cl    0.70943   0.51772   0.54082   0.00000  Uiso   1.00
Cl1422 Cl    0.95723   0.48227   0.95918   0.00000  Uiso   1.00
Cl1423 Cl    0.71018   0.41712   0.70156   0.00000  Uiso   1.00
Cl1424 Cl    0.95649   0.58290   0.79842   0.00000  Uiso   1.00
Cl1425 Cl    0.95076   0.42839   0.68810   0.00000  Uiso   1.00
Cl1426 Cl    0.71591   0.57158   0.81194   0.00000  Uiso   1.00
C1427  C     0.82522   0.37289   0.66732   0.00000  Uiso   1.00
C1428  C     0.79186   0.37958   0.63729   0.00000  Uiso   1.00
C1429  C     0.79823   0.38653   0.59205   0.00000  Uiso   1.00
C1430  C     0.83790   0.38751   0.57644   0.00000  Uiso   1.00
C1431  C     0.87124   0.38061   0.60589   0.00000  Uiso   1.00
C1432  C     0.86488   0.37254   0.65089   0.00000  Uiso   1.00
H1433  H     0.76101   0.37616   0.64803   0.00000  Uiso   1.00
H1434  H     0.77233   0.39083   0.56902   0.00000  Uiso   1.00
H1435  H     0.84276   0.39311   0.54146   0.00000  Uiso   1.00
H1436  H     0.90195   0.38033   0.59367   0.00000  Uiso   1.00
H1437  H     0.89063   0.36402   0.67277   0.00000  Uiso   1.00
C1438  C     0.84146   0.62711   0.83268   0.00000  Uiso   1.00
C1439  C     0.87481   0.62044   0.86271   0.00000  Uiso   1.00
C1440  C     0.86843   0.61348   0.90795   0.00000  Uiso   1.00
C1441  C     0.82876   0.61247   0.92355   0.00000  Uiso   1.00
C1442  C     0.79542   0.61935   0.89409   0.00000  Uiso   1.00
C1443  C     0.80179   0.62743   0.84909   0.00000  Uiso   1.00
H1444  H     0.90565   0.62387   0.85199   0.00000  Uiso   1.00
H1445  H     0.89432   0.60919   0.93099   0.00000  Uiso   1.00
H1446  H     0.82389   0.60686   0.95852   0.00000  Uiso   1.00
H1447  H     0.76470   0.61961   0.90629   0.00000  Uiso   1.00
H1448  H     0.77604   0.63595   0.82720   0.00000  Uiso   1.00
C1449  C     0.88283   0.38051   0.81418   0.00000  Uiso   1.00
C1450  C     0.92299   0.38183   0.79923   0.00000  Uiso   1.00
C1451  C     0.95564   0.39318   0.82864   0.00000  Uiso   1.00
C1452  C     0.94866   0.40152   0.87364   0.00000  Uiso   1.00
C1453  C     0.90886   0.39985   0.88902   0.00000  Uiso   1.00
C1454  C     0.87594   0.39012   0.85935   0.00000  Uiso   1.00
H1455  H     0.92912   0.37248   0.76505   0.00000  Uiso   1.00
H1456  H     0.98649   0.39406   0.81681   0.00000  Uiso   1.00
H1457  H     0.97419   0.40876   0.89662   0.00000  Uiso   1.00
H1458  H     0.90350   0.40544   0.92404   0.00000  Uiso   1.00
H1459  H     0.84542   0.38762   0.87196   0.00000  Uiso   1.00
C1460  C     0.78384   0.61950   0.68582   0.00000  Uiso   1.00
C1461  C     0.79071   0.60989   0.64065   0.00000  Uiso   1.00
C1462  C     0.75778   0.60013   0.61101   0.00000  Uiso   1.00
C1463  C     0.71799   0.59842   0.62641   0.00000  Uiso   1.00
C1464  C     0.71102   0.60676   0.67141   0.00000  Uiso   1.00
C1465  C     0.74368   0.61815   0.70080   0.00000  Uiso   1.00
H1466  H     0.82122   0.61241   0.62803   0.00000  Uiso   1.00
H1467  H     0.76313   0.59454   0.57598   0.00000  Uiso   1.00
H1468  H     0.69245   0.59115   0.60345   0.00000  Uiso   1.00
H1469  H     0.68018   0.60584   0.68326   0.00000  Uiso   1.00
H1470  H     0.73756   0.62748   0.73499   0.00000  Uiso   1.00
C1471  C     0.08759   0.83309   0.75037   0.00000  Uiso   1.00
C1472  C     0.24574   0.83358   0.74964   0.00000  Uiso   1.00
C1473  C     0.09136   0.84101   0.51852   0.00000  Uiso   1.00
C1474  C     0.24197   0.82566   0.98148   0.00000  Uiso   1.00
C1475  C     0.02013   0.79779   0.72766   0.00000  Uiso   1.00
C1476  C     0.31320   0.86886   0.77236   0.00000  Uiso   1.00
C1477  C     0.31092   0.79990   0.72517   0.00000  Uiso   1.00
C1478  C     0.02241   0.86675   0.77486   0.00000  Uiso   1.00
C1479  C     0.29046   0.83436   0.74886   0.00000  Uiso   1.00
C1480  C     0.04288   0.83230   0.75116   0.00000  Uiso   1.00
C1481  C     0.15316   0.68989   0.71316   0.00000  Uiso   1.00
C1482  C     0.18018   0.97677   0.78683   0.00000  Uiso   1.00
C1483  C     0.18421   0.69217   0.78465   0.00000  Uiso   1.00
C1484  C     0.14913   0.97450   0.71535   0.00000  Uiso   1.00
C1485  C     0.16589   0.83309   0.66480   0.00000  Uiso   1.00
C1486  C     0.16745   0.83358   0.83520   0.00000  Uiso   1.00
C1487  C     0.20513   0.83709   0.90794   0.00000  Uiso   1.00
C1488  C     0.12820   0.82958   0.59206   0.00000  Uiso   1.00
C1489  C     0.16790   0.83375   0.88348   0.00000  Uiso   1.00
C1490  C     0.16543   0.83291   0.61652   0.00000  Uiso   1.00
C1491  C     0.13096   0.82880   0.90443   0.00000  Uiso   1.00
C1492  C     0.20238   0.83786   0.59557   0.00000  Uiso   1.00
C1493  C     0.13000   0.83498   0.95085   0.00000  Uiso   1.00
C1494  C     0.20333   0.83168   0.54915   0.00000  Uiso   1.00
C1495  C     0.16725   0.83341   0.97648   0.00000  Uiso   1.00
C1496  C     0.16609   0.83326   0.52352   0.00000  Uiso   1.00
C1497  C     0.20555   0.83251   0.95502   0.00000  Uiso   1.00
C1498  C     0.12778   0.83416   0.54498   0.00000  Uiso   1.00
C1499  C     0.09312   0.84379   0.97213   0.00000  Uiso   1.00
C1500  C     0.24021   0.82287   0.52787   0.00000  Uiso   1.00
Cu1501 Cu    0.16667   0.88022   0.75000   0.00000  Uiso   1.00
Cu1502 Cu    0.16667   0.78645   0.75000   0.00000  Uiso   1.00
N1503  N     0.16667   0.95069   0.75000   0.00000  Uiso   1.00
N1504  N     0.16667   0.71598   0.75000   0.00000  Uiso   1.00
O1505  O     0.10655   0.87291   0.75000   0.00000  Uiso   1.00
O1506  O     0.22679   0.79375   0.75001   0.00000  Uiso   1.00
O1507  O     0.22679   0.87291   0.75001   0.00000  Uiso   1.00
O1508  O     0.10655   0.79375   0.75000   0.00000  Uiso   1.00
O1509  O     0.16666   0.87293   0.68513   0.00000  Uiso   1.00
O1510  O     0.16668   0.79373   0.81487   0.00000  Uiso   1.00
O1511  O     0.16668   0.87293   0.81487   0.00000  Uiso   1.00
O1512  O     0.16666   0.79373   0.68513   0.00000  Uiso   1.00
Cl1513 Cl    0.24925   0.84865   0.87726   0.00000  Uiso   1.00
Cl1514 Cl    0.08409   0.81804   0.62275   0.00000  Uiso   1.00
Cl1515 Cl    0.08789   0.80806   0.87217   0.00000  Uiso   1.00
Cl1516 Cl    0.24545   0.85859   0.62783   0.00000  Uiso   1.00
Cl1517 Cl    0.05072   0.86807   0.94233   0.00000  Uiso   1.00
Cl1518 Cl    0.28261   0.79857   0.55766   0.00000  Uiso   1.00
Cl1519 Cl    0.04277   0.85106   0.54082   0.00000  Uiso   1.00
Cl1520 Cl    0.29056   0.81560   0.95918   0.00000  Uiso   1.00
Cl1521 Cl    0.04351   0.75045   0.70156   0.00000  Uiso   1.00
Cl1522 Cl    0.28982   0.91623   0.79842   0.00000  Uiso   1.00
Cl1523 Cl    0.28409   0.76172   0.68810   0.00000  Uiso   1.00
Cl1524 Cl    0.04924   0.90492   0.81194   0.00000  Uiso   1.00
C1525  C     0.15855   0.70622   0.66732   0.00000  Uiso   1.00
C1526  C     0.12520   0.71291   0.63729   0.00000  Uiso   1.00
C1527  C     0.13156   0.71986   0.59205   0.00000  Uiso   1.00
C1528  C     0.17123   0.72084   0.57644   0.00000  Uiso   1.00
C1529  C     0.20458   0.71394   0.60589   0.00000  Uiso   1.00
C1530  C     0.19821   0.70588   0.65089   0.00000  Uiso   1.00
H1531  H     0.09435   0.70950   0.64803   0.00000  Uiso   1.00
H1532  H     0.10566   0.72416   0.56902   0.00000  Uiso   1.00
H1533  H     0.17610   0.72644   0.54146   0.00000  Uiso   1.00
H1534  H     0.23529   0.71366   0.59367   0.00000  Uiso   1.00
H1535  H     0.22396   0.69736   0.67277   0.00000  Uiso   1.00
C1536  C     0.17479   0.96045   0.83268   0.00000  Uiso   1.00
C1537  C     0.20814   0.95377   0.86271   0.00000  Uiso   1.00
C1538  C     0.20177   0.94681   0.90795   0.00000  Uiso   1.00
C1539  C     0.16209   0.94580   0.92355   0.00000  Uiso   1.00
C1540  C     0.12875   0.95269   0.89409   0.00000  Uiso   1.00
C1541  C     0.13513   0.96077   0.84909   0.00000  Uiso   1.00
H1542  H     0.23899   0.95721   0.85199   0.00000  Uiso   1.00
H1543  H     0.22766   0.94252   0.93099   0.00000  Uiso   1.00
H1544  H     0.15722   0.94019   0.95852   0.00000  Uiso   1.00
H1545  H     0.09804   0.95294   0.90629   0.00000  Uiso   1.00
H1546  H     0.10938   0.96928   0.82720   0.00000  Uiso   1.00
C1547  C     0.21616   0.71384   0.81418   0.00000  Uiso   1.00
C1548  C     0.25633   0.71516   0.79923   0.00000  Uiso   1.00
C1549  C     0.28898   0.72651   0.82864   0.00000  Uiso   1.00
C1550  C     0.28199   0.73486   0.87364   0.00000  Uiso   1.00
C1551  C     0.24219   0.73318   0.88902   0.00000  Uiso   1.00
C1552  C     0.20927   0.72346   0.85935   0.00000  Uiso   1.00
H1553  H     0.26246   0.70581   0.76505   0.00000  Uiso   1.00
H1554  H     0.31983   0.72740   0.81681   0.00000  Uiso   1.00
H1555  H     0.30752   0.74209   0.89662   0.00000  Uiso   1.00
H1556  H     0.23683   0.73878   0.92404   0.00000  Uiso   1.00
H1557  H     0.17876   0.72095   0.87196   0.00000  Uiso   1.00
C1558  C     0.11717   0.95283   0.68582   0.00000  Uiso   1.00
C1559  C     0.12404   0.94322   0.64065   0.00000  Uiso   1.00
C1560  C     0.09112   0.93347   0.61101   0.00000  Uiso   1.00
C1561  C     0.05132   0.93175   0.62641   0.00000  Uiso   1.00
C1562  C     0.04436   0.94009   0.67141   0.00000  Uiso   1.00
C1563  C     0.07701   0.95148   0.70080   0.00000  Uiso   1.00
H1564  H     0.15455   0.94574   0.62803   0.00000  Uiso   1.00
H1565  H     0.09646   0.92787   0.57598   0.00000  Uiso   1.00
H1566  H     0.02579   0.92448   0.60345   0.00000  Uiso   1.00
H1567  H     0.01352   0.93917   0.68326   0.00000  Uiso   1.00
H1568  H     0.07089   0.96082   0.73499   0.00000  Uiso   1.00
C1569  C     0.42093   0.83309   0.75037   0.00000  Uiso   1.00
C1570  C     0.57907   0.83358   0.74964   0.00000  Uiso   1.00
C1571  C     0.42469   0.84101   0.51852   0.00000  Uiso   1.00
C1572  C     0.57531   0.82566   0.98148   0.00000  Uiso   1.00
C1573  C     0.35346   0.79779   0.72766   0.00000  Uiso   1.00
C1574  C     0.64654   0.86886   0.77236   0.00000  Uiso   1.00
C1575  C     0.64425   0.79990   0.72517   0.00000  Uiso   1.00
C1576  C     0.35575   0.86675   0.77486   0.00000  Uiso   1.00
C1577  C     0.62379   0.83436   0.74886   0.00000  Uiso   1.00
C1578  C     0.37621   0.83230   0.75116   0.00000  Uiso   1.00
C1579  C     0.48650   0.68989   0.71316   0.00000  Uiso   1.00
C1580  C     0.51351   0.97677   0.78683   0.00000  Uiso   1.00
C1581  C     0.51754   0.69217   0.78465   0.00000  Uiso   1.00
C1582  C     0.48246   0.97450   0.71535   0.00000  Uiso   1.00
C1583  C     0.49922   0.83309   0.66480   0.00000  Uiso   1.00
C1584  C     0.50078   0.83358   0.83520   0.00000  Uiso   1.00
C1585  C     0.53847   0.83709   0.90794   0.00000  Uiso   1.00
C1586  C     0.46153   0.82958   0.59206   0.00000  Uiso   1.00
C1587  C     0.50124   0.83375   0.88348   0.00000  Uiso   1.00
C1588  C     0.49876   0.83291   0.61652   0.00000  Uiso   1.00
C1589  C     0.46429   0.82880   0.90443   0.00000  Uiso   1.00
C1590  C     0.53571   0.83786   0.59557   0.00000  Uiso   1.00
C1591  C     0.46334   0.83498   0.95085   0.00000  Uiso   1.00
C1592  C     0.53666   0.83168   0.54915   0.00000  Uiso   1.00
C1593  C     0.50058   0.83341   0.97648   0.00000  Uiso   1.00
C1594  C     0.49942   0.83326   0.52352   0.00000  Uiso   1.00
C1595  C     0.53888   0.83251   0.95502   0.00000  Uiso   1.00
C1596  C     0.46112   0.83416   0.54498   0.00000  Uiso   1.00
C1597  C     0.42646   0.84379   0.97213   0.00000  Uiso   1.00
C1598  C     0.57354   0.82287   0.52787   0.00000  Uiso   1.00
Cu1599 Cu    0.50000   0.88022   0.75000   0.00000  Uiso   1.00
Cu1600 Cu    0.50000   0.78645   0.75000   0.00000  Uiso   1.00
N1601  N     0.50000   0.95069   0.75000   0.00000  Uiso   1.00
N1602  N     0.50000   0.71598   0.75000   0.00000  Uiso   1.00
O1603  O     0.43988   0.87291   0.75000   0.00000  Uiso   1.00
O1604  O     0.56012   0.79375   0.75001   0.00000  Uiso   1.00
O1605  O     0.56012   0.87291   0.75001   0.00000  Uiso   1.00
O1606  O     0.43988   0.79375   0.75000   0.00000  Uiso   1.00
O1607  O     0.49999   0.87293   0.68513   0.00000  Uiso   1.00
O1608  O     0.50001   0.79373   0.81487   0.00000  Uiso   1.00
O1609  O     0.50001   0.87293   0.81487   0.00000  Uiso   1.00
O1610  O     0.49999   0.79373   0.68513   0.00000  Uiso   1.00
Cl1611 Cl    0.58258   0.84865   0.87726   0.00000  Uiso   1.00
Cl1612 Cl    0.41742   0.81804   0.62275   0.00000  Uiso   1.00
Cl1613 Cl    0.42122   0.80806   0.87217   0.00000  Uiso   1.00
Cl1614 Cl    0.57879   0.85859   0.62783   0.00000  Uiso   1.00
Cl1615 Cl    0.38405   0.86807   0.94233   0.00000  Uiso   1.00
Cl1616 Cl    0.61595   0.79857   0.55766   0.00000  Uiso   1.00
Cl1617 Cl    0.37610   0.85106   0.54082   0.00000  Uiso   1.00
Cl1618 Cl    0.62389   0.81560   0.95918   0.00000  Uiso   1.00
Cl1619 Cl    0.37685   0.75045   0.70156   0.00000  Uiso   1.00
Cl1620 Cl    0.62315   0.91623   0.79842   0.00000  Uiso   1.00
Cl1621 Cl    0.61742   0.76172   0.68810   0.00000  Uiso   1.00
Cl1622 Cl    0.38257   0.90492   0.81194   0.00000  Uiso   1.00
C1623  C     0.49188   0.70622   0.66732   0.00000  Uiso   1.00
C1624  C     0.45853   0.71291   0.63729   0.00000  Uiso   1.00
C1625  C     0.46489   0.71986   0.59205   0.00000  Uiso   1.00
C1626  C     0.50457   0.72084   0.57644   0.00000  Uiso   1.00
C1627  C     0.53791   0.71394   0.60589   0.00000  Uiso   1.00
C1628  C     0.53154   0.70588   0.65089   0.00000  Uiso   1.00
H1629  H     0.42768   0.70950   0.64803   0.00000  Uiso   1.00
H1630  H     0.43900   0.72416   0.56902   0.00000  Uiso   1.00
H1631  H     0.50943   0.72644   0.54146   0.00000  Uiso   1.00
H1632  H     0.56862   0.71366   0.59367   0.00000  Uiso   1.00
H1633  H     0.55730   0.69736   0.67277   0.00000  Uiso   1.00
C1634  C     0.50812   0.96045   0.83268   0.00000  Uiso   1.00
C1635  C     0.54147   0.95377   0.86271   0.00000  Uiso   1.00
C1636  C     0.53510   0.94681   0.90795   0.00000  Uiso   1.00
C1637  C     0.49542   0.94580   0.92355   0.00000  Uiso   1.00
C1638  C     0.46208   0.95269   0.89409   0.00000  Uiso   1.00
C1639  C     0.46846   0.96077   0.84909   0.00000  Uiso   1.00
H1640  H     0.57232   0.95721   0.85199   0.00000  Uiso   1.00
H1641  H     0.56099   0.94252   0.93099   0.00000  Uiso   1.00
H1642  H     0.49055   0.94019   0.95852   0.00000  Uiso   1.00
H1643  H     0.43137   0.95294   0.90629   0.00000  Uiso   1.00
H1644  H     0.44271   0.96928   0.82720   0.00000  Uiso   1.00
C1645  C     0.54949   0.71384   0.81418   0.00000  Uiso   1.00
C1646  C     0.58966   0.71516   0.79923   0.00000  Uiso   1.00
C1647  C     0.62231   0.72651   0.82864   0.00000  Uiso   1.00
C1648  C     0.61532   0.73486   0.87364   0.00000  Uiso   1.00
C1649  C     0.57552   0.73318   0.88902   0.00000  Uiso   1.00
C1650  C     0.54260   0.72346   0.85935   0.00000  Uiso   1.00
H1651  H     0.59579   0.70581   0.76505   0.00000  Uiso   1.00
H1652  H     0.65316   0.72740   0.81681   0.00000  Uiso   1.00
H1653  H     0.64085   0.74209   0.89662   0.00000  Uiso   1.00
H1654  H     0.57016   0.73878   0.92404   0.00000  Uiso   1.00
H1655  H     0.51209   0.72095   0.87196   0.00000  Uiso   1.00
C1656  C     0.45050   0.95283   0.68582   0.00000  Uiso   1.00
C1657  C     0.45738   0.94322   0.64065   0.00000  Uiso   1.00
C1658  C     0.42445   0.93347   0.61101   0.00000  Uiso   1.00
C1659  C     0.38466   0.93175   0.62641   0.00000  Uiso   1.00
C1660  C     0.37769   0.94009   0.67141   0.00000  Uiso   1.00
C1661  C     0.41035   0.95148   0.70080   0.00000  Uiso   1.00
H1662  H     0.48788   0.94574   0.62803   0.00000  Uiso   1.00
H1663  H     0.42980   0.92787   0.57598   0.00000  Uiso   1.00
H1664  H     0.35912   0.92448   0.60345   0.00000  Uiso   1.00
H1665  H     0.34685   0.93917   0.68326   0.00000  Uiso   1.00
H1666  H     0.40423   0.96082   0.73499   0.00000  Uiso   1.00
C1667  C     0.75426   0.83309   0.75037   0.00000  Uiso   1.00
C1668  C     0.91241   0.83358   0.74964   0.00000  Uiso   1.00
C1669  C     0.75803   0.84101   0.51852   0.00000  Uiso   1.00
C1670  C     0.90864   0.82566   0.98148   0.00000  Uiso   1.00
C1671  C     0.68680   0.79779   0.72766   0.00000  Uiso   1.00
C1672  C     0.97987   0.86886   0.77236   0.00000  Uiso   1.00
C1673  C     0.97759   0.79990   0.72517   0.00000  Uiso   1.00
C1674  C     0.68908   0.86675   0.77486   0.00000  Uiso   1.00
C1675  C     0.95712   0.83436   0.74886   0.00000  Uiso   1.00
C1676  C     0.70954   0.83230   0.75116   0.00000  Uiso   1.00
C1677  C     0.81983   0.68989   0.71316   0.00000  Uiso   1.00
C1678  C     0.84684   0.97677   0.78683   0.00000  Uiso   1.00
C1679  C     0.85087   0.69217   0.78465   0.00000  Uiso   1.00
C1680  C     0.81580   0.97450   0.71535   0.00000  Uiso   1.00
C1681  C     0.83255   0.83309   0.66480   0.00000  Uiso   1.00
C1682  C     0.83411   0.83358   0.83520   0.00000  Uiso   1.00
C1683  C     0.87180   0.83709   0.90794   0.00000  Uiso   1.00
C1684  C     0.79487   0.82958   0.59206   0.00000  Uiso   1.00
C1685  C     0.83457   0.83375   0.88348   0.00000  Uiso   1.00
C1686  C     0.83210   0.83291   0.61652   0.00000  Uiso   1.00
C1687  C     0.79762   0.82880   0.90443   0.00000  Uiso   1.00
C1688  C     0.86905   0.83786   0.59557   0.00000  Uiso   1.00
C1689  C     0.79667   0.83498   0.95085   0.00000  Uiso   1.00
C1690  C     0.87000   0.83168   0.54915   0.00000  Uiso   1.00
C1691  C     0.83391   0.83341   0.97648   0.00000  Uiso   1.00
C1692  C     0.83275   0.83326   0.52352   0.00000  Uiso   1.00
C1693  C     0.87221   0.83251   0.95502   0.00000  Uiso   1.00
C1694  C     0.79445   0.83416   0.54498   0.00000  Uiso   1.00
C1695  C     0.75979   0.84379   0.97213   0.00000  Uiso   1.00
C1696  C     0.90688   0.82287   0.52787   0.00000  Uiso   1.00
Cu1697 Cu    0.83333   0.88022   0.75000   0.00000  Uiso   1.00
Cu1698 Cu    0.83333   0.78645   0.75000   0.00000  Uiso   1.00
N1699  N     0.83333   0.95069   0.75000   0.00000  Uiso   1.00
N1700  N     0.83333   0.71598   0.75000   0.00000  Uiso   1.00
O1701  O     0.77321   0.87291   0.75000   0.00000  Uiso   1.00
O1702  O     0.89345   0.79375   0.75001   0.00000  Uiso   1.00
O1703  O     0.89345   0.87291   0.75001   0.00000  Uiso   1.00
O1704  O     0.77321   0.79375   0.75000   0.00000  Uiso   1.00
O1705  O     0.83332   0.87293   0.68513   0.00000  Uiso   1.00
O1706  O     0.83334   0.79373   0.81487   0.00000  Uiso   1.00
O1707  O     0.83334   0.87293   0.81487   0.00000  Uiso   1.00
O1708  O     0.83332   0.79373   0.68513   0.00000  Uiso   1.00
Cl1709 Cl    0.91591   0.84865   0.87726   0.00000  Uiso   1.00
Cl1710 Cl    0.75075   0.81804   0.62275   0.00000  Uiso   1.00
Cl1711 Cl    0.75455   0.80806   0.87217   0.00000  Uiso   1.00
Cl1712 Cl    0.91212   0.85859   0.62783   0.00000  Uiso   1.00
Cl1713 Cl    0.71738   0.86807   0.94233   0.00000  Uiso   1.00
Cl1714 Cl    0.94928   0.79857   0.55766   0.00000  Uiso   1.00
Cl1715 Cl    0.70943   0.85106   0.54082   0.00000  Uiso   1.00
Cl1716 Cl    0.95723   0.81560   0.95918   0.00000  Uiso   1.00
Cl1717 Cl    0.71018   0.75045   0.70156   0.00000  Uiso   1.00
Cl1718 Cl    0.95649   0.91623   0.79842   0.00000  Uiso   1.00
Cl1719 Cl    0.95076   0.76172   0.68810   0.00000  Uiso   1.00
Cl1720 Cl    0.71591   0.90492   0.81194   0.00000  Uiso   1.00
C1721  C     0.82522   0.70622   0.66732   0.00000  Uiso   1.00
C1722  C     0.79186   0.71291   0.63729   0.00000  Uiso   1.00
C1723  C     0.79823   0.71986   0.59205   0.00000  Uiso   1.00
C1724  C     0.83790   0.72084   0.57644   0.00000  Uiso   1.00
C1725  C     0.87124   0.71394   0.60589   0.00000  Uiso   1.00
C1726  C     0.86488   0.70588   0.65089   0.00000  Uiso   1.00
H1727  H     0.76101   0.70950   0.64803   0.00000  Uiso   1.00
H1728  H     0.77233   0.72416   0.56902   0.00000  Uiso   1.00
H1729  H     0.84276   0.72644   0.54146   0.00000  Uiso   1.00
H1730  H     0.90195   0.71366   0.59367   0.00000  Uiso   1.00
H1731  H     0.89063   0.69736   0.67277   0.00000  Uiso   1.00
C1732  C     0.84146   0.96045   0.83268   0.00000  Uiso   1.00
C1733  C     0.87481   0.95377   0.86271   0.00000  Uiso   1.00
C1734  C     0.86843   0.94681   0.90795   0.00000  Uiso   1.00
C1735  C     0.82876   0.94580   0.92355   0.00000  Uiso   1.00
C1736  C     0.79542   0.95269   0.89409   0.00000  Uiso   1.00
C1737  C     0.80179   0.96077   0.84909   0.00000  Uiso   1.00
H1738  H     0.90565   0.95721   0.85199   0.00000  Uiso   1.00
H1739  H     0.89432   0.94252   0.93099   0.00000  Uiso   1.00
H1740  H     0.82389   0.94019   0.95852   0.00000  Uiso   1.00
H1741  H     0.76470   0.95294   0.90629   0.00000  Uiso   1.00
H1742  H     0.77604   0.96928   0.82720   0.00000  Uiso   1.00
C1743  C     0.88283   0.71384   0.81418   0.00000  Uiso   1.00
C1744  C     0.92299   0.71516   0.79923   0.00000  Uiso   1.00
C1745  C     0.95564   0.72651   0.82864   0.00000  Uiso   1.00
C1746  C     0.94866   0.73486   0.87364   0.00000  Uiso   1.00
C1747  C     0.90886   0.73318   0.88902   0.00000  Uiso   1.00
C1748  C     0.87594   0.72346   0.85935   0.00000  Uiso   1.00
H1749  H     0.92912   0.70581   0.76505   0.00000  Uiso   1.00
H1750  H     0.98649   0.72740   0.81681   0.00000  Uiso   1.00
H1751  H     0.97419   0.74209   0.89662   0.00000  Uiso   1.00
H1752  H     0.90350   0.73878   0.92404   0.00000  Uiso   1.00
H1753  H     0.84542   0.72095   0.87196   0.00000  Uiso   1.00
C1754  C     0.78384   0.95283   0.68582   0.00000  Uiso   1.00
C1755  C     0.79071   0.94322   0.64065   0.00000  Uiso   1.00
C1756  C     0.75778   0.93347   0.61101   0.00000  Uiso   1.00
C1757  C     0.71799   0.93175   0.62641   0.00000  Uiso   1.00
C1758  C     0.71102   0.94009   0.67141   0.00000  Uiso   1.00
C1759  C     0.74368   0.95148   0.70080   0.00000  Uiso   1.00
H1760  H     0.82122   0.94574   0.62803   0.00000  Uiso   1.00
H1761  H     0.76313   0.92787   0.57598   0.00000  Uiso   1.00
H1762  H     0.69245   0.92448   0.60345   0.00000  Uiso   1.00
H1763  H     0.68018   0.93917   0.68326   0.00000  Uiso   1.00
H1764  H     0.73756   0.96082   0.73499   0.00000  Uiso   1.00
loop_
_geom_bond_atom_site_label_1
_geom_bond_atom_site_label_2
_geom_bond_distance
_geom_bond_site_symmetry_2
_ccdc_geom_bond_type
C1     O38     1.305   .     A
C1     O35     1.315   .     A
C1     C10     1.464   .     S
C2     O36     1.315   .     A
C2     O37     1.305   .     A
C2     C9      1.464   .     S
C3     Cl49    1.770   .     S
C3     C28     1.424   .     A
C3     C911    1.399   1_554 S
C4     Cl50    1.770   .     S
C4     C27     1.424   .     A
C4     C912    1.399   .     S
C5     C10     1.413   .     A
C5     Cl51    1.764   .     S
C5     C203    1.393   1_455 S
C6     C9      1.413   .     A
C6     Cl52    1.764   .     S
C6     C106    1.393   .     S
C7     Cl53    1.768   .     S
C7     C9      1.405   .     A
C7     C103    1.393   .     S
C8     Cl54    1.768   .     S
C8     C10     1.405   .     A
C8     C202    1.393   1_455 S
C11    C55     1.480   .     S
C11    N34     1.388   .     A
C11    C602    1.429   1_545 S
C12    C66     1.480   .     S
C12    N33     1.388   .     A
C12    C307    1.429   .     S
C13    C77     1.479   .     S
C13    N34     1.369   .     A
C13    C600    1.429   1_545 S
C14    N33     1.369   .     A
C14    C88     1.479   .     S
C14    C305    1.429   .     S
C15    C20     1.448   .     S
C15    O39     1.302   .     A
C15    O42     1.308   .     A
C16    O40     1.302   .     A
C16    C19     1.448   .     S
C16    O41     1.308   .     A
C17    C27     1.421   .     A
C17    Cl43    1.775   .     S
C17    C19     1.401   .     A
C18    C20     1.401   .     A
C18    C28     1.421   .     A
C18    Cl44    1.775   .     S
C19    C21     1.391   .     A
C20    C22     1.391   .     A
C21    Cl45    1.778   .     S
C21    C23     1.403   .     A
C22    Cl46    1.778   .     S
C22    C24     1.403   .     A
C23    C25     1.418   .     A
C23    C29     1.408   .     A
C24    C26     1.418   .     A
C24    C30     1.408   .     A
C25    C27     1.430   .     A
C25    C908    1.414   .     S
C26    C28     1.430   .     A
C26    C907    1.414   1_554 S
C29    Cl47    1.778   .     S
C29    C885    1.399   .     S
C30    Cl48    1.778   .     S
C30    C886    1.399   1_554 S
Cu31   Cu32    2.733   .     S
Cu31   N33     2.054   .     S
Cu31   O37     1.979   .     S
Cu31   O41     1.962   .     S
Cu31   O39     1.954   .     S
Cu31   O35     1.978   .     S
Cu32   O36     1.978   .     S
Cu32   O38     1.979   .     S
Cu32   N34     2.054   .     S
Cu32   O40     1.954   .     S
Cu32   O42     1.962   .     S
C55    C56     1.406   .     A
C55    C60     1.405   .     A
C56    C57     1.399   .     A
C56    H61     1.076   .     S
C57    H62     1.082   .     S
C57    C58     1.396   .     A
C58    C59     1.396   .     A
C58    H63     1.082   .     S
C59    H64     1.082   .     S
C59    C60     1.398   .     A
C60    H65     1.081   .     S
C66    C67     1.406   .     A
C66    C71     1.405   .     A
C67    H72     1.075   .     S
C67    C68     1.399   .     A
C68    C69     1.396   .     A
C68    H73     1.082   .     S
C69    H74     1.082   .     S
C69    C70     1.396   .     A
C70    C71     1.398   .     A
C70    H75     1.082   .     S
C71    H76     1.081   .     S
C77    C78     1.405   .     A
C77    C82     1.406   .     A
C78    H83     1.083   .     S
C78    C79     1.396   .     A
C79    H84     1.082   .     S
C79    C80     1.395   .     A
C80    H85     1.081   .     S
C80    C81     1.398   .     A
C81    C82     1.397   .     A
C81    H86     1.081   .     S
C82    H87     1.083   .     S
C88    C93     1.405   .     A
C88    C89     1.406   .     A
C89    H94     1.083   .     S
C89    C90     1.397   .     A
C90    H95     1.081   .     S
C90    C91     1.398   .     A
C91    H96     1.081   .     S
C91    C92     1.395   .     A
C92    H97     1.082   .     S
C92    C93     1.396   .     A
C93    H98     1.083   .     S
C99    O136    1.305   .     A
C99    O133    1.315   .     A
C99    C108    1.464   .     S
C100   O134    1.315   .     A
C100   O135    1.305   .     A
C100   C107    1.464   .     S
C101   Cl147   1.770   .     S
C101   C126    1.424   .     A
C101   C1009   1.399   1_554 S
C102   Cl148   1.770   .     S
C102   C125    1.424   .     A
C102   C1010   1.399   .     S
C103   C108    1.413   .     A
C103   Cl149   1.764   .     S
C104   C107    1.413   .     A
C104   Cl150   1.764   .     S
C104   C204    1.393   .     S
C105   Cl151   1.768   .     S
C105   C107    1.405   .     A
C105   C201    1.393   .     S
C106   Cl152   1.768   .     S
C106   C108    1.405   .     A
C109   C153    1.480   .     S
C109   N132    1.388   .     A
C109   C700    1.429   1_545 S
C110   C164    1.480   .     S
C110   N131    1.388   .     A
C110   C405    1.429   .     S
C111   C175    1.479   .     S
C111   N132    1.369   .     A
C111   C698    1.429   1_545 S
C112   N131    1.369   .     A
C112   C186    1.479   .     S
C112   C403    1.429   .     S
C113   C118    1.448   .     S
C113   O137    1.302   .     A
C113   O140    1.308   .     A
C114   O138    1.302   .     A
C114   C117    1.448   .     S
C114   O139    1.308   .     A
C115   C125    1.421   .     A
C115   Cl141   1.775   .     S
C115   C117    1.401   .     A
C116   C118    1.401   .     A
C116   C126    1.421   .     A
C116   Cl142   1.775   .     S
C117   C119    1.391   .     A
C118   C120    1.391   .     A
C119   Cl143   1.778   .     S
C119   C121    1.403   .     A
C120   Cl144   1.778   .     S
C120   C122    1.403   .     A
C121   C123    1.418   .     A
C121   C127    1.408   .     A
C122   C124    1.418   .     A
C122   C128    1.408   .     A
C123   C125    1.430   .     A
C123   C1006   1.414   .     S
C124   C126    1.430   .     A
C124   C1005   1.414   1_554 S
C127   Cl145   1.778   .     S
C127   C983    1.399   .     S
C128   Cl146   1.778   .     S
C128   C984    1.399   1_554 S
Cu129  Cu130   2.733   .     S
Cu129  N131    2.054   .     S
Cu129  O135    1.979   .     S
Cu129  O139    1.962   .     S
Cu129  O137    1.954   .     S
Cu129  O133    1.978   .     S
Cu130  O134    1.978   .     S
Cu130  O136    1.979   .     S
Cu130  N132    2.054   .     S
Cu130  O138    1.954   .     S
Cu130  O140    1.962   .     S
C153   C154    1.406   .     A
C153   C158    1.405   .     A
C154   C155    1.399   .     A
C154   H159    1.076   .     S
C155   H160    1.082   .     S
C155   C156    1.396   .     A
C156   C157    1.396   .     A
C156   H161    1.082   .     S
C157   H162    1.082   .     S
C157   C158    1.398   .     A
C158   H163    1.081   .     S
C164   C165    1.406   .     A
C164   C169    1.405   .     A
C165   H170    1.075   .     S
C165   C166    1.399   .     A
C166   C167    1.396   .     A
C166   H171    1.082   .     S
C167   H172    1.082   .     S
C167   C168    1.396   .     A
C168   C169    1.398   .     A
C168   H173    1.082   .     S
C169   H174    1.081   .     S
C175   C176    1.405   .     A
C175   C180    1.406   .     A
C176   H181    1.083   .     S
C176   C177    1.396   .     A
C177   H182    1.082   .     S
C177   C178    1.395   .     A
C178   H183    1.081   .     S
C178   C179    1.398   .     A
C179   C180    1.397   .     A
C179   H184    1.081   .     S
C180   H185    1.083   .     S
C186   C191    1.405   .     A
C186   C187    1.406   .     A
C187   H192    1.083   .     S
C187   C188    1.397   .     A
C188   H193    1.081   .     S
C188   C189    1.398   .     A
C189   H194    1.081   .     S
C189   C190    1.395   .     A
C190   H195    1.082   .     S
C190   C191    1.396   .     A
C191   H196    1.083   .     S
C197   O234    1.305   .     A
C197   O231    1.315   .     A
C197   C206    1.464   .     S
C198   O232    1.315   .     A
C198   O233    1.305   .     A
C198   C205    1.464   .     S
C199   Cl245   1.770   .     S
C199   C224    1.424   .     A
C199   C1107   1.399   1_554 S
C200   Cl246   1.770   .     S
C200   C223    1.424   .     A
C200   C1108   1.399   .     S
C201   C206    1.413   .     A
C201   Cl247   1.764   .     S
C202   C205    1.413   .     A
C202   Cl248   1.764   .     S
C202   C8      1.393   1_655 S
C203   Cl249   1.768   .     S
C203   C205    1.405   .     A
C203   C5      1.393   1_655 S
C204   Cl250   1.768   .     S
C204   C206    1.405   .     A
C207   C251    1.480   .     S
C207   N230    1.388   .     A
C207   C798    1.429   1_545 S
C208   C262    1.480   .     S
C208   N229    1.388   .     A
C208   C503    1.429   .     S
C209   C273    1.479   .     S
C209   N230    1.369   .     A
C209   C796    1.429   1_545 S
C210   N229    1.369   .     A
C210   C284    1.479   .     S
C210   C501    1.429   .     S
C211   C216    1.448   .     S
C211   O235    1.302   .     A
C211   O238    1.308   .     A
C212   O236    1.302   .     A
C212   C215    1.448   .     S
C212   O237    1.308   .     A
C213   C223    1.421   .     A
C213   Cl239   1.775   .     S
C213   C215    1.401   .     A
C214   C216    1.401   .     A
C214   C224    1.421   .     A
C214   Cl240   1.775   .     S
C215   C217    1.391   .     A
C216   C218    1.391   .     A
C217   Cl241   1.778   .     S
C217   C219    1.403   .     A
C218   Cl242   1.778   .     S
C218   C220    1.403   .     A
C219   C221    1.418   .     A
C219   C225    1.408   .     A
C220   C222    1.418   .     A
C220   C226    1.408   .     A
C221   C223    1.430   .     A
C221   C1104   1.414   .     S
C222   C224    1.430   .     A
C222   C1103   1.414   1_554 S
C225   Cl243   1.778   .     S
C225   C1081   1.399   .     S
C226   Cl244   1.778   .     S
C226   C1082   1.399   1_554 S
Cu227  Cu228   2.733   .     S
Cu227  N229    2.054   .     S
Cu227  O233    1.979   .     S
Cu227  O237    1.962   .     S
Cu227  O235    1.954   .     S
Cu227  O231    1.978   .     S
Cu228  O232    1.978   .     S
Cu228  O234    1.979   .     S
Cu228  N230    2.054   .     S
Cu228  O236    1.954   .     S
Cu228  O238    1.962   .     S
C251   C252    1.406   .     A
C251   C256    1.405   .     A
C252   C253    1.399   .     A
C252   H257    1.076   .     S
C253   H258    1.082   .     S
C253   C254    1.396   .     A
C254   C255    1.396   .     A
C254   H259    1.082   .     S
C255   H260    1.082   .     S
C255   C256    1.398   .     A
C256   H261    1.081   .     S
C262   C263    1.406   .     A
C262   C267    1.405   .     A
C263   H268    1.075   .     S
C263   C264    1.399   .     A
C264   C265    1.396   .     A
C264   H269    1.082   .     S
C265   H270    1.082   .     S
C265   C266    1.396   .     A
C266   C267    1.398   .     A
C266   H271    1.082   .     S
C267   H272    1.081   .     S
C273   C274    1.405   .     A
C273   C278    1.406   .     A
C274   H279    1.083   .     S
C274   C275    1.396   .     A
C275   H280    1.082   .     S
C275   C276    1.395   .     A
C276   H281    1.081   .     S
C276   C277    1.398   .     A
C277   C278    1.397   .     A
C277   H282    1.081   .     S
C278   H283    1.083   .     S
C284   C289    1.405   .     A
C284   C285    1.406   .     A
C285   H290    1.083   .     S
C285   C286    1.397   .     A
C286   H291    1.081   .     S
C286   C287    1.398   .     A
C287   H292    1.081   .     S
C287   C288    1.395   .     A
C288   H293    1.082   .     S
C288   C289    1.396   .     A
C289   H294    1.083   .     S
C295   O332    1.305   .     A
C295   O329    1.315   .     A
C295   C304    1.464   .     S
C296   O330    1.315   .     A
C296   O331    1.305   .     A
C296   C303    1.464   .     S
C297   Cl343   1.770   .     S
C297   C322    1.424   .     A
C297   C1205   1.399   1_554 S
C298   Cl344   1.770   .     S
C298   C321    1.424   .     A
C298   C1206   1.399   .     S
C299   C304    1.413   .     A
C299   Cl345   1.764   .     S
C299   C497    1.393   1_455 S
C300   C303    1.413   .     A
C300   Cl346   1.764   .     S
C300   C400    1.393   .     S
C301   Cl347   1.768   .     S
C301   C303    1.405   .     A
C301   C397    1.393   .     S
C302   Cl348   1.768   .     S
C302   C304    1.405   .     A
C302   C496    1.393   1_455 S
C305   C349    1.480   .     S
C305   N328    1.388   .     A
C306   C360    1.480   .     S
C306   N327    1.388   .     A
C306   C601    1.429   .     S
C307   C371    1.479   .     S
C307   N328    1.369   .     A
C308   N327    1.369   .     A
C308   C382    1.479   .     S
C308   C599    1.429   .     S
C309   C314    1.448   .     S
C309   O333    1.302   .     A
C309   O336    1.308   .     A
C310   O334    1.302   .     A
C310   C313    1.448   .     S
C310   O335    1.308   .     A
C311   C321    1.421   .     A
C311   Cl337   1.775   .     S
C311   C313    1.401   .     A
C312   C314    1.401   .     A
C312   C322    1.421   .     A
C312   Cl338   1.775   .     S
C313   C315    1.391   .     A
C314   C316    1.391   .     A
C315   Cl339   1.778   .     S
C315   C317    1.403   .     A
C316   Cl340   1.778   .     S
C316   C318    1.403   .     A
C317   C319    1.418   .     A
C317   C323    1.408   .     A
C318   C320    1.418   .     A
C318   C324    1.408   .     A
C319   C321    1.430   .     A
C319   C1202   1.414   .     S
C320   C322    1.430   .     A
C320   C1201   1.414   1_554 S
C323   Cl341   1.778   .     S
C323   C1179   1.399   .     S
C324   Cl342   1.778   .     S
C324   C1180   1.399   1_554 S
Cu325  Cu326   2.733   .     S
Cu325  N327    2.054   .     S
Cu325  O331    1.979   .     S
Cu325  O335    1.962   .     S
Cu325  O333    1.954   .     S
Cu325  O329    1.978   .     S
Cu326  O330    1.978   .     S
Cu326  O332    1.979   .     S
Cu326  N328    2.054   .     S
Cu326  O334    1.954   .     S
Cu326  O336    1.962   .     S
C349   C350    1.406   .     A
C349   C354    1.405   .     A
C350   C351    1.399   .     A
C350   H355    1.076   .     S
C351   H356    1.082   .     S
C351   C352    1.396   .     A
C352   C353    1.396   .     A
C352   H357    1.082   .     S
C353   H358    1.082   .     S
C353   C354    1.398   .     A
C354   H359    1.081   .     S
C360   C361    1.406   .     A
C360   C365    1.405   .     A
C361   H366    1.075   .     S
C361   C362    1.399   .     A
C362   C363    1.396   .     A
C362   H367    1.082   .     S
C363   H368    1.082   .     S
C363   C364    1.396   .     A
C364   C365    1.398   .     A
C364   H369    1.082   .     S
C365   H370    1.081   .     S
C371   C372    1.405   .     A
C371   C376    1.406   .     A
C372   H377    1.083   .     S
C372   C373    1.396   .     A
C373   H378    1.082   .     S
C373   C374    1.395   .     A
C374   H379    1.081   .     S
C374   C375    1.398   .     A
C375   C376    1.397   .     A
C375   H380    1.081   .     S
C376   H381    1.083   .     S
C382   C387    1.405   .     A
C382   C383    1.406   .     A
C383   H388    1.083   .     S
C383   C384    1.397   .     A
C384   H389    1.081   .     S
C384   C385    1.398   .     A
C385   H390    1.081   .     S
C385   C386    1.395   .     A
C386   H391    1.082   .     S
C386   C387    1.396   .     A
C387   H392    1.083   .     S
C393   O430    1.305   .     A
C393   O427    1.315   .     A
C393   C402    1.464   .     S
C394   O428    1.315   .     A
C394   O429    1.305   .     A
C394   C401    1.464   .     S
C395   Cl441   1.770   .     S
C395   C420    1.424   .     A
C395   C1303   1.399   1_554 S
C396   Cl442   1.770   .     S
C396   C419    1.424   .     A
C396   C1304   1.399   .     S
C397   C402    1.413   .     A
C397   Cl443   1.764   .     S
C398   C401    1.413   .     A
C398   Cl444   1.764   .     S
C398   C498    1.393   .     S
C399   Cl445   1.768   .     S
C399   C401    1.405   .     A
C399   C495    1.393   .     S
C400   Cl446   1.768   .     S
C400   C402    1.405   .     A
C403   C447    1.480   .     S
C403   N426    1.388   .     A
C404   C458    1.480   .     S
C404   N425    1.388   .     A
C404   C699    1.429   .     S
C405   C469    1.479   .     S
C405   N426    1.369   .     A
C406   N425    1.369   .     A
C406   C480    1.479   .     S
C406   C697    1.429   .     S
C407   C412    1.448   .     S
C407   O431    1.302   .     A
C407   O434    1.308   .     A
C408   O432    1.302   .     A
C408   C411    1.448   .     S
C408   O433    1.308   .     A
C409   C419    1.421   .     A
C409   Cl435   1.775   .     S
C409   C411    1.401   .     A
C410   C412    1.401   .     A
C410   C420    1.421   .     A
C410   Cl436   1.775   .     S
C411   C413    1.391   .     A
C412   C414    1.391   .     A
C413   Cl437   1.778   .     S
C413   C415    1.403   .     A
C414   Cl438   1.778   .     S
C414   C416    1.403   .     A
C415   C417    1.418   .     A
C415   C421    1.408   .     A
C416   C418    1.418   .     A
C416   C422    1.408   .     A
C417   C419    1.430   .     A
C417   C1300   1.414   .     S
C418   C420    1.430   .     A
C418   C1299   1.414   1_554 S
C421   Cl439   1.778   .     S
C421   C1277   1.399   .     S
C422   Cl440   1.778   .     S
C422   C1278   1.399   1_554 S
Cu423  Cu424   2.733   .     S
Cu423  N425    2.054   .     S
Cu423  O429    1.979   .     S
Cu423  O433    1.962   .     S
Cu423  O431    1.954   .     S
Cu423  O427    1.978   .     S
Cu424  O428    1.978   .     S
Cu424  O430    1.979   .     S
Cu424  N426    2.054   .     S
Cu424  O432    1.954   .     S
Cu424  O434    1.962   .     S
C447   C448    1.406   .     A
C447   C452    1.405   .     A
C448   C449    1.399   .     A
C448   H453    1.076   .     S
C449   H454    1.082   .     S
C449   C450    1.396   .     A
C450   C451    1.396   .     A
C450   H455    1.082   .     S
C451   H456    1.082   .     S
C451   C452    1.398   .     A
C452   H457    1.081   .     S
C458   C459    1.406   .     A
C458   C463    1.405   .     A
C459   H464    1.075   .     S
C459   C460    1.399   .     A
C460   C461    1.396   .     A
C460   H465    1.082   .     S
C461   H466    1.082   .     S
C461   C462    1.396   .     A
C462   C463    1.398   .     A
C462   H467    1.082   .     S
C463   H468    1.081   .     S
C469   C470    1.405   .     A
C469   C474    1.406   .     A
C470   H475    1.083   .     S
C470   C471    1.396   .     A
C471   H476    1.082   .     S
C471   C472    1.395   .     A
C472   H477    1.081   .     S
C472   C473    1.398   .     A
C473   C474    1.397   .     A
C473   H478    1.081   .     S
C474   H479    1.083   .     S
C480   C485    1.405   .     A
C480   C481    1.406   .     A
C481   H486    1.083   .     S
C481   C482    1.397   .     A
C482   H487    1.081   .     S
C482   C483    1.398   .     A
C483   H488    1.081   .     S
C483   C484    1.395   .     A
C484   H489    1.082   .     S
C484   C485    1.396   .     A
C485   H490    1.083   .     S
C491   O528    1.305   .     A
C491   O525    1.315   .     A
C491   C500    1.464   .     S
C492   O526    1.315   .     A
C492   O527    1.305   .     A
C492   C499    1.464   .     S
C493   Cl539   1.770   .     S
C493   C518    1.424   .     A
C493   C1401   1.399   1_554 S
C494   Cl540   1.770   .     S
C494   C517    1.424   .     A
C494   C1402   1.399   .     S
C495   C500    1.413   .     A
C495   Cl541   1.764   .     S
C496   C499    1.413   .     A
C496   Cl542   1.764   .     S
C496   C302    1.393   1_655 S
C497   Cl543   1.768   .     S
C497   C499    1.405   .     A
C497   C299    1.393   1_655 S
C498   Cl544   1.768   .     S
C498   C500    1.405   .     A
C501   C545    1.480   .     S
C501   N524    1.388   .     A
C502   C556    1.480   .     S
C502   N523    1.388   .     A
C502   C797    1.429   .     S
C503   C567    1.479   .     S
C503   N524    1.369   .     A
C504   N523    1.369   .     A
C504   C578    1.479   .     S
C504   C795    1.429   .     S
C505   C510    1.448   .     S
C505   O529    1.302   .     A
C505   O532    1.308   .     A
C506   O530    1.302   .     A
C506   C509    1.448   .     S
C506   O531    1.308   .     A
C507   C517    1.421   .     A
C507   Cl533   1.775   .     S
C507   C509    1.401   .     A
C508   C510    1.401   .     A
C508   C518    1.421   .     A
C508   Cl534   1.775   .     S
C509   C511    1.391   .     A
C510   C512    1.391   .     A
C511   Cl535   1.778   .     S
C511   C513    1.403   .     A
C512   Cl536   1.778   .     S
C512   C514    1.403   .     A
C513   C515    1.418   .     A
C513   C519    1.408   .     A
C514   C516    1.418   .     A
C514   C520    1.408   .     A
C515   C517    1.430   .     A
C515   C1398   1.414   .     S
C516   C518    1.430   .     A
C516   C1397   1.414   1_554 S
C519   Cl537   1.778   .     S
C519   C1375   1.399   .     S
C520   Cl538   1.778   .     S
C520   C1376   1.399   1_554 S
Cu521  Cu522   2.733   .     S
Cu521  N523    2.054   .     S
Cu521  O527    1.979   .     S
Cu521  O531    1.962   .     S
Cu521  O529    1.954   .     S
Cu521  O525    1.978   .     S
Cu522  O526    1.978   .     S
Cu522  O528    1.979   .     S
Cu522  N524    2.054   .     S
Cu522  O530    1.954   .     S
Cu522  O532    1.962   .     S
C545   C546    1.406   .     A
C545   C550    1.405   .     A
C546   C547    1.399   .     A
C546   H551    1.076   .     S
C547   H552    1.082   .     S
C547   C548    1.396   .     A
C548   C549    1.396   .     A
C548   H553    1.082   .     S
C549   H554    1.082   .     S
C549   C550    1.398   .     A
C550   H555    1.081   .     S
C556   C557    1.406   .     A
C556   C561    1.405   .     A
C557   H562    1.075   .     S
C557   C558    1.399   .     A
C558   C559    1.396   .     A
C558   H563    1.082   .     S
C559   H564    1.082   .     S
C559   C560    1.396   .     A
C560   C561    1.398   .     A
C560   H565    1.082   .     S
C561   H566    1.081   .     S
C567   C568    1.405   .     A
C567   C572    1.406   .     A
C568   H573    1.083   .     S
C568   C569    1.396   .     A
C569   H574    1.082   .     S
C569   C570    1.395   .     A
C570   H575    1.081   .     S
C570   C571    1.398   .     A
C571   C572    1.397   .     A
C571   H576    1.081   .     S
C572   H577    1.083   .     S
C578   C583    1.405   .     A
C578   C579    1.406   .     A
C579   H584    1.083   .     S
C579   C580    1.397   .     A
C580   H585    1.081   .     S
C580   C581    1.398   .     A
C581   H586    1.081   .     S
C581   C582    1.395   .     A
C582   H587    1.082   .     S
C582   C583    1.396   .     A
C583   H588    1.083   .     S
C589   O626    1.305   .     A
C589   O623    1.315   .     A
C589   C598    1.464   .     S
C590   O624    1.315   .     A
C590   O625    1.305   .     A
C590   C597    1.464   .     S
C591   Cl637   1.770   .     S
C591   C616    1.424   .     A
C591   C1499   1.399   1_554 S
C592   Cl638   1.770   .     S
C592   C615    1.424   .     A
C592   C1500   1.399   .     S
C593   C598    1.413   .     A
C593   Cl639   1.764   .     S
C593   C791    1.393   1_455 S
C594   C597    1.413   .     A
C594   Cl640   1.764   .     S
C594   C694    1.393   .     S
C595   Cl641   1.768   .     S
C595   C597    1.405   .     A
C595   C691    1.393   .     S
C596   Cl642   1.768   .     S
C596   C598    1.405   .     A
C596   C790    1.393   1_455 S
C599   C643    1.480   .     S
C599   N622    1.388   .     A
C600   C654    1.480   .     S
C600   N621    1.388   .     A
C600   C13     1.429   1_565 S
C601   C665    1.479   .     S
C601   N622    1.369   .     A
C602   N621    1.369   .     A
C602   C676    1.479   .     S
C602   C11     1.429   1_565 S
C603   C608    1.448   .     S
C603   O627    1.302   .     A
C603   O630    1.308   .     A
C604   O628    1.302   .     A
C604   C607    1.448   .     S
C604   O629    1.308   .     A
C605   C615    1.421   .     A
C605   Cl631   1.775   .     S
C605   C607    1.401   .     A
C606   C608    1.401   .     A
C606   C616    1.421   .     A
C606   Cl632   1.775   .     S
C607   C609    1.391   .     A
C608   C610    1.391   .     A
C609   Cl633   1.778   .     S
C609   C611    1.403   .     A
C610   Cl634   1.778   .     S
C610   C612    1.403   .     A
C611   C613    1.418   .     A
C611   C617    1.408   .     A
C612   C614    1.418   .     A
C612   C618    1.408   .     A
C613   C615    1.430   .     A
C613   C1496   1.414   .     S
C614   C616    1.430   .     A
C614   C1495   1.414   1_554 S
C617   Cl635   1.778   .     S
C617   C1473   1.399   .     S
C618   Cl636   1.778   .     S
C618   C1474   1.399   1_554 S
Cu619  Cu620   2.733   .     S
Cu619  N621    2.054   .     S
Cu619  O625    1.979   .     S
Cu619  O629    1.962   .     S
Cu619  O627    1.954   .     S
Cu619  O623    1.978   .     S
Cu620  O624    1.978   .     S
Cu620  O626    1.979   .     S
Cu620  N622    2.054   .     S
Cu620  O628    1.954   .     S
Cu620  O630    1.962   .     S
C643   C644    1.406   .     A
C643   C648    1.405   .     A
C644   C645    1.399   .     A
C644   H649    1.076   .     S
C645   H650    1.082   .     S
C645   C646    1.396   .     A
C646   C647    1.396   .     A
C646   H651    1.082   .     S
C647   H652    1.082   .     S
C647   C648    1.398   .     A
C648   H653    1.081   .     S
C654   C655    1.406   .     A
C654   C659    1.405   .     A
C655   H660    1.075   .     S
C655   C656    1.399   .     A
C656   C657    1.396   .     A
C656   H661    1.082   .     S
C657   H662    1.082   .     S
C657   C658    1.396   .     A
C658   C659    1.398   .     A
C658   H663    1.082   .     S
C659   H664    1.081   .     S
C665   C666    1.405   .     A
C665   C670    1.406   .     A
C666   H671    1.083   .     S
C666   C667    1.396   .     A
C667   H672    1.082   .     S
C667   C668    1.395   .     A
C668   H673    1.081   .     S
C668   C669    1.398   .     A
C669   C670    1.397   .     A
C669   H674    1.081   .     S
C670   H675    1.083   .     S
C676   C681    1.405   .     A
C676   C677    1.406   .     A
C677   H682    1.083   .     S
C677   C678    1.397   .     A
C678   H683    1.081   .     S
C678   C679    1.398   .     A
C679   H684    1.081   .     S
C679   C680    1.395   .     A
C680   H685    1.082   .     S
C680   C681    1.396   .     A
C681   H686    1.083   .     S
C687   O724    1.305   .     A
C687   O721    1.315   .     A
C687   C696    1.464   .     S
C688   O722    1.315   .     A
C688   O723    1.305   .     A
C688   C695    1.464   .     S
C689   Cl735   1.770   .     S
C689   C714    1.424   .     A
C689   C1597   1.399   1_554 S
C690   Cl736   1.770   .     S
C690   C713    1.424   .     A
C690   C1598   1.399   .     S
C691   C696    1.413   .     A
C691   Cl737   1.764   .     S
C692   C695    1.413   .     A
C692   Cl738   1.764   .     S
C692   C792    1.393   .     S
C693   Cl739   1.768   .     S
C693   C695    1.405   .     A
C693   C789    1.393   .     S
C694   Cl740   1.768   .     S
C694   C696    1.405   .     A
C697   C741    1.480   .     S
C697   N720    1.388   .     A
C698   C752    1.480   .     S
C698   N719    1.388   .     A
C698   C111    1.429   1_565 S
C699   C763    1.479   .     S
C699   N720    1.369   .     A
C700   N719    1.369   .     A
C700   C774    1.479   .     S
C700   C109    1.429   1_565 S
C701   C706    1.448   .     S
C701   O725    1.302   .     A
C701   O728    1.308   .     A
C702   O726    1.302   .     A
C702   C705    1.448   .     S
C702   O727    1.308   .     A
C703   C713    1.421   .     A
C703   Cl729   1.775   .     S
C703   C705    1.401   .     A
C704   C706    1.401   .     A
C704   C714    1.421   .     A
C704   Cl730   1.775   .     S
C705   C707    1.391   .     A
C706   C708    1.391   .     A
C707   Cl731   1.778   .     S
C707   C709    1.403   .     A
C708   Cl732   1.778   .     S
C708   C710    1.403   .     A
C709   C711    1.418   .     A
C709   C715    1.408   .     A
C710   C712    1.418   .     A
C710   C716    1.408   .     A
C711   C713    1.430   .     A
C711   C1594   1.414   .     S
C712   C714    1.430   .     A
C712   C1593   1.414   1_554 S
C715   Cl733   1.778   .     S
C715   C1571   1.399   .     S
C716   Cl734   1.778   .     S
C716   C1572   1.399   1_554 S
Cu717  Cu718   2.733   .     S
Cu717  N719    2.054   .     S
Cu717  O723    1.979   .     S
Cu717  O727    1.962   .     S
Cu717  O725    1.954   .     S
Cu717  O721    1.978   .     S
Cu718  O722    1.978   .     S
Cu718  O724    1.979   .     S
Cu718  N720    2.054   .     S
Cu718  O726    1.954   .     S
Cu718  O728    1.962   .     S
C741   C742    1.406   .     A
C741   C746    1.405   .     A
C742   C743    1.399   .     A
C742   H747    1.076   .     S
C743   H748    1.082   .     S
C743   C744    1.396   .     A
C744   C745    1.396   .     A
C744   H749    1.082   .     S
C745   H750    1.082   .     S
C745   C746    1.398   .     A
C746   H751    1.081   .     S
C752   C753    1.406   .     A
C752   C757    1.405   .     A
C753   H758    1.075   .     S
C753   C754    1.399   .     A
C754   C755    1.396   .     A
C754   H759    1.082   .     S
C755   H760    1.082   .     S
C755   C756    1.396   .     A
C756   C757    1.398   .     A
C756   H761    1.082   .     S
C757   H762    1.081   .     S
C763   C764    1.405   .     A
C763   C768    1.406   .     A
C764   H769    1.083   .     S
C764   C765    1.396   .     A
C765   H770    1.082   .     S
C765   C766    1.395   .     A
C766   H771    1.081   .     S
C766   C767    1.398   .     A
C767   C768    1.397   .     A
C767   H772    1.081   .     S
C768   H773    1.083   .     S
C774   C779    1.405   .     A
C774   C775    1.406   .     A
C775   H780    1.083   .     S
C775   C776    1.397   .     A
C776   H781    1.081   .     S
C776   C777    1.398   .     A
C777   H782    1.081   .     S
C777   C778    1.395   .     A
C778   H783    1.082   .     S
C778   C779    1.396   .     A
C779   H784    1.083   .     S
C785   O822    1.305   .     A
C785   O819    1.315   .     A
C785   C794    1.464   .     S
C786   O820    1.315   .     A
C786   O821    1.305   .     A
C786   C793    1.464   .     S
C787   Cl833   1.770   .     S
C787   C812    1.424   .     A
C787   C1695   1.399   1_554 S
C788   Cl834   1.770   .     S
C788   C811    1.424   .     A
C788   C1696   1.399   .     S
C789   C794    1.413   .     A
C789   Cl835   1.764   .     S
C790   C793    1.413   .     A
C790   Cl836   1.764   .     S
C790   C596    1.393   1_655 S
C791   Cl837   1.768   .     S
C791   C793    1.405   .     A
C791   C593    1.393   1_655 S
C792   Cl838   1.768   .     S
C792   C794    1.405   .     A
C795   C839    1.480   .     S
C795   N818    1.388   .     A
C796   C850    1.480   .     S
C796   N817    1.388   .     A
C796   C209    1.429   1_565 S
C797   C861    1.479   .     S
C797   N818    1.369   .     A
C798   N817    1.369   .     A
C798   C872    1.479   .     S
C798   C207    1.429   1_565 S
C799   C804    1.448   .     S
C799   O823    1.302   .     A
C799   O826    1.308   .     A
C800   O824    1.302   .     A
C800   C803    1.448   .     S
C800   O825    1.308   .     A
C801   C811    1.421   .     A
C801   Cl827   1.775   .     S
C801   C803    1.401   .     A
C802   C804    1.401   .     A
C802   C812    1.421   .     A
C802   Cl828   1.775   .     S
C803   C805    1.391   .     A
C804   C806    1.391   .     A
C805   Cl829   1.778   .     S
C805   C807    1.403   .     A
C806   Cl830   1.778   .     S
C806   C808    1.403   .     A
C807   C809    1.418   .     A
C807   C813    1.408   .     A
C808   C810    1.418   .     A
C808   C814    1.408   .     A
C809   C811    1.430   .     A
C809   C1692   1.414   .     S
C810   C812    1.430   .     A
C810   C1691   1.414   1_554 S
C813   Cl831   1.778   .     S
C813   C1669   1.399   .     S
C814   Cl832   1.778   .     S
C814   C1670   1.399   1_554 S
Cu815  Cu816   2.733   .     S
Cu815  N817    2.054   .     S
Cu815  O821    1.979   .     S
Cu815  O825    1.962   .     S
Cu815  O823    1.954   .     S
Cu815  O819    1.978   .     S
Cu816  O820    1.978   .     S
Cu816  O822    1.979   .     S
Cu816  N818    2.054   .     S
Cu816  O824    1.954   .     S
Cu816  O826    1.962   .     S
C839   C840    1.406   .     A
C839   C844    1.405   .     A
C840   C841    1.399   .     A
C840   H845    1.076   .     S
C841   H846    1.082   .     S
C841   C842    1.396   .     A
C842   C843    1.396   .     A
C842   H847    1.082   .     S
C843   H848    1.082   .     S
C843   C844    1.398   .     A
C844   H849    1.081   .     S
C850   C851    1.406   .     A
C850   C855    1.405   .     A
C851   H856    1.075   .     S
C851   C852    1.399   .     A
C852   C853    1.396   .     A
C852   H857    1.082   .     S
C853   H858    1.082   .     S
C853   C854    1.396   .     A
C854   C855    1.398   .     A
C854   H859    1.082   .     S
C855   H860    1.081   .     S
C861   C862    1.405   .     A
C861   C866    1.406   .     A
C862   H867    1.083   .     S
C862   C863    1.396   .     A
C863   H868    1.082   .     S
C863   C864    1.395   .     A
C864   H869    1.081   .     S
C864   C865    1.398   .     A
C865   C866    1.397   .     A
C865   H870    1.081   .     S
C866   H871    1.083   .     S
C872   C877    1.405   .     A
C872   C873    1.406   .     A
C873   H878    1.083   .     S
C873   C874    1.397   .     A
C874   H879    1.081   .     S
C874   C875    1.398   .     A
C875   H880    1.081   .     S
C875   C876    1.395   .     A
C876   H881    1.082   .     S
C876   C877    1.396   .     A
C877   H882    1.083   .     S
C883   O920    1.305   .     A
C883   O917    1.315   .     A
C883   C892    1.464   .     S
C884   O918    1.315   .     A
C884   O919    1.305   .     A
C884   C891    1.464   .     S
C885   Cl931   1.770   .     S
C885   C910    1.424   .     A
C886   Cl932   1.770   .     S
C886   C909    1.424   .     A
C886   C30     1.399   1_556 S
C887   C892    1.413   .     A
C887   Cl933   1.764   .     S
C887   C1085   1.393   1_455 S
C888   C891    1.413   .     A
C888   Cl934   1.764   .     S
C888   C988    1.393   .     S
C889   Cl935   1.768   .     S
C889   C891    1.405   .     A
C889   C985    1.393   .     S
C890   Cl936   1.768   .     S
C890   C892    1.405   .     A
C890   C1084   1.393   1_455 S
C893   C937    1.480   .     S
C893   N916    1.388   .     A
C893   C1484   1.429   1_545 S
C894   C948    1.480   .     S
C894   N915    1.388   .     A
C894   C1189   1.429   .     S
C895   C959    1.479   .     S
C895   N916    1.369   .     A
C895   C1482   1.429   1_545 S
C896   N915    1.369   .     A
C896   C970    1.479   .     S
C896   C1187   1.429   .     S
C897   C902    1.448   .     S
C897   O921    1.302   .     A
C897   O924    1.308   .     A
C898   O922    1.302   .     A
C898   C901    1.448   .     S
C898   O923    1.308   .     A
C899   C909    1.421   .     A
C899   Cl925   1.775   .     S
C899   C901    1.401   .     A
C900   C902    1.401   .     A
C900   C910    1.421   .     A
C900   Cl926   1.775   .     S
C901   C903    1.391   .     A
C902   C904    1.391   .     A
C903   Cl927   1.778   .     S
C903   C905    1.403   .     A
C904   Cl928   1.778   .     S
C904   C906    1.403   .     A
C905   C907    1.418   .     A
C905   C911    1.408   .     A
C906   C908    1.418   .     A
C906   C912    1.408   .     A
C907   C909    1.430   .     A
C907   C26     1.414   1_556 S
C908   C910    1.430   .     A
C911   Cl929   1.778   .     S
C911   C3      1.399   1_556 S
C912   Cl930   1.778   .     S
Cu913  Cu914   2.733   .     S
Cu913  N915    2.054   .     S
Cu913  O919    1.979   .     S
Cu913  O923    1.962   .     S
Cu913  O921    1.954   .     S
Cu913  O917    1.978   .     S
Cu914  O918    1.978   .     S
Cu914  O920    1.979   .     S
Cu914  N916    2.054   .     S
Cu914  O922    1.954   .     S
Cu914  O924    1.962   .     S
C937   C938    1.406   .     A
C937   C942    1.405   .     A
C938   C939    1.399   .     A
C938   H943    1.076   .     S
C939   H944    1.082   .     S
C939   C940    1.396   .     A
C940   C941    1.396   .     A
C940   H945    1.082   .     S
C941   H946    1.082   .     S
C941   C942    1.398   .     A
C942   H947    1.081   .     S
C948   C949    1.406   .     A
C948   C953    1.405   .     A
C949   H954    1.075   .     S
C949   C950    1.399   .     A
C950   C951    1.396   .     A
C950   H955    1.082   .     S
C951   H956    1.082   .     S
C951   C952    1.396   .     A
C952   C953    1.398   .     A
C952   H957    1.082   .     S
C953   H958    1.081   .     S
C959   C960    1.405   .     A
C959   C964    1.406   .     A
C960   H965    1.083   .     S
C960   C961    1.396   .     A
C961   H966    1.082   .     S
C961   C962    1.395   .     A
C962   H967    1.081   .     S
C962   C963    1.398   .     A
C963   C964    1.397   .     A
C963   H968    1.081   .     S
C964   H969    1.083   .     S
C970   C975    1.405   .     A
C970   C971    1.406   .     A
C971   H976    1.083   .     S
C971   C972    1.397   .     A
C972   H977    1.081   .     S
C972   C973    1.398   .     A
C973   H978    1.081   .     S
C973   C974    1.395   .     A
C974   H979    1.082   .     S
C974   C975    1.396   .     A
C975   H980    1.083   .     S
C981   O1018   1.305   .     A
C981   O1015   1.315   .     A
C981   C990    1.464   .     S
C982   O1016   1.315   .     A
C982   O1017   1.305   .     A
C982   C989    1.464   .     S
C983   Cl1029  1.770   .     S
C983   C1008   1.424   .     A
C984   Cl1030  1.770   .     S
C984   C1007   1.424   .     A
C984   C128    1.399   1_556 S
C985   C990    1.413   .     A
C985   Cl1031  1.764   .     S
C986   C989    1.413   .     A
C986   Cl1032  1.764   .     S
C986   C1086   1.393   .     S
C987   Cl1033  1.768   .     S
C987   C989    1.405   .     A
C987   C1083   1.393   .     S
C988   Cl1034  1.768   .     S
C988   C990    1.405   .     A
C991   C1035   1.480   .     S
C991   N1014   1.388   .     A
C991   C1582   1.429   1_545 S
C992   C1046   1.480   .     S
C992   N1013   1.388   .     A
C992   C1287   1.429   .     S
C993   C1057   1.479   .     S
C993   N1014   1.369   .     A
C993   C1580   1.429   1_545 S
C994   N1013   1.369   .     A
C994   C1068   1.479   .     S
C994   C1285   1.429   .     S
C995   C1000   1.448   .     S
C995   O1019   1.302   .     A
C995   O1022   1.308   .     A
C996   O1020   1.302   .     A
C996   C999    1.448   .     S
C996   O1021   1.308   .     A
C997   C1007   1.421   .     A
C997   Cl1023  1.775   .     S
C997   C999    1.401   .     A
C998   C1000   1.401   .     A
C998   C1008   1.421   .     A
C998   Cl1024  1.775   .     S
C999   C1001   1.391   .     A
C1000  C1002   1.391   .     A
C1001  Cl1025  1.778   .     S
C1001  C1003   1.403   .     A
C1002  Cl1026  1.778   .     S
C1002  C1004   1.403   .     A
C1003  C1005   1.418   .     A
C1003  C1009   1.408   .     A
C1004  C1006   1.418   .     A
C1004  C1010   1.408   .     A
C1005  C1007   1.430   .     A
C1005  C124    1.414   1_556 S
C1006  C1008   1.430   .     A
C1009  Cl1027  1.778   .     S
C1009  C101    1.399   1_556 S
C1010  Cl1028  1.778   .     S
Cu1011 Cu1012  2.733   .     S
Cu1011 N1013   2.054   .     S
Cu1011 O1017   1.979   .     S
Cu1011 O1021   1.962   .     S
Cu1011 O1019   1.954   .     S
Cu1011 O1015   1.978   .     S
Cu1012 O1016   1.978   .     S
Cu1012 O1018   1.979   .     S
Cu1012 N1014   2.054   .     S
Cu1012 O1020   1.954   .     S
Cu1012 O1022   1.962   .     S
C1035  C1036   1.406   .     A
C1035  C1040   1.405   .     A
C1036  C1037   1.399   .     A
C1036  H1041   1.076   .     S
C1037  H1042   1.082   .     S
C1037  C1038   1.396   .     A
C1038  C1039   1.396   .     A
C1038  H1043   1.082   .     S
C1039  H1044   1.082   .     S
C1039  C1040   1.398   .     A
C1040  H1045   1.081   .     S
C1046  C1047   1.406   .     A
C1046  C1051   1.405   .     A
C1047  H1052   1.075   .     S
C1047  C1048   1.399   .     A
C1048  C1049   1.396   .     A
C1048  H1053   1.082   .     S
C1049  H1054   1.082   .     S
C1049  C1050   1.396   .     A
C1050  C1051   1.398   .     A
C1050  H1055   1.082   .     S
C1051  H1056   1.081   .     S
C1057  C1058   1.405   .     A
C1057  C1062   1.406   .     A
C1058  H1063   1.083   .     S
C1058  C1059   1.396   .     A
C1059  H1064   1.082   .     S
C1059  C1060   1.395   .     A
C1060  H1065   1.081   .     S
C1060  C1061   1.398   .     A
C1061  C1062   1.397   .     A
C1061  H1066   1.081   .     S
C1062  H1067   1.083   .     S
C1068  C1073   1.405   .     A
C1068  C1069   1.406   .     A
C1069  H1074   1.083   .     S
C1069  C1070   1.397   .     A
C1070  H1075   1.081   .     S
C1070  C1071   1.398   .     A
C1071  H1076   1.081   .     S
C1071  C1072   1.395   .     A
C1072  H1077   1.082   .     S
C1072  C1073   1.396   .     A
C1073  H1078   1.083   .     S
C1079  O1116   1.305   .     A
C1079  O1113   1.315   .     A
C1079  C1088   1.464   .     S
C1080  O1114   1.315   .     A
C1080  O1115   1.305   .     A
C1080  C1087   1.464   .     S
C1081  Cl1127  1.770   .     S
C1081  C1106   1.424   .     A
C1082  Cl1128  1.770   .     S
C1082  C1105   1.424   .     A
C1082  C226    1.399   1_556 S
C1083  C1088   1.413   .     A
C1083  Cl1129  1.764   .     S
C1084  C1087   1.413   .     A
C1084  Cl1130  1.764   .     S
C1084  C890    1.393   1_655 S
C1085  Cl1131  1.768   .     S
C1085  C1087   1.405   .     A
C1085  C887    1.393   1_655 S
C1086  Cl1132  1.768   .     S
C1086  C1088   1.405   .     A
C1089  C1133   1.480   .     S
C1089  N1112   1.388   .     A
C1089  C1680   1.429   1_545 S
C1090  C1144   1.480   .     S
C1090  N1111   1.388   .     A
C1090  C1385   1.429   .     S
C1091  C1155   1.479   .     S
C1091  N1112   1.369   .     A
C1091  C1678   1.429   1_545 S
C1092  N1111   1.369   .     A
C1092  C1166   1.479   .     S
C1092  C1383   1.429   .     S
C1093  C1098   1.448   .     S
C1093  O1117   1.302   .     A
C1093  O1120   1.308   .     A
C1094  O1118   1.302   .     A
C1094  C1097   1.448   .     S
C1094  O1119   1.308   .     A
C1095  C1105   1.421   .     A
C1095  Cl1121  1.775   .     S
C1095  C1097   1.401   .     A
C1096  C1098   1.401   .     A
C1096  C1106   1.421   .     A
C1096  Cl1122  1.775   .     S
C1097  C1099   1.391   .     A
C1098  C1100   1.391   .     A
C1099  Cl1123  1.778   .     S
C1099  C1101   1.403   .     A
C1100  Cl1124  1.778   .     S
C1100  C1102   1.403   .     A
C1101  C1103   1.418   .     A
C1101  C1107   1.408   .     A
C1102  C1104   1.418   .     A
C1102  C1108   1.408   .     A
C1103  C1105   1.430   .     A
C1103  C222    1.414   1_556 S
C1104  C1106   1.430   .     A
C1107  Cl1125  1.778   .     S
C1107  C199    1.399   1_556 S
C1108  Cl1126  1.778   .     S
Cu1109 Cu1110  2.733   .     S
Cu1109 N1111   2.054   .     S
Cu1109 O1115   1.979   .     S
Cu1109 O1119   1.962   .     S
Cu1109 O1117   1.954   .     S
Cu1109 O1113   1.978   .     S
Cu1110 O1114   1.978   .     S
Cu1110 O1116   1.979   .     S
Cu1110 N1112   2.054   .     S
Cu1110 O1118   1.954   .     S
Cu1110 O1120   1.962   .     S
C1133  C1134   1.406   .     A
C1133  C1138   1.405   .     A
C1134  C1135   1.399   .     A
C1134  H1139   1.076   .     S
C1135  H1140   1.082   .     S
C1135  C1136   1.396   .     A
C1136  C1137   1.396   .     A
C1136  H1141   1.082   .     S
C1137  H1142   1.082   .     S
C1137  C1138   1.398   .     A
C1138  H1143   1.081   .     S
C1144  C1145   1.406   .     A
C1144  C1149   1.405   .     A
C1145  H1150   1.075   .     S
C1145  C1146   1.399   .     A
C1146  C1147   1.396   .     A
C1146  H1151   1.082   .     S
C1147  H1152   1.082   .     S
C1147  C1148   1.396   .     A
C1148  C1149   1.398   .     A
C1148  H1153   1.082   .     S
C1149  H1154   1.081   .     S
C1155  C1156   1.405   .     A
C1155  C1160   1.406   .     A
C1156  H1161   1.083   .     S
C1156  C1157   1.396   .     A
C1157  H1162   1.082   .     S
C1157  C1158   1.395   .     A
C1158  H1163   1.081   .     S
C1158  C1159   1.398   .     A
C1159  C1160   1.397   .     A
C1159  H1164   1.081   .     S
C1160  H1165   1.083   .     S
C1166  C1171   1.405   .     A
C1166  C1167   1.406   .     A
C1167  H1172   1.083   .     S
C1167  C1168   1.397   .     A
C1168  H1173   1.081   .     S
C1168  C1169   1.398   .     A
C1169  H1174   1.081   .     S
C1169  C1170   1.395   .     A
C1170  H1175   1.082   .     S
C1170  C1171   1.396   .     A
C1171  H1176   1.083   .     S
C1177  O1214   1.305   .     A
C1177  O1211   1.315   .     A
C1177  C1186   1.464   .     S
C1178  O1212   1.315   .     A
C1178  O1213   1.305   .     A
C1178  C1185   1.464   .     S
C1179  Cl1225  1.770   .     S
C1179  C1204   1.424   .     A
C1180  Cl1226  1.770   .     S
C1180  C1203   1.424   .     A
C1180  C324    1.399   1_556 S
C1181  C1186   1.413   .     A
C1181  Cl1227  1.764   .     S
C1181  C1379   1.393   1_455 S
C1182  C1185   1.413   .     A
C1182  Cl1228  1.764   .     S
C1182  C1282   1.393   .     S
C1183  Cl1229  1.768   .     S
C1183  C1185   1.405   .     A
C1183  C1279   1.393   .     S
C1184  Cl1230  1.768   .     S
C1184  C1186   1.405   .     A
C1184  C1378   1.393   1_455 S
C1187  C1231   1.480   .     S
C1187  N1210   1.388   .     A
C1188  C1242   1.480   .     S
C1188  N1209   1.388   .     A
C1188  C1483   1.429   .     S
C1189  C1253   1.479   .     S
C1189  N1210   1.369   .     A
C1190  N1209   1.369   .     A
C1190  C1264   1.479   .     S
C1190  C1481   1.429   .     S
C1191  C1196   1.448   .     S
C1191  O1215   1.302   .     A
C1191  O1218   1.308   .     A
C1192  O1216   1.302   .     A
C1192  C1195   1.448   .     S
C1192  O1217   1.308   .     A
C1193  C1203   1.421   .     A
C1193  Cl1219  1.775   .     S
C1193  C1195   1.401   .     A
C1194  C1196   1.401   .     A
C1194  C1204   1.421   .     A
C1194  Cl1220  1.775   .     S
C1195  C1197   1.391   .     A
C1196  C1198   1.391   .     A
C1197  Cl1221  1.778   .     S
C1197  C1199   1.403   .     A
C1198  Cl1222  1.778   .     S
C1198  C1200   1.403   .     A
C1199  C1201   1.418   .     A
C1199  C1205   1.408   .     A
C1200  C1202   1.418   .     A
C1200  C1206   1.408   .     A
C1201  C1203   1.430   .     A
C1201  C320    1.414   1_556 S
C1202  C1204   1.430   .     A
C1205  Cl1223  1.778   .     S
C1205  C297    1.399   1_556 S
C1206  Cl1224  1.778   .     S
Cu1207 Cu1208  2.733   .     S
Cu1207 N1209   2.054   .     S
Cu1207 O1213   1.979   .     S
Cu1207 O1217   1.962   .     S
Cu1207 O1215   1.954   .     S
Cu1207 O1211   1.978   .     S
Cu1208 O1212   1.978   .     S
Cu1208 O1214   1.979   .     S
Cu1208 N1210   2.054   .     S
Cu1208 O1216   1.954   .     S
Cu1208 O1218   1.962   .     S
C1231  C1232   1.406   .     A
C1231  C1236   1.405   .     A
C1232  C1233   1.399   .     A
C1232  H1237   1.076   .     S
C1233  H1238   1.082   .     S
C1233  C1234   1.396   .     A
C1234  C1235   1.396   .     A
C1234  H1239   1.082   .     S
C1235  H1240   1.082   .     S
C1235  C1236   1.398   .     A
C1236  H1241   1.081   .     S
C1242  C1243   1.406   .     A
C1242  C1247   1.405   .     A
C1243  H1248   1.075   .     S
C1243  C1244   1.399   .     A
C1244  C1245   1.396   .     A
C1244  H1249   1.082   .     S
C1245  H1250   1.082   .     S
C1245  C1246   1.396   .     A
C1246  C1247   1.398   .     A
C1246  H1251   1.082   .     S
C1247  H1252   1.081   .     S
C1253  C1254   1.405   .     A
C1253  C1258   1.406   .     A
C1254  H1259   1.083   .     S
C1254  C1255   1.396   .     A
C1255  H1260   1.082   .     S
C1255  C1256   1.395   .     A
C1256  H1261   1.081   .     S
C1256  C1257   1.398   .     A
C1257  C1258   1.397   .     A
C1257  H1262   1.081   .     S
C1258  H1263   1.083   .     S
C1264  C1269   1.405   .     A
C1264  C1265   1.406   .     A
C1265  H1270   1.083   .     S
C1265  C1266   1.397   .     A
C1266  H1271   1.081   .     S
C1266  C1267   1.398   .     A
C1267  H1272   1.081   .     S
C1267  C1268   1.395   .     A
C1268  H1273   1.082   .     S
C1268  C1269   1.396   .     A
C1269  H1274   1.083   .     S
C1275  O1312   1.305   .     A
C1275  O1309   1.315   .     A
C1275  C1284   1.464   .     S
C1276  O1310   1.315   .     A
C1276  O1311   1.305   .     A
C1276  C1283   1.464   .     S
C1277  Cl1323  1.770   .     S
C1277  C1302   1.424   .     A
C1278  Cl1324  1.770   .     S
C1278  C1301   1.424   .     A
C1278  C422    1.399   1_556 S
C1279  C1284   1.413   .     A
C1279  Cl1325  1.764   .     S
C1280  C1283   1.413   .     A
C1280  Cl1326  1.764   .     S
C1280  C1380   1.393   .     S
C1281  Cl1327  1.768   .     S
C1281  C1283   1.405   .     A
C1281  C1377   1.393   .     S
C1282  Cl1328  1.768   .     S
C1282  C1284   1.405   .     A
C1285  C1329   1.480   .     S
C1285  N1308   1.388   .     A
C1286  C1340   1.480   .     S
C1286  N1307   1.388   .     A
C1286  C1581   1.429   .     S
C1287  C1351   1.479   .     S
C1287  N1308   1.369   .     A
C1288  N1307   1.369   .     A
C1288  C1362   1.479   .     S
C1288  C1579   1.429   .     S
C1289  C1294   1.448   .     S
C1289  O1313   1.302   .     A
C1289  O1316   1.308   .     A
C1290  O1314   1.302   .     A
C1290  C1293   1.448   .     S
C1290  O1315   1.308   .     A
C1291  C1301   1.421   .     A
C1291  Cl1317  1.775   .     S
C1291  C1293   1.401   .     A
C1292  C1294   1.401   .     A
C1292  C1302   1.421   .     A
C1292  Cl1318  1.775   .     S
C1293  C1295   1.391   .     A
C1294  C1296   1.391   .     A
C1295  Cl1319  1.778   .     S
C1295  C1297   1.403   .     A
C1296  Cl1320  1.778   .     S
C1296  C1298   1.403   .     A
C1297  C1299   1.418   .     A
C1297  C1303   1.408   .     A
C1298  C1300   1.418   .     A
C1298  C1304   1.408   .     A
C1299  C1301   1.430   .     A
C1299  C418    1.414   1_556 S
C1300  C1302   1.430   .     A
C1303  Cl1321  1.778   .     S
C1303  C395    1.399   1_556 S
C1304  Cl1322  1.778   .     S
Cu1305 Cu1306  2.733   .     S
Cu1305 N1307   2.054   .     S
Cu1305 O1311   1.979   .     S
Cu1305 O1315   1.962   .     S
Cu1305 O1313   1.954   .     S
Cu1305 O1309   1.978   .     S
Cu1306 O1310   1.978   .     S
Cu1306 O1312   1.979   .     S
Cu1306 N1308   2.054   .     S
Cu1306 O1314   1.954   .     S
Cu1306 O1316   1.962   .     S
C1329  C1330   1.406   .     A
C1329  C1334   1.405   .     A
C1330  C1331   1.399   .     A
C1330  H1335   1.076   .     S
C1331  H1336   1.082   .     S
C1331  C1332   1.396   .     A
C1332  C1333   1.396   .     A
C1332  H1337   1.082   .     S
C1333  H1338   1.082   .     S
C1333  C1334   1.398   .     A
C1334  H1339   1.081   .     S
C1340  C1341   1.406   .     A
C1340  C1345   1.405   .     A
C1341  H1346   1.075   .     S
C1341  C1342   1.399   .     A
C1342  C1343   1.396   .     A
C1342  H1347   1.082   .     S
C1343  H1348   1.082   .     S
C1343  C1344   1.396   .     A
C1344  C1345   1.398   .     A
C1344  H1349   1.082   .     S
C1345  H1350   1.081   .     S
C1351  C1352   1.405   .     A
C1351  C1356   1.406   .     A
C1352  H1357   1.083   .     S
C1352  C1353   1.396   .     A
C1353  H1358   1.082   .     S
C1353  C1354   1.395   .     A
C1354  H1359   1.081   .     S
C1354  C1355   1.398   .     A
C1355  C1356   1.397   .     A
C1355  H1360   1.081   .     S
C1356  H1361   1.083   .     S
C1362  C1367   1.405   .     A
C1362  C1363   1.406   .     A
C1363  H1368   1.083   .     S
C1363  C1364   1.397   .     A
C1364  H1369   1.081   .     S
C1364  C1365   1.398   .     A
C1365  H1370   1.081   .     S
C1365  C1366   1.395   .     A
C1366  H1371   1.082   .     S
C1366  C1367   1.396   .     A
C1367  H1372   1.083   .     S
C1373  O1410   1.305   .     A
C1373  O1407   1.315   .     A
C1373  C1382   1.464   .     S
C1374  O1408   1.315   .     A
C1374  O1409   1.305   .     A
C1374  C1381   1.464   .     S
C1375  Cl1421  1.770   .     S
C1375  C1400   1.424   .     A
C1376  Cl1422  1.770   .     S
C1376  C1399   1.424   .     A
C1376  C520    1.399   1_556 S
C1377  C1382   1.413   .     A
C1377  Cl1423  1.764   .     S
C1378  C1381   1.413   .     A
C1378  Cl1424  1.764   .     S
C1378  C1184   1.393   1_655 S
C1379  Cl1425  1.768   .     S
C1379  C1381   1.405   .     A
C1379  C1181   1.393   1_655 S
C1380  Cl1426  1.768   .     S
C1380  C1382   1.405   .     A
C1383  C1427   1.480   .     S
C1383  N1406   1.388   .     A
C1384  C1438   1.480   .     S
C1384  N1405   1.388   .     A
C1384  C1679   1.429   .     S
C1385  C1449   1.479   .     S
C1385  N1406   1.369   .     A
C1386  N1405   1.369   .     A
C1386  C1460   1.479   .     S
C1386  C1677   1.429   .     S
C1387  C1392   1.448   .     S
C1387  O1411   1.302   .     A
C1387  O1414   1.308   .     A
C1388  O1412   1.302   .     A
C1388  C1391   1.448   .     S
C1388  O1413   1.308   .     A
C1389  C1399   1.421   .     A
C1389  Cl1415  1.775   .     S
C1389  C1391   1.401   .     A
C1390  C1392   1.401   .     A
C1390  C1400   1.421   .     A
C1390  Cl1416  1.775   .     S
C1391  C1393   1.391   .     A
C1392  C1394   1.391   .     A
C1393  Cl1417  1.778   .     S
C1393  C1395   1.403   .     A
C1394  Cl1418  1.778   .     S
C1394  C1396   1.403   .     A
C1395  C1397   1.418   .     A
C1395  C1401   1.408   .     A
C1396  C1398   1.418   .     A
C1396  C1402   1.408   .     A
C1397  C1399   1.430   .     A
C1397  C516    1.414   1_556 S
C1398  C1400   1.430   .     A
C1401  Cl1419  1.778   .     S
C1401  C493    1.399   1_556 S
C1402  Cl1420  1.778   .     S
Cu1403 Cu1404  2.733   .     S
Cu1403 N1405   2.054   .     S
Cu1403 O1409   1.979   .     S
Cu1403 O1413   1.962   .     S
Cu1403 O1411   1.954   .     S
Cu1403 O1407   1.978   .     S
Cu1404 O1408   1.978   .     S
Cu1404 O1410   1.979   .     S
Cu1404 N1406   2.054   .     S
Cu1404 O1412   1.954   .     S
Cu1404 O1414   1.962   .     S
C1427  C1428   1.406   .     A
C1427  C1432   1.405   .     A
C1428  C1429   1.399   .     A
C1428  H1433   1.076   .     S
C1429  H1434   1.082   .     S
C1429  C1430   1.396   .     A
C1430  C1431   1.396   .     A
C1430  H1435   1.082   .     S
C1431  H1436   1.082   .     S
C1431  C1432   1.398   .     A
C1432  H1437   1.081   .     S
C1438  C1439   1.406   .     A
C1438  C1443   1.405   .     A
C1439  H1444   1.075   .     S
C1439  C1440   1.399   .     A
C1440  C1441   1.396   .     A
C1440  H1445   1.082   .     S
C1441  H1446   1.082   .     S
C1441  C1442   1.396   .     A
C1442  C1443   1.398   .     A
C1442  H1447   1.082   .     S
C1443  H1448   1.081   .     S
C1449  C1450   1.405   .     A
C1449  C1454   1.406   .     A
C1450  H1455   1.083   .     S
C1450  C1451   1.396   .     A
C1451  H1456   1.082   .     S
C1451  C1452   1.395   .     A
C1452  H1457   1.081   .     S
C1452  C1453   1.398   .     A
C1453  C1454   1.397   .     A
C1453  H1458   1.081   .     S
C1454  H1459   1.083   .     S
C1460  C1465   1.405   .     A
C1460  C1461   1.406   .     A
C1461  H1466   1.083   .     S
C1461  C1462   1.397   .     A
C1462  H1467   1.081   .     S
C1462  C1463   1.398   .     A
C1463  H1468   1.081   .     S
C1463  C1464   1.395   .     A
C1464  H1469   1.082   .     S
C1464  C1465   1.396   .     A
C1465  H1470   1.083   .     S
C1471  O1508   1.305   .     A
C1471  O1505   1.315   .     A
C1471  C1480   1.464   .     S
C1472  O1506   1.315   .     A
C1472  O1507   1.305   .     A
C1472  C1479   1.464   .     S
C1473  Cl1519  1.770   .     S
C1473  C1498   1.424   .     A
C1474  Cl1520  1.770   .     S
C1474  C1497   1.424   .     A
C1474  C618    1.399   1_556 S
C1475  C1480   1.413   .     A
C1475  Cl1521  1.764   .     S
C1475  C1673   1.393   1_455 S
C1476  C1479   1.413   .     A
C1476  Cl1522  1.764   .     S
C1476  C1576   1.393   .     S
C1477  Cl1523  1.768   .     S
C1477  C1479   1.405   .     A
C1477  C1573   1.393   .     S
C1478  Cl1524  1.768   .     S
C1478  C1480   1.405   .     A
C1478  C1672   1.393   1_455 S
C1481  C1525   1.480   .     S
C1481  N1504   1.388   .     A
C1482  C1536   1.480   .     S
C1482  N1503   1.388   .     A
C1482  C895    1.429   1_565 S
C1483  C1547   1.479   .     S
C1483  N1504   1.369   .     A
C1484  N1503   1.369   .     A
C1484  C1558   1.479   .     S
C1484  C893    1.429   1_565 S
C1485  C1490   1.448   .     S
C1485  O1509   1.302   .     A
C1485  O1512   1.308   .     A
C1486  O1510   1.302   .     A
C1486  C1489   1.448   .     S
C1486  O1511   1.308   .     A
C1487  C1497   1.421   .     A
C1487  Cl1513  1.775   .     S
C1487  C1489   1.401   .     A
C1488  C1490   1.401   .     A
C1488  C1498   1.421   .     A
C1488  Cl1514  1.775   .     S
C1489  C1491   1.391   .     A
C1490  C1492   1.391   .     A
C1491  Cl1515  1.778   .     S
C1491  C1493   1.403   .     A
C1492  Cl1516  1.778   .     S
C1492  C1494   1.403   .     A
C1493  C1495   1.418   .     A
C1493  C1499   1.408   .     A
C1494  C1496   1.418   .     A
C1494  C1500   1.408   .     A
C1495  C1497   1.430   .     A
C1495  C614    1.414   1_556 S
C1496  C1498   1.430   .     A
C1499  Cl1517  1.778   .     S
C1499  C591    1.399   1_556 S
C1500  Cl1518  1.778   .     S
Cu1501 Cu1502  2.733   .     S
Cu1501 N1503   2.054   .     S
Cu1501 O1507   1.979   .     S
Cu1501 O1511   1.962   .     S
Cu1501 O1509   1.954   .     S
Cu1501 O1505   1.978   .     S
Cu1502 O1506   1.978   .     S
Cu1502 O1508   1.979   .     S
Cu1502 N1504   2.054   .     S
Cu1502 O1510   1.954   .     S
Cu1502 O1512   1.962   .     S
C1525  C1526   1.406   .     A
C1525  C1530   1.405   .     A
C1526  C1527   1.399   .     A
C1526  H1531   1.076   .     S
C1527  H1532   1.082   .     S
C1527  C1528   1.396   .     A
C1528  C1529   1.396   .     A
C1528  H1533   1.082   .     S
C1529  H1534   1.082   .     S
C1529  C1530   1.398   .     A
C1530  H1535   1.081   .     S
C1536  C1537   1.406   .     A
C1536  C1541   1.405   .     A
C1537  H1542   1.075   .     S
C1537  C1538   1.399   .     A
C1538  C1539   1.396   .     A
C1538  H1543   1.082   .     S
C1539  H1544   1.082   .     S
C1539  C1540   1.396   .     A
C1540  C1541   1.398   .     A
C1540  H1545   1.082   .     S
C1541  H1546   1.081   .     S
C1547  C1548   1.405   .     A
C1547  C1552   1.406   .     A
C1548  H1553   1.083   .     S
C1548  C1549   1.396   .     A
C1549  H1554   1.082   .     S
C1549  C1550   1.395   .     A
C1550  H1555   1.081   .     S
C1550  C1551   1.398   .     A
C1551  C1552   1.397   .     A
C1551  H1556   1.081   .     S
C1552  H1557   1.083   .     S
C1558  C1563   1.405   .     A
C1558  C1559   1.406   .     A
C1559  H1564   1.083   .     S
C1559  C1560   1.397   .     A
C1560  H1565   1.081   .     S
C1560  C1561   1.398   .     A
C1561  H1566   1.081   .     S
C1561  C1562   1.395   .     A
C1562  H1567   1.082   .     S
C1562  C1563   1.396   .     A
C1563  H1568   1.083   .     S
C1569  O1606   1.305   .     A
C1569  O1603   1.315   .     A
C1569  C1578   1.464   .     S
C1570  O1604   1.315   .     A
C1570  O1605   1.305   .     A
C1570  C1577   1.464   .     S
C1571  Cl1617  1.770   .     S
C1571  C1596   1.424   .     A
C1572  Cl1618  1.770   .     S
C1572  C1595   1.424   .     A
C1572  C716    1.399   1_556 S
C1573  C1578   1.413   .     A
C1573  Cl1619  1.764   .     S
C1574  C1577   1.413   .     A
C1574  Cl1620  1.764   .     S
C1574  C1674   1.393   .     S
C1575  Cl1621  1.768   .     S
C1575  C1577   1.405   .     A
C1575  C1671   1.393   .     S
C1576  Cl1622  1.768   .     S
C1576  C1578   1.405   .     A
C1579  C1623   1.480   .     S
C1579  N1602   1.388   .     A
C1580  C1634   1.480   .     S
C1580  N1601   1.388   .     A
C1580  C993    1.429   1_565 S
C1581  C1645   1.479   .     S
C1581  N1602   1.369   .     A
C1582  N1601   1.369   .     A
C1582  C1656   1.479   .     S
C1582  C991    1.429   1_565 S
C1583  C1588   1.448   .     S
C1583  O1607   1.302   .     A
C1583  O1610   1.308   .     A
C1584  O1608   1.302   .     A
C1584  C1587   1.448   .     S
C1584  O1609   1.308   .     A
C1585  C1595   1.421   .     A
C1585  Cl1611  1.775   .     S
C1585  C1587   1.401   .     A
C1586  C1588   1.401   .     A
C1586  C1596   1.421   .     A
C1586  Cl1612  1.775   .     S
C1587  C1589   1.391   .     A
C1588  C1590   1.391   .     A
C1589  Cl1613  1.778   .     S
C1589  C1591   1.403   .     A
C1590  Cl1614  1.778   .     S
C1590  C1592   1.403   .     A
C1591  C1593   1.418   .     A
C1591  C1597   1.408   .     A
C1592  C1594   1.418   .     A
C1592  C1598   1.408   .     A
C1593  C1595   1.430   .     A
C1593  C712    1.414   1_556 S
C1594  C1596   1.430   .     A
C1597  Cl1615  1.778   .     S
C1597  C689    1.399   1_556 S
C1598  Cl1616  1.778   .     S
Cu1599 Cu1600  2.733   .     S
Cu1599 N1601   2.054   .     S
Cu1599 O1605   1.979   .     S
Cu1599 O1609   1.962   .     S
Cu1599 O1607   1.954   .     S
Cu1599 O1603   1.978   .     S
Cu1600 O1604   1.978   .     S
Cu1600 O1606   1.979   .     S
Cu1600 N1602   2.054   .     S
Cu1600 O1608   1.954   .     S
Cu1600 O1610   1.962   .     S
C1623  C1624   1.406   .     A
C1623  C1628   1.405   .     A
C1624  C1625   1.399   .     A
C1624  H1629   1.076   .     S
C1625  H1630   1.082   .     S
C1625  C1626   1.396   .     A
C1626  C1627   1.396   .     A
C1626  H1631   1.082   .     S
C1627  H1632   1.082   .     S
C1627  C1628   1.398   .     A
C1628  H1633   1.081   .     S
C1634  C1635   1.406   .     A
C1634  C1639   1.405   .     A
C1635  H1640   1.075   .     S
C1635  C1636   1.399   .     A
C1636  C1637   1.396   .     A
C1636  H1641   1.082   .     S
C1637  H1642   1.082   .     S
C1637  C1638   1.396   .     A
C1638  C1639   1.398   .     A
C1638  H1643   1.082   .     S
C1639  H1644   1.081   .     S
C1645  C1646   1.405   .     A
C1645  C1650   1.406   .     A
C1646  H1651   1.083   .     S
C1646  C1647   1.396   .     A
C1647  H1652   1.082   .     S
C1647  C1648   1.395   .     A
C1648  H1653   1.081   .     S
C1648  C1649   1.398   .     A
C1649  C1650   1.397   .     A
C1649  H1654   1.081   .     S
C1650  H1655   1.083   .     S
C1656  C1661   1.405   .     A
C1656  C1657   1.406   .     A
C1657  H1662   1.083   .     S
C1657  C1658   1.397   .     A
C1658  H1663   1.081   .     S
C1658  C1659   1.398   .     A
C1659  H1664   1.081   .     S
C1659  C1660   1.395   .     A
C1660  H1665   1.082   .     S
C1660  C1661   1.396   .     A
C1661  H1666   1.083   .     S
C1667  O1704   1.305   .     A
C1667  O1701   1.315   .     A
C1667  C1676   1.464   .     S
C1668  O1702   1.315   .     A
C1668  O1703   1.305   .     A
C1668  C1675   1.464   .     S
C1669  Cl1715  1.770   .     S
C1669  C1694   1.424   .     A
C1670  Cl1716  1.770   .     S
C1670  C1693   1.424   .     A
C1670  C814    1.399   1_556 S
C1671  C1676   1.413   .     A
C1671  Cl1717  1.764   .     S
C1672  C1675   1.413   .     A
C1672  Cl1718  1.764   .     S
C1672  C1478   1.393   1_655 S
C1673  Cl1719  1.768   .     S
C1673  C1675   1.405   .     A
C1673  C1475   1.393   1_655 S
C1674  Cl1720  1.768   .     S
C1674  C1676   1.405   .     A
C1677  C1721   1.480   .     S
C1677  N1700   1.388   .     A
C1678  C1732   1.480   .     S
C1678  N1699   1.388   .     A
C1678  C1091   1.429   1_565 S
C1679  C1743   1.479   .     S
C1679  N1700   1.369   .     A
C1680  N1699   1.369   .     A
C1680  C1754   1.479   .     S
C1680  C1089   1.429   1_565 S
C1681  C1686   1.448   .     S
C1681  O1705   1.302   .     A
C1681  O1708   1.308   .     A
C1682  O1706   1.302   .     A
C1682  C1685   1.448   .     S
C1682  O1707   1.308   .     A
C1683  C1693   1.421   .     A
C1683  Cl1709  1.775   .     S
C1683  C1685   1.401   .     A
C1684  C1686   1.401   .     A
C1684  C1694   1.421   .     A
C1684  Cl1710  1.775   .     S
C1685  C1687   1.391   .     A
C1686  C1688   1.391   .     A
C1687  Cl1711  1.778   .     S
C1687  C1689   1.403   .     A
C1688  Cl1712  1.778   .     S
C1688  C1690   1.403   .     A
C1689  C1691   1.418   .     A
C1689  C1695   1.408   .     A
C1690  C1692   1.418   .     A
C1690  C1696   1.408   .     A
C1691  C1693   1.430   .     A
C1691  C810    1.414   1_556 S
C1692  C1694   1.430   .     A
C1695  Cl1713  1.778   .     S
C1695  C787    1.399   1_556 S
C1696  Cl1714  1.778   .     S
Cu1697 Cu1698  2.733   .     S
Cu1697 N1699   2.054   .     S
Cu1697 O1703   1.979   .     S
Cu1697 O1707   1.962   .     S
Cu1697 O1705   1.954   .     S
Cu1697 O1701   1.978   .     S
Cu1698 O1702   1.978   .     S
Cu1698 O1704   1.979   .     S
Cu1698 N1700   2.054   .     S
Cu1698 O1706   1.954   .     S
Cu1698 O1708   1.962   .     S
C1721  C1722   1.406   .     A
C1721  C1726   1.405   .     A
C1722  C1723   1.399   .     A
C1722  H1727   1.076   .     S
C1723  H1728   1.082   .     S
C1723  C1724   1.396   .     A
C1724  C1725   1.396   .     A
C1724  H1729   1.082   .     S
C1725  H1730   1.082   .     S
C1725  C1726   1.398   .     A
C1726  H1731   1.081   .     S
C1732  C1733   1.406   .     A
C1732  C1737   1.405   .     A
C1733  H1738   1.075   .     S
C1733  C1734   1.399   .     A
C1734  C1735   1.396   .     A
C1734  H1739   1.082   .     S
C1735  H1740   1.082   .     S
C1735  C1736   1.396   .     A
C1736  C1737   1.398   .     A
C1736  H1741   1.082   .     S
C1737  H1742   1.081   .     S
C1743  C1744   1.405   .     A
C1743  C1748   1.406   .     A
C1744  H1749   1.083   .     S
C1744  C1745   1.396   .     A
C1745  H1750   1.082   .     S
C1745  C1746   1.395   .     A
C1746  H1751   1.081   .     S
C1746  C1747   1.398   .     A
C1747  C1748   1.397   .     A
C1747  H1752   1.081   .     S
C1748  H1753   1.083   .     S
C1754  C1759   1.405   .     A
C1754  C1755   1.406   .     A
C1755  H1760   1.083   .     S
C1755  C1756   1.397   .     A
C1756  H1761   1.081   .     S
C1756  C1757   1.398   .     A
C1757  H1762   1.081   .     S
C1757  C1758   1.395   .     A
C1758  H1763   1.082   .     S
C1758  C1759   1.396   .     A
C1759  H1764   1.083   .     S
