data_str_m2_o2_o5_pcu_sym.42
_audit_creation_date              2020-01-03
_audit_creation_method            'Materials Studio'
_symmetry_space_group_name_H-M    'P1'
_symmetry_Int_Tables_number       1
_symmetry_cell_setting            triclinic
loop_
_symmetry_equiv_pos_as_xyz
  x,y,z
_cell_length_a                    30.2825
_cell_length_b                    27.6836
_cell_length_c                    27.2211
_cell_angle_alpha                 90.0040
_cell_angle_beta                  89.9981
_cell_angle_gamma                 90.0099
loop_
_atom_site_label
_atom_site_type_symbol
_atom_site_fract_x
_atom_site_fract_y
_atom_site_fract_z
_atom_site_U_iso_or_equiv
_atom_site_adp_type
_atom_site_occupancy
C1     C     0.16492   0.25000   0.16669   0.00000  Uiso   1.00
C2     C     0.28374   0.44641   0.14308   0.00000  Uiso   1.00
C3     C     0.25000   0.25000   0.07350   0.00000  Uiso   1.00
C4     C     0.25000   0.25000   0.25984   0.00000  Uiso   1.00
C5     C     0.24986   0.02724   0.16700   0.00000  Uiso   1.00
C6     C     0.25001   0.47270   0.16709   0.00000  Uiso   1.00
C7     C     0.25000   0.25000   0.02184   0.00000  Uiso   1.00
C8     C     0.25000   0.25000   0.31150   0.00000  Uiso   1.00
C9     C     0.04762   0.29127   0.18178   0.00000  Uiso   1.00
C10    C     0.45239   0.20873   0.18168   0.00000  Uiso   1.00
C11    C     0.45241   0.29131   0.15183   0.00000  Uiso   1.00
C12    C     0.33508   0.25000   0.16667   0.00000  Uiso   1.00
C13    C     0.04759   0.20875   0.15174   0.00000  Uiso   1.00
C14    C     0.09353   0.29137   0.18143   0.00000  Uiso   1.00
C15    C     0.40648   0.20861   0.18132   0.00000  Uiso   1.00
C16    C     0.40651   0.29142   0.15213   0.00000  Uiso   1.00
C17    C     0.09349   0.20863   0.15205   0.00000  Uiso   1.00
C18    C     0.11670   0.25000   0.16672   0.00000  Uiso   1.00
C19    C     0.38330   0.25001   0.16670   0.00000  Uiso   1.00
C20    C     0.02428   0.25001   0.16677   0.00000  Uiso   1.00
C21    C     0.47572   0.25002   0.16677   0.00000  Uiso   1.00
C22    C     0.30939   0.02952   0.26497   0.00000  Uiso   1.00
C23    C     0.28313   0.10465   0.18954   0.00000  Uiso   1.00
C24    C     0.18034   0.45736   0.26517   0.00000  Uiso   1.00
C25    C     0.18803   0.02081   0.07369   0.00000  Uiso   1.00
C26    C     0.31065   0.47808   0.07215   0.00000  Uiso   1.00
C27    C     0.21723   0.39524   0.19027   0.00000  Uiso   1.00
C28    C     0.21660   0.10459   0.14432   0.00000  Uiso   1.00
C29    C     0.28303   0.39543   0.14374   0.00000  Uiso   1.00
C30    C     0.28358   0.05359   0.19078   0.00000  Uiso   1.00
C31    C     0.21680   0.44651   0.19190   0.00000  Uiso   1.00
C32    C     0.21576   0.05358   0.14371   0.00000  Uiso   1.00
Cu33   Cu    0.25000   0.29822   0.16667   0.00000  Uiso   1.00
Cu34   Cu    0.25000   0.20179   0.16667   0.00000  Uiso   1.00
H35    H     0.30934   0.12450   0.20745   0.00000  Uiso   1.00
H36    H     0.38916   0.17640   0.19311   0.00000  Uiso   1.00
H37    H     0.38920   0.32363   0.14031   0.00000  Uiso   1.00
H38    H     0.11079   0.17644   0.14016   0.00000  Uiso   1.00
H39    H     0.27708   0.01233   0.27367   0.00000  Uiso   1.00
H40    H     0.31072   0.06672   0.28037   0.00000  Uiso   1.00
H41    H     0.33546   0.00799   0.28340   0.00000  Uiso   1.00
H42    H     0.21336   0.45360   0.28286   0.00000  Uiso   1.00
H43    H     0.16124   0.42328   0.26866   0.00000  Uiso   1.00
H44    H     0.16211   0.48565   0.28570   0.00000  Uiso   1.00
H45    H     0.21121   0.48999   0.06974   0.00000  Uiso   1.00
H46    H     0.19122   0.37497   0.20797   0.00000  Uiso   1.00
H47    H     0.20065   0.05316   0.05375   0.00000  Uiso   1.00
H48    H     0.15656   0.01009   0.05590   0.00000  Uiso   1.00
H49    H     0.28678   0.00819   0.06767   0.00000  Uiso   1.00
H50    H     0.29866   0.44501   0.05296   0.00000  Uiso   1.00
H51    H     0.34180   0.48924   0.05397   0.00000  Uiso   1.00
H52    H     0.19018   0.12437   0.12673   0.00000  Uiso   1.00
H53    H     0.30921   0.37568   0.12567   0.00000  Uiso   1.00
H54    H     0.03043   0.32325   0.19436   0.00000  Uiso   1.00
H55    H     0.46958   0.17672   0.19419   0.00000  Uiso   1.00
H56    H     0.46963   0.32332   0.13934   0.00000  Uiso   1.00
H57    H     0.03037   0.17677   0.13917   0.00000  Uiso   1.00
H58    H     0.11085   0.32356   0.19330   0.00000  Uiso   1.00
N59    N     0.25000   0.12935   0.16667   0.00000  Uiso   1.00
N60    N     0.25000   0.37066   0.16667   0.00000  Uiso   1.00
O61    O     0.18573   0.29072   0.16667   0.00000  Uiso   1.00
O62    O     0.18333   0.47168   0.21550   0.00000  Uiso   1.00
O63    O     0.17966   0.03021   0.12371   0.00000  Uiso   1.00
O64    O     0.31941   0.46992   0.12231   0.00000  Uiso   1.00
O65    O     0.31427   0.20929   0.16666   0.00000  Uiso   1.00
O66    O     0.31427   0.29072   0.16666   0.00000  Uiso   1.00
O67    O     0.18573   0.20929   0.16667   0.00000  Uiso   1.00
O68    O     0.25000   0.29071   0.09613   0.00000  Uiso   1.00
O69    O     0.25000   0.20929   0.23720   0.00000  Uiso   1.00
O70    O     0.25000   0.29071   0.23720   0.00000  Uiso   1.00
O71    O     0.25000   0.20929   0.09613   0.00000  Uiso   1.00
O72    O     0.31769   0.02956   0.21400   0.00000  Uiso   1.00
C73    C     0.66492   0.25000   0.16669   0.00000  Uiso   1.00
C74    C     0.78374   0.44641   0.14308   0.00000  Uiso   1.00
C75    C     0.75000   0.25000   0.07350   0.00000  Uiso   1.00
C76    C     0.75000   0.25000   0.25984   0.00000  Uiso   1.00
C77    C     0.74986   0.02724   0.16700   0.00000  Uiso   1.00
C78    C     0.75001   0.47270   0.16709   0.00000  Uiso   1.00
C79    C     0.75000   0.25000   0.02184   0.00000  Uiso   1.00
C80    C     0.75000   0.25000   0.31150   0.00000  Uiso   1.00
C81    C     0.54762   0.29127   0.18178   0.00000  Uiso   1.00
C82    C     0.95239   0.20873   0.18168   0.00000  Uiso   1.00
C83    C     0.95241   0.29131   0.15183   0.00000  Uiso   1.00
C84    C     0.83508   0.25000   0.16667   0.00000  Uiso   1.00
C85    C     0.54759   0.20875   0.15174   0.00000  Uiso   1.00
C86    C     0.59353   0.29137   0.18143   0.00000  Uiso   1.00
C87    C     0.90648   0.20861   0.18132   0.00000  Uiso   1.00
C88    C     0.90651   0.29142   0.15213   0.00000  Uiso   1.00
C89    C     0.59349   0.20863   0.15205   0.00000  Uiso   1.00
C90    C     0.61670   0.25000   0.16672   0.00000  Uiso   1.00
C91    C     0.88330   0.25001   0.16670   0.00000  Uiso   1.00
C92    C     0.52428   0.25001   0.16677   0.00000  Uiso   1.00
C93    C     0.97572   0.25002   0.16677   0.00000  Uiso   1.00
C94    C     0.80939   0.02952   0.26497   0.00000  Uiso   1.00
C95    C     0.78313   0.10465   0.18954   0.00000  Uiso   1.00
C96    C     0.68034   0.45736   0.26517   0.00000  Uiso   1.00
C97    C     0.68803   0.02081   0.07369   0.00000  Uiso   1.00
C98    C     0.81065   0.47808   0.07215   0.00000  Uiso   1.00
C99    C     0.71723   0.39524   0.19027   0.00000  Uiso   1.00
C100   C     0.71660   0.10459   0.14432   0.00000  Uiso   1.00
C101   C     0.78303   0.39543   0.14374   0.00000  Uiso   1.00
C102   C     0.78358   0.05359   0.19078   0.00000  Uiso   1.00
C103   C     0.71680   0.44651   0.19190   0.00000  Uiso   1.00
C104   C     0.71576   0.05358   0.14371   0.00000  Uiso   1.00
Cu105  Cu    0.75000   0.29822   0.16667   0.00000  Uiso   1.00
Cu106  Cu    0.75000   0.20179   0.16667   0.00000  Uiso   1.00
H107   H     0.80934   0.12450   0.20745   0.00000  Uiso   1.00
H108   H     0.88916   0.17640   0.19311   0.00000  Uiso   1.00
H109   H     0.88920   0.32363   0.14031   0.00000  Uiso   1.00
H110   H     0.61079   0.17644   0.14016   0.00000  Uiso   1.00
H111   H     0.77708   0.01233   0.27367   0.00000  Uiso   1.00
H112   H     0.81072   0.06672   0.28037   0.00000  Uiso   1.00
H113   H     0.83546   0.00799   0.28340   0.00000  Uiso   1.00
H114   H     0.71336   0.45360   0.28286   0.00000  Uiso   1.00
H115   H     0.66124   0.42328   0.26866   0.00000  Uiso   1.00
H116   H     0.66211   0.48565   0.28570   0.00000  Uiso   1.00
H117   H     0.71121   0.48999   0.06974   0.00000  Uiso   1.00
H118   H     0.69122   0.37497   0.20797   0.00000  Uiso   1.00
H119   H     0.70065   0.05316   0.05375   0.00000  Uiso   1.00
H120   H     0.65656   0.01009   0.05590   0.00000  Uiso   1.00
H121   H     0.78678   0.00819   0.06767   0.00000  Uiso   1.00
H122   H     0.79866   0.44501   0.05296   0.00000  Uiso   1.00
H123   H     0.84180   0.48924   0.05397   0.00000  Uiso   1.00
H124   H     0.69018   0.12437   0.12673   0.00000  Uiso   1.00
H125   H     0.80921   0.37568   0.12567   0.00000  Uiso   1.00
H126   H     0.53043   0.32325   0.19436   0.00000  Uiso   1.00
H127   H     0.96958   0.17672   0.19419   0.00000  Uiso   1.00
H128   H     0.96963   0.32332   0.13934   0.00000  Uiso   1.00
H129   H     0.53037   0.17677   0.13917   0.00000  Uiso   1.00
H130   H     0.61085   0.32356   0.19330   0.00000  Uiso   1.00
N131   N     0.75000   0.12935   0.16667   0.00000  Uiso   1.00
N132   N     0.75000   0.37066   0.16667   0.00000  Uiso   1.00
O133   O     0.68573   0.29072   0.16667   0.00000  Uiso   1.00
O134   O     0.68333   0.47168   0.21550   0.00000  Uiso   1.00
O135   O     0.67966   0.03021   0.12371   0.00000  Uiso   1.00
O136   O     0.81941   0.46992   0.12231   0.00000  Uiso   1.00
O137   O     0.81427   0.20929   0.16666   0.00000  Uiso   1.00
O138   O     0.81427   0.29072   0.16666   0.00000  Uiso   1.00
O139   O     0.68573   0.20929   0.16667   0.00000  Uiso   1.00
O140   O     0.75000   0.29071   0.09613   0.00000  Uiso   1.00
O141   O     0.75000   0.20929   0.23720   0.00000  Uiso   1.00
O142   O     0.75000   0.29071   0.23720   0.00000  Uiso   1.00
O143   O     0.75000   0.20929   0.09613   0.00000  Uiso   1.00
O144   O     0.81769   0.02956   0.21400   0.00000  Uiso   1.00
C145   C     0.16492   0.75000   0.16669   0.00000  Uiso   1.00
C146   C     0.28374   0.94641   0.14308   0.00000  Uiso   1.00
C147   C     0.25000   0.75000   0.07350   0.00000  Uiso   1.00
C148   C     0.25000   0.75000   0.25984   0.00000  Uiso   1.00
C149   C     0.24986   0.52724   0.16700   0.00000  Uiso   1.00
C150   C     0.25001   0.97270   0.16709   0.00000  Uiso   1.00
C151   C     0.25000   0.75000   0.02184   0.00000  Uiso   1.00
C152   C     0.25000   0.75000   0.31150   0.00000  Uiso   1.00
C153   C     0.04762   0.79127   0.18178   0.00000  Uiso   1.00
C154   C     0.45239   0.70873   0.18168   0.00000  Uiso   1.00
C155   C     0.45241   0.79131   0.15183   0.00000  Uiso   1.00
C156   C     0.33508   0.75000   0.16667   0.00000  Uiso   1.00
C157   C     0.04759   0.70875   0.15174   0.00000  Uiso   1.00
C158   C     0.09353   0.79137   0.18143   0.00000  Uiso   1.00
C159   C     0.40648   0.70861   0.18132   0.00000  Uiso   1.00
C160   C     0.40651   0.79142   0.15213   0.00000  Uiso   1.00
C161   C     0.09349   0.70863   0.15205   0.00000  Uiso   1.00
C162   C     0.11670   0.75000   0.16672   0.00000  Uiso   1.00
C163   C     0.38330   0.75001   0.16670   0.00000  Uiso   1.00
C164   C     0.02428   0.75001   0.16677   0.00000  Uiso   1.00
C165   C     0.47572   0.75002   0.16677   0.00000  Uiso   1.00
C166   C     0.30939   0.52952   0.26497   0.00000  Uiso   1.00
C167   C     0.28313   0.60465   0.18954   0.00000  Uiso   1.00
C168   C     0.18034   0.95736   0.26517   0.00000  Uiso   1.00
C169   C     0.18803   0.52081   0.07369   0.00000  Uiso   1.00
C170   C     0.31065   0.97808   0.07215   0.00000  Uiso   1.00
C171   C     0.21723   0.89524   0.19027   0.00000  Uiso   1.00
C172   C     0.21660   0.60459   0.14432   0.00000  Uiso   1.00
C173   C     0.28303   0.89543   0.14374   0.00000  Uiso   1.00
C174   C     0.28358   0.55359   0.19078   0.00000  Uiso   1.00
C175   C     0.21680   0.94651   0.19190   0.00000  Uiso   1.00
C176   C     0.21576   0.55358   0.14371   0.00000  Uiso   1.00
Cu177  Cu    0.25000   0.79822   0.16667   0.00000  Uiso   1.00
Cu178  Cu    0.25000   0.70179   0.16667   0.00000  Uiso   1.00
H179   H     0.30934   0.62450   0.20745   0.00000  Uiso   1.00
H180   H     0.38916   0.67640   0.19311   0.00000  Uiso   1.00
H181   H     0.38920   0.82363   0.14031   0.00000  Uiso   1.00
H182   H     0.11079   0.67644   0.14016   0.00000  Uiso   1.00
H183   H     0.27708   0.51233   0.27367   0.00000  Uiso   1.00
H184   H     0.31072   0.56672   0.28037   0.00000  Uiso   1.00
H185   H     0.33546   0.50799   0.28340   0.00000  Uiso   1.00
H186   H     0.21336   0.95360   0.28286   0.00000  Uiso   1.00
H187   H     0.16124   0.92328   0.26866   0.00000  Uiso   1.00
H188   H     0.16211   0.98565   0.28570   0.00000  Uiso   1.00
H189   H     0.21121   0.98999   0.06974   0.00000  Uiso   1.00
H190   H     0.19122   0.87497   0.20797   0.00000  Uiso   1.00
H191   H     0.20065   0.55316   0.05375   0.00000  Uiso   1.00
H192   H     0.15656   0.51009   0.05590   0.00000  Uiso   1.00
H193   H     0.28678   0.50819   0.06767   0.00000  Uiso   1.00
H194   H     0.29866   0.94501   0.05296   0.00000  Uiso   1.00
H195   H     0.34180   0.98924   0.05397   0.00000  Uiso   1.00
H196   H     0.19018   0.62437   0.12673   0.00000  Uiso   1.00
H197   H     0.30921   0.87568   0.12567   0.00000  Uiso   1.00
H198   H     0.03043   0.82325   0.19436   0.00000  Uiso   1.00
H199   H     0.46958   0.67672   0.19419   0.00000  Uiso   1.00
H200   H     0.46963   0.82332   0.13934   0.00000  Uiso   1.00
H201   H     0.03037   0.67677   0.13917   0.00000  Uiso   1.00
H202   H     0.11085   0.82356   0.19330   0.00000  Uiso   1.00
N203   N     0.25000   0.62935   0.16667   0.00000  Uiso   1.00
N204   N     0.25000   0.87066   0.16667   0.00000  Uiso   1.00
O205   O     0.18573   0.79072   0.16667   0.00000  Uiso   1.00
O206   O     0.18333   0.97168   0.21550   0.00000  Uiso   1.00
O207   O     0.17966   0.53021   0.12371   0.00000  Uiso   1.00
O208   O     0.31941   0.96992   0.12231   0.00000  Uiso   1.00
O209   O     0.31427   0.70929   0.16666   0.00000  Uiso   1.00
O210   O     0.31427   0.79072   0.16666   0.00000  Uiso   1.00
O211   O     0.18573   0.70929   0.16667   0.00000  Uiso   1.00
O212   O     0.25000   0.79071   0.09613   0.00000  Uiso   1.00
O213   O     0.25000   0.70929   0.23720   0.00000  Uiso   1.00
O214   O     0.25000   0.79071   0.23720   0.00000  Uiso   1.00
O215   O     0.25000   0.70929   0.09613   0.00000  Uiso   1.00
O216   O     0.31769   0.52956   0.21400   0.00000  Uiso   1.00
C217   C     0.66492   0.75000   0.16669   0.00000  Uiso   1.00
C218   C     0.78374   0.94641   0.14308   0.00000  Uiso   1.00
C219   C     0.75000   0.75000   0.07350   0.00000  Uiso   1.00
C220   C     0.75000   0.75000   0.25984   0.00000  Uiso   1.00
C221   C     0.74986   0.52724   0.16700   0.00000  Uiso   1.00
C222   C     0.75001   0.97270   0.16709   0.00000  Uiso   1.00
C223   C     0.75000   0.75000   0.02184   0.00000  Uiso   1.00
C224   C     0.75000   0.75000   0.31150   0.00000  Uiso   1.00
C225   C     0.54762   0.79127   0.18178   0.00000  Uiso   1.00
C226   C     0.95239   0.70873   0.18168   0.00000  Uiso   1.00
C227   C     0.95241   0.79131   0.15183   0.00000  Uiso   1.00
C228   C     0.83508   0.75000   0.16667   0.00000  Uiso   1.00
C229   C     0.54759   0.70875   0.15174   0.00000  Uiso   1.00
C230   C     0.59353   0.79137   0.18143   0.00000  Uiso   1.00
C231   C     0.90648   0.70861   0.18132   0.00000  Uiso   1.00
C232   C     0.90651   0.79142   0.15213   0.00000  Uiso   1.00
C233   C     0.59349   0.70863   0.15205   0.00000  Uiso   1.00
C234   C     0.61670   0.75000   0.16672   0.00000  Uiso   1.00
C235   C     0.88330   0.75001   0.16670   0.00000  Uiso   1.00
C236   C     0.52428   0.75001   0.16677   0.00000  Uiso   1.00
C237   C     0.97572   0.75002   0.16677   0.00000  Uiso   1.00
C238   C     0.80939   0.52952   0.26497   0.00000  Uiso   1.00
C239   C     0.78313   0.60465   0.18954   0.00000  Uiso   1.00
C240   C     0.68034   0.95736   0.26517   0.00000  Uiso   1.00
C241   C     0.68803   0.52081   0.07369   0.00000  Uiso   1.00
C242   C     0.81065   0.97808   0.07215   0.00000  Uiso   1.00
C243   C     0.71723   0.89524   0.19027   0.00000  Uiso   1.00
C244   C     0.71660   0.60459   0.14432   0.00000  Uiso   1.00
C245   C     0.78303   0.89543   0.14374   0.00000  Uiso   1.00
C246   C     0.78358   0.55359   0.19078   0.00000  Uiso   1.00
C247   C     0.71680   0.94651   0.19190   0.00000  Uiso   1.00
C248   C     0.71576   0.55358   0.14371   0.00000  Uiso   1.00
Cu249  Cu    0.75000   0.79822   0.16667   0.00000  Uiso   1.00
Cu250  Cu    0.75000   0.70179   0.16667   0.00000  Uiso   1.00
H251   H     0.80934   0.62450   0.20745   0.00000  Uiso   1.00
H252   H     0.88916   0.67640   0.19311   0.00000  Uiso   1.00
H253   H     0.88920   0.82363   0.14031   0.00000  Uiso   1.00
H254   H     0.61079   0.67644   0.14016   0.00000  Uiso   1.00
H255   H     0.77708   0.51233   0.27367   0.00000  Uiso   1.00
H256   H     0.81072   0.56672   0.28037   0.00000  Uiso   1.00
H257   H     0.83546   0.50799   0.28340   0.00000  Uiso   1.00
H258   H     0.71336   0.95360   0.28286   0.00000  Uiso   1.00
H259   H     0.66124   0.92328   0.26866   0.00000  Uiso   1.00
H260   H     0.66211   0.98565   0.28570   0.00000  Uiso   1.00
H261   H     0.71121   0.98999   0.06974   0.00000  Uiso   1.00
H262   H     0.69122   0.87497   0.20797   0.00000  Uiso   1.00
H263   H     0.70065   0.55316   0.05375   0.00000  Uiso   1.00
H264   H     0.65656   0.51009   0.05590   0.00000  Uiso   1.00
H265   H     0.78678   0.50819   0.06767   0.00000  Uiso   1.00
H266   H     0.79866   0.94501   0.05296   0.00000  Uiso   1.00
H267   H     0.84180   0.98924   0.05397   0.00000  Uiso   1.00
H268   H     0.69018   0.62437   0.12673   0.00000  Uiso   1.00
H269   H     0.80921   0.87568   0.12567   0.00000  Uiso   1.00
H270   H     0.53043   0.82325   0.19436   0.00000  Uiso   1.00
H271   H     0.96958   0.67672   0.19419   0.00000  Uiso   1.00
H272   H     0.96963   0.82332   0.13934   0.00000  Uiso   1.00
H273   H     0.53037   0.67677   0.13917   0.00000  Uiso   1.00
H274   H     0.61085   0.82356   0.19330   0.00000  Uiso   1.00
N275   N     0.75000   0.62935   0.16667   0.00000  Uiso   1.00
N276   N     0.75000   0.87066   0.16667   0.00000  Uiso   1.00
O277   O     0.68573   0.79072   0.16667   0.00000  Uiso   1.00
O278   O     0.68333   0.97168   0.21550   0.00000  Uiso   1.00
O279   O     0.67966   0.53021   0.12371   0.00000  Uiso   1.00
O280   O     0.81941   0.96992   0.12231   0.00000  Uiso   1.00
O281   O     0.81427   0.70929   0.16666   0.00000  Uiso   1.00
O282   O     0.81427   0.79072   0.16666   0.00000  Uiso   1.00
O283   O     0.68573   0.70929   0.16667   0.00000  Uiso   1.00
O284   O     0.75000   0.79071   0.09613   0.00000  Uiso   1.00
O285   O     0.75000   0.70929   0.23720   0.00000  Uiso   1.00
O286   O     0.75000   0.79071   0.23720   0.00000  Uiso   1.00
O287   O     0.75000   0.70929   0.09613   0.00000  Uiso   1.00
O288   O     0.81769   0.52956   0.21400   0.00000  Uiso   1.00
C289   C     0.16492   0.25000   0.50002   0.00000  Uiso   1.00
C290   C     0.28374   0.44641   0.47642   0.00000  Uiso   1.00
C291   C     0.25000   0.25000   0.40683   0.00000  Uiso   1.00
C292   C     0.25000   0.25000   0.59317   0.00000  Uiso   1.00
C293   C     0.24986   0.02724   0.50033   0.00000  Uiso   1.00
C294   C     0.25001   0.47270   0.50042   0.00000  Uiso   1.00
C295   C     0.25000   0.25000   0.35517   0.00000  Uiso   1.00
C296   C     0.25000   0.25000   0.64483   0.00000  Uiso   1.00
C297   C     0.04762   0.29127   0.51511   0.00000  Uiso   1.00
C298   C     0.45239   0.20873   0.51501   0.00000  Uiso   1.00
C299   C     0.45241   0.29131   0.48516   0.00000  Uiso   1.00
C300   C     0.33508   0.25000   0.50000   0.00000  Uiso   1.00
C301   C     0.04759   0.20875   0.48507   0.00000  Uiso   1.00
C302   C     0.09353   0.29137   0.51476   0.00000  Uiso   1.00
C303   C     0.40648   0.20861   0.51465   0.00000  Uiso   1.00
C304   C     0.40651   0.29142   0.48546   0.00000  Uiso   1.00
C305   C     0.09349   0.20863   0.48539   0.00000  Uiso   1.00
C306   C     0.11670   0.25000   0.50006   0.00000  Uiso   1.00
C307   C     0.38330   0.25001   0.50004   0.00000  Uiso   1.00
C308   C     0.02428   0.25001   0.50010   0.00000  Uiso   1.00
C309   C     0.47572   0.25002   0.50010   0.00000  Uiso   1.00
C310   C     0.30939   0.02952   0.59831   0.00000  Uiso   1.00
C311   C     0.28313   0.10465   0.52287   0.00000  Uiso   1.00
C312   C     0.18034   0.45736   0.59850   0.00000  Uiso   1.00
C313   C     0.18803   0.02081   0.40702   0.00000  Uiso   1.00
C314   C     0.31065   0.47808   0.40548   0.00000  Uiso   1.00
C315   C     0.21723   0.39524   0.52360   0.00000  Uiso   1.00
C316   C     0.21660   0.10459   0.47765   0.00000  Uiso   1.00
C317   C     0.28303   0.39543   0.47708   0.00000  Uiso   1.00
C318   C     0.28358   0.05359   0.52411   0.00000  Uiso   1.00
C319   C     0.21680   0.44651   0.52524   0.00000  Uiso   1.00
C320   C     0.21576   0.05358   0.47705   0.00000  Uiso   1.00
Cu321  Cu    0.25000   0.29822   0.50000   0.00000  Uiso   1.00
Cu322  Cu    0.25000   0.20179   0.50000   0.00000  Uiso   1.00
H323   H     0.30934   0.12450   0.54078   0.00000  Uiso   1.00
H324   H     0.38916   0.17640   0.52645   0.00000  Uiso   1.00
H325   H     0.38920   0.32363   0.47364   0.00000  Uiso   1.00
H326   H     0.11079   0.17644   0.47350   0.00000  Uiso   1.00
H327   H     0.27708   0.01233   0.60700   0.00000  Uiso   1.00
H328   H     0.31072   0.06672   0.61370   0.00000  Uiso   1.00
H329   H     0.33546   0.00799   0.61673   0.00000  Uiso   1.00
H330   H     0.21336   0.45360   0.61620   0.00000  Uiso   1.00
H331   H     0.16124   0.42328   0.60199   0.00000  Uiso   1.00
H332   H     0.16211   0.48565   0.61904   0.00000  Uiso   1.00
H333   H     0.21121   0.48999   0.40307   0.00000  Uiso   1.00
H334   H     0.19122   0.37497   0.54131   0.00000  Uiso   1.00
H335   H     0.20065   0.05316   0.38708   0.00000  Uiso   1.00
H336   H     0.15656   0.01009   0.38923   0.00000  Uiso   1.00
H337   H     0.28678   0.00819   0.40101   0.00000  Uiso   1.00
H338   H     0.29866   0.44501   0.38629   0.00000  Uiso   1.00
H339   H     0.34180   0.48924   0.38730   0.00000  Uiso   1.00
H340   H     0.19018   0.12437   0.46006   0.00000  Uiso   1.00
H341   H     0.30921   0.37568   0.45900   0.00000  Uiso   1.00
H342   H     0.03043   0.32325   0.52769   0.00000  Uiso   1.00
H343   H     0.46958   0.17672   0.52753   0.00000  Uiso   1.00
H344   H     0.46963   0.32332   0.47267   0.00000  Uiso   1.00
H345   H     0.03037   0.17677   0.47251   0.00000  Uiso   1.00
H346   H     0.11085   0.32356   0.52663   0.00000  Uiso   1.00
N347   N     0.25000   0.12935   0.50000   0.00000  Uiso   1.00
N348   N     0.25000   0.37066   0.50000   0.00000  Uiso   1.00
O349   O     0.18573   0.29072   0.50000   0.00000  Uiso   1.00
O350   O     0.18333   0.47168   0.54883   0.00000  Uiso   1.00
O351   O     0.17966   0.03021   0.45704   0.00000  Uiso   1.00
O352   O     0.31941   0.46992   0.45564   0.00000  Uiso   1.00
O353   O     0.31427   0.20929   0.50000   0.00000  Uiso   1.00
O354   O     0.31427   0.29072   0.50000   0.00000  Uiso   1.00
O355   O     0.18573   0.20929   0.50000   0.00000  Uiso   1.00
O356   O     0.25000   0.29071   0.42946   0.00000  Uiso   1.00
O357   O     0.25000   0.20929   0.57054   0.00000  Uiso   1.00
O358   O     0.25000   0.29071   0.57054   0.00000  Uiso   1.00
O359   O     0.25000   0.20929   0.42946   0.00000  Uiso   1.00
O360   O     0.31769   0.02956   0.54734   0.00000  Uiso   1.00
C361   C     0.66492   0.25000   0.50002   0.00000  Uiso   1.00
C362   C     0.78374   0.44641   0.47642   0.00000  Uiso   1.00
C363   C     0.75000   0.25000   0.40683   0.00000  Uiso   1.00
C364   C     0.75000   0.25000   0.59317   0.00000  Uiso   1.00
C365   C     0.74986   0.02724   0.50033   0.00000  Uiso   1.00
C366   C     0.75001   0.47270   0.50042   0.00000  Uiso   1.00
C367   C     0.75000   0.25000   0.35517   0.00000  Uiso   1.00
C368   C     0.75000   0.25000   0.64483   0.00000  Uiso   1.00
C369   C     0.54762   0.29127   0.51511   0.00000  Uiso   1.00
C370   C     0.95239   0.20873   0.51501   0.00000  Uiso   1.00
C371   C     0.95241   0.29131   0.48516   0.00000  Uiso   1.00
C372   C     0.83508   0.25000   0.50000   0.00000  Uiso   1.00
C373   C     0.54759   0.20875   0.48507   0.00000  Uiso   1.00
C374   C     0.59353   0.29137   0.51476   0.00000  Uiso   1.00
C375   C     0.90648   0.20861   0.51465   0.00000  Uiso   1.00
C376   C     0.90651   0.29142   0.48546   0.00000  Uiso   1.00
C377   C     0.59349   0.20863   0.48539   0.00000  Uiso   1.00
C378   C     0.61670   0.25000   0.50006   0.00000  Uiso   1.00
C379   C     0.88330   0.25001   0.50004   0.00000  Uiso   1.00
C380   C     0.52428   0.25001   0.50010   0.00000  Uiso   1.00
C381   C     0.97572   0.25002   0.50010   0.00000  Uiso   1.00
C382   C     0.80939   0.02952   0.59831   0.00000  Uiso   1.00
C383   C     0.78313   0.10465   0.52287   0.00000  Uiso   1.00
C384   C     0.68034   0.45736   0.59850   0.00000  Uiso   1.00
C385   C     0.68803   0.02081   0.40702   0.00000  Uiso   1.00
C386   C     0.81065   0.47808   0.40548   0.00000  Uiso   1.00
C387   C     0.71723   0.39524   0.52360   0.00000  Uiso   1.00
C388   C     0.71660   0.10459   0.47765   0.00000  Uiso   1.00
C389   C     0.78303   0.39543   0.47708   0.00000  Uiso   1.00
C390   C     0.78358   0.05359   0.52411   0.00000  Uiso   1.00
C391   C     0.71680   0.44651   0.52524   0.00000  Uiso   1.00
C392   C     0.71576   0.05358   0.47705   0.00000  Uiso   1.00
Cu393  Cu    0.75000   0.29822   0.50000   0.00000  Uiso   1.00
Cu394  Cu    0.75000   0.20179   0.50000   0.00000  Uiso   1.00
H395   H     0.80934   0.12450   0.54078   0.00000  Uiso   1.00
H396   H     0.88916   0.17640   0.52645   0.00000  Uiso   1.00
H397   H     0.88920   0.32363   0.47364   0.00000  Uiso   1.00
H398   H     0.61079   0.17644   0.47350   0.00000  Uiso   1.00
H399   H     0.77708   0.01233   0.60700   0.00000  Uiso   1.00
H400   H     0.81072   0.06672   0.61370   0.00000  Uiso   1.00
H401   H     0.83546   0.00799   0.61673   0.00000  Uiso   1.00
H402   H     0.71336   0.45360   0.61620   0.00000  Uiso   1.00
H403   H     0.66124   0.42328   0.60199   0.00000  Uiso   1.00
H404   H     0.66211   0.48565   0.61904   0.00000  Uiso   1.00
H405   H     0.71121   0.48999   0.40307   0.00000  Uiso   1.00
H406   H     0.69122   0.37497   0.54131   0.00000  Uiso   1.00
H407   H     0.70065   0.05316   0.38708   0.00000  Uiso   1.00
H408   H     0.65656   0.01009   0.38923   0.00000  Uiso   1.00
H409   H     0.78678   0.00819   0.40101   0.00000  Uiso   1.00
H410   H     0.79866   0.44501   0.38629   0.00000  Uiso   1.00
H411   H     0.84180   0.48924   0.38730   0.00000  Uiso   1.00
H412   H     0.69018   0.12437   0.46006   0.00000  Uiso   1.00
H413   H     0.80921   0.37568   0.45900   0.00000  Uiso   1.00
H414   H     0.53043   0.32325   0.52769   0.00000  Uiso   1.00
H415   H     0.96958   0.17672   0.52753   0.00000  Uiso   1.00
H416   H     0.96963   0.32332   0.47267   0.00000  Uiso   1.00
H417   H     0.53037   0.17677   0.47251   0.00000  Uiso   1.00
H418   H     0.61085   0.32356   0.52663   0.00000  Uiso   1.00
N419   N     0.75000   0.12935   0.50000   0.00000  Uiso   1.00
N420   N     0.75000   0.37066   0.50000   0.00000  Uiso   1.00
O421   O     0.68573   0.29072   0.50000   0.00000  Uiso   1.00
O422   O     0.68333   0.47168   0.54883   0.00000  Uiso   1.00
O423   O     0.67966   0.03021   0.45704   0.00000  Uiso   1.00
O424   O     0.81941   0.46992   0.45564   0.00000  Uiso   1.00
O425   O     0.81427   0.20929   0.50000   0.00000  Uiso   1.00
O426   O     0.81427   0.29072   0.50000   0.00000  Uiso   1.00
O427   O     0.68573   0.20929   0.50000   0.00000  Uiso   1.00
O428   O     0.75000   0.29071   0.42946   0.00000  Uiso   1.00
O429   O     0.75000   0.20929   0.57054   0.00000  Uiso   1.00
O430   O     0.75000   0.29071   0.57054   0.00000  Uiso   1.00
O431   O     0.75000   0.20929   0.42946   0.00000  Uiso   1.00
O432   O     0.81769   0.02956   0.54734   0.00000  Uiso   1.00
C433   C     0.16492   0.75000   0.50002   0.00000  Uiso   1.00
C434   C     0.28374   0.94641   0.47642   0.00000  Uiso   1.00
C435   C     0.25000   0.75000   0.40683   0.00000  Uiso   1.00
C436   C     0.25000   0.75000   0.59317   0.00000  Uiso   1.00
C437   C     0.24986   0.52724   0.50033   0.00000  Uiso   1.00
C438   C     0.25001   0.97270   0.50042   0.00000  Uiso   1.00
C439   C     0.25000   0.75000   0.35517   0.00000  Uiso   1.00
C440   C     0.25000   0.75000   0.64483   0.00000  Uiso   1.00
C441   C     0.04762   0.79127   0.51511   0.00000  Uiso   1.00
C442   C     0.45239   0.70873   0.51501   0.00000  Uiso   1.00
C443   C     0.45241   0.79131   0.48516   0.00000  Uiso   1.00
C444   C     0.33508   0.75000   0.50000   0.00000  Uiso   1.00
C445   C     0.04759   0.70875   0.48507   0.00000  Uiso   1.00
C446   C     0.09353   0.79137   0.51476   0.00000  Uiso   1.00
C447   C     0.40648   0.70861   0.51465   0.00000  Uiso   1.00
C448   C     0.40651   0.79142   0.48546   0.00000  Uiso   1.00
C449   C     0.09349   0.70863   0.48539   0.00000  Uiso   1.00
C450   C     0.11670   0.75000   0.50006   0.00000  Uiso   1.00
C451   C     0.38330   0.75001   0.50004   0.00000  Uiso   1.00
C452   C     0.02428   0.75001   0.50010   0.00000  Uiso   1.00
C453   C     0.47572   0.75002   0.50010   0.00000  Uiso   1.00
C454   C     0.30939   0.52952   0.59831   0.00000  Uiso   1.00
C455   C     0.28313   0.60465   0.52287   0.00000  Uiso   1.00
C456   C     0.18034   0.95736   0.59850   0.00000  Uiso   1.00
C457   C     0.18803   0.52081   0.40702   0.00000  Uiso   1.00
C458   C     0.31065   0.97808   0.40548   0.00000  Uiso   1.00
C459   C     0.21723   0.89524   0.52360   0.00000  Uiso   1.00
C460   C     0.21660   0.60459   0.47765   0.00000  Uiso   1.00
C461   C     0.28303   0.89543   0.47708   0.00000  Uiso   1.00
C462   C     0.28358   0.55359   0.52411   0.00000  Uiso   1.00
C463   C     0.21680   0.94651   0.52524   0.00000  Uiso   1.00
C464   C     0.21576   0.55358   0.47705   0.00000  Uiso   1.00
Cu465  Cu    0.25000   0.79822   0.50000   0.00000  Uiso   1.00
Cu466  Cu    0.25000   0.70179   0.50000   0.00000  Uiso   1.00
H467   H     0.30934   0.62450   0.54078   0.00000  Uiso   1.00
H468   H     0.38916   0.67640   0.52645   0.00000  Uiso   1.00
H469   H     0.38920   0.82363   0.47364   0.00000  Uiso   1.00
H470   H     0.11079   0.67644   0.47350   0.00000  Uiso   1.00
H471   H     0.27708   0.51233   0.60700   0.00000  Uiso   1.00
H472   H     0.31072   0.56672   0.61370   0.00000  Uiso   1.00
H473   H     0.33546   0.50799   0.61673   0.00000  Uiso   1.00
H474   H     0.21336   0.95360   0.61620   0.00000  Uiso   1.00
H475   H     0.16124   0.92328   0.60199   0.00000  Uiso   1.00
H476   H     0.16211   0.98565   0.61904   0.00000  Uiso   1.00
H477   H     0.21121   0.98999   0.40307   0.00000  Uiso   1.00
H478   H     0.19122   0.87497   0.54131   0.00000  Uiso   1.00
H479   H     0.20065   0.55316   0.38708   0.00000  Uiso   1.00
H480   H     0.15656   0.51009   0.38923   0.00000  Uiso   1.00
H481   H     0.28678   0.50819   0.40101   0.00000  Uiso   1.00
H482   H     0.29866   0.94501   0.38629   0.00000  Uiso   1.00
H483   H     0.34180   0.98924   0.38730   0.00000  Uiso   1.00
H484   H     0.19018   0.62437   0.46006   0.00000  Uiso   1.00
H485   H     0.30921   0.87568   0.45900   0.00000  Uiso   1.00
H486   H     0.03043   0.82325   0.52769   0.00000  Uiso   1.00
H487   H     0.46958   0.67672   0.52753   0.00000  Uiso   1.00
H488   H     0.46963   0.82332   0.47267   0.00000  Uiso   1.00
H489   H     0.03037   0.67677   0.47251   0.00000  Uiso   1.00
H490   H     0.11085   0.82356   0.52663   0.00000  Uiso   1.00
N491   N     0.25000   0.62935   0.50000   0.00000  Uiso   1.00
N492   N     0.25000   0.87066   0.50000   0.00000  Uiso   1.00
O493   O     0.18573   0.79072   0.50000   0.00000  Uiso   1.00
O494   O     0.18333   0.97168   0.54883   0.00000  Uiso   1.00
O495   O     0.17966   0.53021   0.45704   0.00000  Uiso   1.00
O496   O     0.31941   0.96992   0.45564   0.00000  Uiso   1.00
O497   O     0.31427   0.70929   0.50000   0.00000  Uiso   1.00
O498   O     0.31427   0.79072   0.50000   0.00000  Uiso   1.00
O499   O     0.18573   0.70929   0.50000   0.00000  Uiso   1.00
O500   O     0.25000   0.79071   0.42946   0.00000  Uiso   1.00
O501   O     0.25000   0.70929   0.57054   0.00000  Uiso   1.00
O502   O     0.25000   0.79071   0.57054   0.00000  Uiso   1.00
O503   O     0.25000   0.70929   0.42946   0.00000  Uiso   1.00
O504   O     0.31769   0.52956   0.54734   0.00000  Uiso   1.00
C505   C     0.66492   0.75000   0.50002   0.00000  Uiso   1.00
C506   C     0.78374   0.94641   0.47642   0.00000  Uiso   1.00
C507   C     0.75000   0.75000   0.40683   0.00000  Uiso   1.00
C508   C     0.75000   0.75000   0.59317   0.00000  Uiso   1.00
C509   C     0.74986   0.52724   0.50033   0.00000  Uiso   1.00
C510   C     0.75001   0.97270   0.50042   0.00000  Uiso   1.00
C511   C     0.75000   0.75000   0.35517   0.00000  Uiso   1.00
C512   C     0.75000   0.75000   0.64483   0.00000  Uiso   1.00
C513   C     0.54762   0.79127   0.51511   0.00000  Uiso   1.00
C514   C     0.95239   0.70873   0.51501   0.00000  Uiso   1.00
C515   C     0.95241   0.79131   0.48516   0.00000  Uiso   1.00
C516   C     0.83508   0.75000   0.50000   0.00000  Uiso   1.00
C517   C     0.54759   0.70875   0.48507   0.00000  Uiso   1.00
C518   C     0.59353   0.79137   0.51476   0.00000  Uiso   1.00
C519   C     0.90648   0.70861   0.51465   0.00000  Uiso   1.00
C520   C     0.90651   0.79142   0.48546   0.00000  Uiso   1.00
C521   C     0.59349   0.70863   0.48539   0.00000  Uiso   1.00
C522   C     0.61670   0.75000   0.50006   0.00000  Uiso   1.00
C523   C     0.88330   0.75001   0.50004   0.00000  Uiso   1.00
C524   C     0.52428   0.75001   0.50010   0.00000  Uiso   1.00
C525   C     0.97572   0.75002   0.50010   0.00000  Uiso   1.00
C526   C     0.80939   0.52952   0.59831   0.00000  Uiso   1.00
C527   C     0.78313   0.60465   0.52287   0.00000  Uiso   1.00
C528   C     0.68034   0.95736   0.59850   0.00000  Uiso   1.00
C529   C     0.68803   0.52081   0.40702   0.00000  Uiso   1.00
C530   C     0.81065   0.97808   0.40548   0.00000  Uiso   1.00
C531   C     0.71723   0.89524   0.52360   0.00000  Uiso   1.00
C532   C     0.71660   0.60459   0.47765   0.00000  Uiso   1.00
C533   C     0.78303   0.89543   0.47708   0.00000  Uiso   1.00
C534   C     0.78358   0.55359   0.52411   0.00000  Uiso   1.00
C535   C     0.71680   0.94651   0.52524   0.00000  Uiso   1.00
C536   C     0.71576   0.55358   0.47705   0.00000  Uiso   1.00
Cu537  Cu    0.75000   0.79822   0.50000   0.00000  Uiso   1.00
Cu538  Cu    0.75000   0.70179   0.50000   0.00000  Uiso   1.00
H539   H     0.80934   0.62450   0.54078   0.00000  Uiso   1.00
H540   H     0.88916   0.67640   0.52645   0.00000  Uiso   1.00
H541   H     0.88920   0.82363   0.47364   0.00000  Uiso   1.00
H542   H     0.61079   0.67644   0.47350   0.00000  Uiso   1.00
H543   H     0.77708   0.51233   0.60700   0.00000  Uiso   1.00
H544   H     0.81072   0.56672   0.61370   0.00000  Uiso   1.00
H545   H     0.83546   0.50799   0.61673   0.00000  Uiso   1.00
H546   H     0.71336   0.95360   0.61620   0.00000  Uiso   1.00
H547   H     0.66124   0.92328   0.60199   0.00000  Uiso   1.00
H548   H     0.66211   0.98565   0.61904   0.00000  Uiso   1.00
H549   H     0.71121   0.98999   0.40307   0.00000  Uiso   1.00
H550   H     0.69122   0.87497   0.54131   0.00000  Uiso   1.00
H551   H     0.70065   0.55316   0.38708   0.00000  Uiso   1.00
H552   H     0.65656   0.51009   0.38923   0.00000  Uiso   1.00
H553   H     0.78678   0.50819   0.40101   0.00000  Uiso   1.00
H554   H     0.79866   0.94501   0.38629   0.00000  Uiso   1.00
H555   H     0.84180   0.98924   0.38730   0.00000  Uiso   1.00
H556   H     0.69018   0.62437   0.46006   0.00000  Uiso   1.00
H557   H     0.80921   0.87568   0.45900   0.00000  Uiso   1.00
H558   H     0.53043   0.82325   0.52769   0.00000  Uiso   1.00
H559   H     0.96958   0.67672   0.52753   0.00000  Uiso   1.00
H560   H     0.96963   0.82332   0.47267   0.00000  Uiso   1.00
H561   H     0.53037   0.67677   0.47251   0.00000  Uiso   1.00
H562   H     0.61085   0.82356   0.52663   0.00000  Uiso   1.00
N563   N     0.75000   0.62935   0.50000   0.00000  Uiso   1.00
N564   N     0.75000   0.87066   0.50000   0.00000  Uiso   1.00
O565   O     0.68573   0.79072   0.50000   0.00000  Uiso   1.00
O566   O     0.68333   0.97168   0.54883   0.00000  Uiso   1.00
O567   O     0.67966   0.53021   0.45704   0.00000  Uiso   1.00
O568   O     0.81941   0.96992   0.45564   0.00000  Uiso   1.00
O569   O     0.81427   0.70929   0.50000   0.00000  Uiso   1.00
O570   O     0.81427   0.79072   0.50000   0.00000  Uiso   1.00
O571   O     0.68573   0.70929   0.50000   0.00000  Uiso   1.00
O572   O     0.75000   0.79071   0.42946   0.00000  Uiso   1.00
O573   O     0.75000   0.70929   0.57054   0.00000  Uiso   1.00
O574   O     0.75000   0.79071   0.57054   0.00000  Uiso   1.00
O575   O     0.75000   0.70929   0.42946   0.00000  Uiso   1.00
O576   O     0.81769   0.52956   0.54734   0.00000  Uiso   1.00
C577   C     0.16492   0.25000   0.83335   0.00000  Uiso   1.00
C578   C     0.28374   0.44641   0.80975   0.00000  Uiso   1.00
C579   C     0.25000   0.25000   0.74016   0.00000  Uiso   1.00
C580   C     0.25000   0.25000   0.92650   0.00000  Uiso   1.00
C581   C     0.24986   0.02724   0.83367   0.00000  Uiso   1.00
C582   C     0.25001   0.47270   0.83375   0.00000  Uiso   1.00
C583   C     0.25000   0.25000   0.68850   0.00000  Uiso   1.00
C584   C     0.25000   0.25000   0.97816   0.00000  Uiso   1.00
C585   C     0.04762   0.29127   0.84845   0.00000  Uiso   1.00
C586   C     0.45239   0.20873   0.84835   0.00000  Uiso   1.00
C587   C     0.45241   0.29131   0.81849   0.00000  Uiso   1.00
C588   C     0.33508   0.25000   0.83334   0.00000  Uiso   1.00
C589   C     0.04759   0.20875   0.81841   0.00000  Uiso   1.00
C590   C     0.09353   0.29137   0.84809   0.00000  Uiso   1.00
C591   C     0.40648   0.20861   0.84798   0.00000  Uiso   1.00
C592   C     0.40651   0.29142   0.81879   0.00000  Uiso   1.00
C593   C     0.09349   0.20863   0.81872   0.00000  Uiso   1.00
C594   C     0.11670   0.25000   0.83339   0.00000  Uiso   1.00
C595   C     0.38330   0.25001   0.83337   0.00000  Uiso   1.00
C596   C     0.02428   0.25001   0.83343   0.00000  Uiso   1.00
C597   C     0.47572   0.25002   0.83343   0.00000  Uiso   1.00
C598   C     0.30939   0.02952   0.93164   0.00000  Uiso   1.00
C599   C     0.28313   0.10465   0.85620   0.00000  Uiso   1.00
C600   C     0.18034   0.45736   0.93184   0.00000  Uiso   1.00
C601   C     0.18803   0.02081   0.74035   0.00000  Uiso   1.00
C602   C     0.31065   0.47808   0.73881   0.00000  Uiso   1.00
C603   C     0.21723   0.39524   0.85694   0.00000  Uiso   1.00
C604   C     0.21660   0.10459   0.81099   0.00000  Uiso   1.00
C605   C     0.28303   0.39543   0.81041   0.00000  Uiso   1.00
C606   C     0.28358   0.05359   0.85745   0.00000  Uiso   1.00
C607   C     0.21680   0.44651   0.85857   0.00000  Uiso   1.00
C608   C     0.21576   0.05358   0.81038   0.00000  Uiso   1.00
Cu609  Cu    0.25000   0.29822   0.83333   0.00000  Uiso   1.00
Cu610  Cu    0.25000   0.20179   0.83333   0.00000  Uiso   1.00
H611   H     0.30934   0.12450   0.87411   0.00000  Uiso   1.00
H612   H     0.38916   0.17640   0.85978   0.00000  Uiso   1.00
H613   H     0.38920   0.32363   0.80698   0.00000  Uiso   1.00
H614   H     0.11079   0.17644   0.80683   0.00000  Uiso   1.00
H615   H     0.27708   0.01233   0.94034   0.00000  Uiso   1.00
H616   H     0.31072   0.06672   0.94704   0.00000  Uiso   1.00
H617   H     0.33546   0.00799   0.95007   0.00000  Uiso   1.00
H618   H     0.21336   0.45360   0.94953   0.00000  Uiso   1.00
H619   H     0.16124   0.42328   0.93532   0.00000  Uiso   1.00
H620   H     0.16211   0.48565   0.95237   0.00000  Uiso   1.00
H621   H     0.21121   0.48999   0.73640   0.00000  Uiso   1.00
H622   H     0.19122   0.37497   0.87464   0.00000  Uiso   1.00
H623   H     0.20065   0.05316   0.72042   0.00000  Uiso   1.00
H624   H     0.15656   0.01009   0.72257   0.00000  Uiso   1.00
H625   H     0.28678   0.00819   0.73434   0.00000  Uiso   1.00
H626   H     0.29866   0.44501   0.71963   0.00000  Uiso   1.00
H627   H     0.34180   0.48924   0.72064   0.00000  Uiso   1.00
H628   H     0.19018   0.12437   0.79340   0.00000  Uiso   1.00
H629   H     0.30921   0.37568   0.79234   0.00000  Uiso   1.00
H630   H     0.03043   0.32325   0.86102   0.00000  Uiso   1.00
H631   H     0.46958   0.17672   0.86086   0.00000  Uiso   1.00
H632   H     0.46963   0.32332   0.80600   0.00000  Uiso   1.00
H633   H     0.03037   0.17677   0.80584   0.00000  Uiso   1.00
H634   H     0.11085   0.32356   0.85997   0.00000  Uiso   1.00
N635   N     0.25000   0.12935   0.83333   0.00000  Uiso   1.00
N636   N     0.25000   0.37066   0.83333   0.00000  Uiso   1.00
O637   O     0.18573   0.29072   0.83334   0.00000  Uiso   1.00
O638   O     0.18333   0.47168   0.88217   0.00000  Uiso   1.00
O639   O     0.17966   0.03021   0.79038   0.00000  Uiso   1.00
O640   O     0.31941   0.46992   0.78897   0.00000  Uiso   1.00
O641   O     0.31427   0.20929   0.83333   0.00000  Uiso   1.00
O642   O     0.31427   0.29072   0.83333   0.00000  Uiso   1.00
O643   O     0.18573   0.20929   0.83334   0.00000  Uiso   1.00
O644   O     0.25000   0.29071   0.76280   0.00000  Uiso   1.00
O645   O     0.25000   0.20929   0.90387   0.00000  Uiso   1.00
O646   O     0.25000   0.29071   0.90387   0.00000  Uiso   1.00
O647   O     0.25000   0.20929   0.76280   0.00000  Uiso   1.00
O648   O     0.31769   0.02956   0.88067   0.00000  Uiso   1.00
C649   C     0.66492   0.25000   0.83335   0.00000  Uiso   1.00
C650   C     0.78374   0.44641   0.80975   0.00000  Uiso   1.00
C651   C     0.75000   0.25000   0.74016   0.00000  Uiso   1.00
C652   C     0.75000   0.25000   0.92650   0.00000  Uiso   1.00
C653   C     0.74986   0.02724   0.83367   0.00000  Uiso   1.00
C654   C     0.75001   0.47270   0.83375   0.00000  Uiso   1.00
C655   C     0.75000   0.25000   0.68850   0.00000  Uiso   1.00
C656   C     0.75000   0.25000   0.97816   0.00000  Uiso   1.00
C657   C     0.54762   0.29127   0.84845   0.00000  Uiso   1.00
C658   C     0.95239   0.20873   0.84835   0.00000  Uiso   1.00
C659   C     0.95241   0.29131   0.81849   0.00000  Uiso   1.00
C660   C     0.83508   0.25000   0.83334   0.00000  Uiso   1.00
C661   C     0.54759   0.20875   0.81841   0.00000  Uiso   1.00
C662   C     0.59353   0.29137   0.84809   0.00000  Uiso   1.00
C663   C     0.90648   0.20861   0.84798   0.00000  Uiso   1.00
C664   C     0.90651   0.29142   0.81879   0.00000  Uiso   1.00
C665   C     0.59349   0.20863   0.81872   0.00000  Uiso   1.00
C666   C     0.61670   0.25000   0.83339   0.00000  Uiso   1.00
C667   C     0.88330   0.25001   0.83337   0.00000  Uiso   1.00
C668   C     0.52428   0.25001   0.83343   0.00000  Uiso   1.00
C669   C     0.97572   0.25002   0.83343   0.00000  Uiso   1.00
C670   C     0.80939   0.02952   0.93164   0.00000  Uiso   1.00
C671   C     0.78313   0.10465   0.85620   0.00000  Uiso   1.00
C672   C     0.68034   0.45736   0.93184   0.00000  Uiso   1.00
C673   C     0.68803   0.02081   0.74035   0.00000  Uiso   1.00
C674   C     0.81065   0.47808   0.73881   0.00000  Uiso   1.00
C675   C     0.71723   0.39524   0.85694   0.00000  Uiso   1.00
C676   C     0.71660   0.10459   0.81099   0.00000  Uiso   1.00
C677   C     0.78303   0.39543   0.81041   0.00000  Uiso   1.00
C678   C     0.78358   0.05359   0.85745   0.00000  Uiso   1.00
C679   C     0.71680   0.44651   0.85857   0.00000  Uiso   1.00
C680   C     0.71576   0.05358   0.81038   0.00000  Uiso   1.00
Cu681  Cu    0.75000   0.29822   0.83333   0.00000  Uiso   1.00
Cu682  Cu    0.75000   0.20179   0.83333   0.00000  Uiso   1.00
H683   H     0.80934   0.12450   0.87411   0.00000  Uiso   1.00
H684   H     0.88916   0.17640   0.85978   0.00000  Uiso   1.00
H685   H     0.88920   0.32363   0.80698   0.00000  Uiso   1.00
H686   H     0.61079   0.17644   0.80683   0.00000  Uiso   1.00
H687   H     0.77708   0.01233   0.94034   0.00000  Uiso   1.00
H688   H     0.81072   0.06672   0.94704   0.00000  Uiso   1.00
H689   H     0.83546   0.00799   0.95007   0.00000  Uiso   1.00
H690   H     0.71336   0.45360   0.94953   0.00000  Uiso   1.00
H691   H     0.66124   0.42328   0.93532   0.00000  Uiso   1.00
H692   H     0.66211   0.48565   0.95237   0.00000  Uiso   1.00
H693   H     0.71121   0.48999   0.73640   0.00000  Uiso   1.00
H694   H     0.69122   0.37497   0.87464   0.00000  Uiso   1.00
H695   H     0.70065   0.05316   0.72042   0.00000  Uiso   1.00
H696   H     0.65656   0.01009   0.72257   0.00000  Uiso   1.00
H697   H     0.78678   0.00819   0.73434   0.00000  Uiso   1.00
H698   H     0.79866   0.44501   0.71963   0.00000  Uiso   1.00
H699   H     0.84180   0.48924   0.72064   0.00000  Uiso   1.00
H700   H     0.69018   0.12437   0.79340   0.00000  Uiso   1.00
H701   H     0.80921   0.37568   0.79234   0.00000  Uiso   1.00
H702   H     0.53043   0.32325   0.86102   0.00000  Uiso   1.00
H703   H     0.96958   0.17672   0.86086   0.00000  Uiso   1.00
H704   H     0.96963   0.32332   0.80600   0.00000  Uiso   1.00
H705   H     0.53037   0.17677   0.80584   0.00000  Uiso   1.00
H706   H     0.61085   0.32356   0.85997   0.00000  Uiso   1.00
N707   N     0.75000   0.12935   0.83333   0.00000  Uiso   1.00
N708   N     0.75000   0.37066   0.83333   0.00000  Uiso   1.00
O709   O     0.68573   0.29072   0.83334   0.00000  Uiso   1.00
O710   O     0.68333   0.47168   0.88217   0.00000  Uiso   1.00
O711   O     0.67966   0.03021   0.79038   0.00000  Uiso   1.00
O712   O     0.81941   0.46992   0.78897   0.00000  Uiso   1.00
O713   O     0.81427   0.20929   0.83333   0.00000  Uiso   1.00
O714   O     0.81427   0.29072   0.83333   0.00000  Uiso   1.00
O715   O     0.68573   0.20929   0.83334   0.00000  Uiso   1.00
O716   O     0.75000   0.29071   0.76280   0.00000  Uiso   1.00
O717   O     0.75000   0.20929   0.90387   0.00000  Uiso   1.00
O718   O     0.75000   0.29071   0.90387   0.00000  Uiso   1.00
O719   O     0.75000   0.20929   0.76280   0.00000  Uiso   1.00
O720   O     0.81769   0.02956   0.88067   0.00000  Uiso   1.00
C721   C     0.16492   0.75000   0.83335   0.00000  Uiso   1.00
C722   C     0.28374   0.94641   0.80975   0.00000  Uiso   1.00
C723   C     0.25000   0.75000   0.74016   0.00000  Uiso   1.00
C724   C     0.25000   0.75000   0.92650   0.00000  Uiso   1.00
C725   C     0.24986   0.52724   0.83367   0.00000  Uiso   1.00
C726   C     0.25001   0.97270   0.83375   0.00000  Uiso   1.00
C727   C     0.25000   0.75000   0.68850   0.00000  Uiso   1.00
C728   C     0.25000   0.75000   0.97816   0.00000  Uiso   1.00
C729   C     0.04762   0.79127   0.84845   0.00000  Uiso   1.00
C730   C     0.45239   0.70873   0.84835   0.00000  Uiso   1.00
C731   C     0.45241   0.79131   0.81849   0.00000  Uiso   1.00
C732   C     0.33508   0.75000   0.83334   0.00000  Uiso   1.00
C733   C     0.04759   0.70875   0.81841   0.00000  Uiso   1.00
C734   C     0.09353   0.79137   0.84809   0.00000  Uiso   1.00
C735   C     0.40648   0.70861   0.84798   0.00000  Uiso   1.00
C736   C     0.40651   0.79142   0.81879   0.00000  Uiso   1.00
C737   C     0.09349   0.70863   0.81872   0.00000  Uiso   1.00
C738   C     0.11670   0.75000   0.83339   0.00000  Uiso   1.00
C739   C     0.38330   0.75001   0.83337   0.00000  Uiso   1.00
C740   C     0.02428   0.75001   0.83343   0.00000  Uiso   1.00
C741   C     0.47572   0.75002   0.83343   0.00000  Uiso   1.00
C742   C     0.30939   0.52952   0.93164   0.00000  Uiso   1.00
C743   C     0.28313   0.60465   0.85620   0.00000  Uiso   1.00
C744   C     0.18034   0.95736   0.93184   0.00000  Uiso   1.00
C745   C     0.18803   0.52081   0.74035   0.00000  Uiso   1.00
C746   C     0.31065   0.97808   0.73881   0.00000  Uiso   1.00
C747   C     0.21723   0.89524   0.85694   0.00000  Uiso   1.00
C748   C     0.21660   0.60459   0.81099   0.00000  Uiso   1.00
C749   C     0.28303   0.89543   0.81041   0.00000  Uiso   1.00
C750   C     0.28358   0.55359   0.85745   0.00000  Uiso   1.00
C751   C     0.21680   0.94651   0.85857   0.00000  Uiso   1.00
C752   C     0.21576   0.55358   0.81038   0.00000  Uiso   1.00
Cu753  Cu    0.25000   0.79822   0.83333   0.00000  Uiso   1.00
Cu754  Cu    0.25000   0.70179   0.83333   0.00000  Uiso   1.00
H755   H     0.30934   0.62450   0.87411   0.00000  Uiso   1.00
H756   H     0.38916   0.67640   0.85978   0.00000  Uiso   1.00
H757   H     0.38920   0.82363   0.80698   0.00000  Uiso   1.00
H758   H     0.11079   0.67644   0.80683   0.00000  Uiso   1.00
H759   H     0.27708   0.51233   0.94034   0.00000  Uiso   1.00
H760   H     0.31072   0.56672   0.94704   0.00000  Uiso   1.00
H761   H     0.33546   0.50799   0.95007   0.00000  Uiso   1.00
H762   H     0.21336   0.95360   0.94953   0.00000  Uiso   1.00
H763   H     0.16124   0.92328   0.93532   0.00000  Uiso   1.00
H764   H     0.16211   0.98565   0.95237   0.00000  Uiso   1.00
H765   H     0.21121   0.98999   0.73640   0.00000  Uiso   1.00
H766   H     0.19122   0.87497   0.87464   0.00000  Uiso   1.00
H767   H     0.20065   0.55316   0.72042   0.00000  Uiso   1.00
H768   H     0.15656   0.51009   0.72257   0.00000  Uiso   1.00
H769   H     0.28678   0.50819   0.73434   0.00000  Uiso   1.00
H770   H     0.29866   0.94501   0.71963   0.00000  Uiso   1.00
H771   H     0.34180   0.98924   0.72064   0.00000  Uiso   1.00
H772   H     0.19018   0.62437   0.79340   0.00000  Uiso   1.00
H773   H     0.30921   0.87568   0.79234   0.00000  Uiso   1.00
H774   H     0.03043   0.82325   0.86102   0.00000  Uiso   1.00
H775   H     0.46958   0.67672   0.86086   0.00000  Uiso   1.00
H776   H     0.46963   0.82332   0.80600   0.00000  Uiso   1.00
H777   H     0.03037   0.67677   0.80584   0.00000  Uiso   1.00
H778   H     0.11085   0.82356   0.85997   0.00000  Uiso   1.00
N779   N     0.25000   0.62935   0.83333   0.00000  Uiso   1.00
N780   N     0.25000   0.87066   0.83333   0.00000  Uiso   1.00
O781   O     0.18573   0.79072   0.83334   0.00000  Uiso   1.00
O782   O     0.18333   0.97168   0.88217   0.00000  Uiso   1.00
O783   O     0.17966   0.53021   0.79038   0.00000  Uiso   1.00
O784   O     0.31941   0.96992   0.78897   0.00000  Uiso   1.00
O785   O     0.31427   0.70929   0.83333   0.00000  Uiso   1.00
O786   O     0.31427   0.79072   0.83333   0.00000  Uiso   1.00
O787   O     0.18573   0.70929   0.83334   0.00000  Uiso   1.00
O788   O     0.25000   0.79071   0.76280   0.00000  Uiso   1.00
O789   O     0.25000   0.70929   0.90387   0.00000  Uiso   1.00
O790   O     0.25000   0.79071   0.90387   0.00000  Uiso   1.00
O791   O     0.25000   0.70929   0.76280   0.00000  Uiso   1.00
O792   O     0.31769   0.52956   0.88067   0.00000  Uiso   1.00
C793   C     0.66492   0.75000   0.83335   0.00000  Uiso   1.00
C794   C     0.78374   0.94641   0.80975   0.00000  Uiso   1.00
C795   C     0.75000   0.75000   0.74016   0.00000  Uiso   1.00
C796   C     0.75000   0.75000   0.92650   0.00000  Uiso   1.00
C797   C     0.74986   0.52724   0.83367   0.00000  Uiso   1.00
C798   C     0.75001   0.97270   0.83375   0.00000  Uiso   1.00
C799   C     0.75000   0.75000   0.68850   0.00000  Uiso   1.00
C800   C     0.75000   0.75000   0.97816   0.00000  Uiso   1.00
C801   C     0.54762   0.79127   0.84845   0.00000  Uiso   1.00
C802   C     0.95239   0.70873   0.84835   0.00000  Uiso   1.00
C803   C     0.95241   0.79131   0.81849   0.00000  Uiso   1.00
C804   C     0.83508   0.75000   0.83334   0.00000  Uiso   1.00
C805   C     0.54759   0.70875   0.81841   0.00000  Uiso   1.00
C806   C     0.59353   0.79137   0.84809   0.00000  Uiso   1.00
C807   C     0.90648   0.70861   0.84798   0.00000  Uiso   1.00
C808   C     0.90651   0.79142   0.81879   0.00000  Uiso   1.00
C809   C     0.59349   0.70863   0.81872   0.00000  Uiso   1.00
C810   C     0.61670   0.75000   0.83339   0.00000  Uiso   1.00
C811   C     0.88330   0.75001   0.83337   0.00000  Uiso   1.00
C812   C     0.52428   0.75001   0.83343   0.00000  Uiso   1.00
C813   C     0.97572   0.75002   0.83343   0.00000  Uiso   1.00
C814   C     0.80939   0.52952   0.93164   0.00000  Uiso   1.00
C815   C     0.78313   0.60465   0.85620   0.00000  Uiso   1.00
C816   C     0.68034   0.95736   0.93184   0.00000  Uiso   1.00
C817   C     0.68803   0.52081   0.74035   0.00000  Uiso   1.00
C818   C     0.81065   0.97808   0.73881   0.00000  Uiso   1.00
C819   C     0.71723   0.89524   0.85694   0.00000  Uiso   1.00
C820   C     0.71660   0.60459   0.81099   0.00000  Uiso   1.00
C821   C     0.78303   0.89543   0.81041   0.00000  Uiso   1.00
C822   C     0.78358   0.55359   0.85745   0.00000  Uiso   1.00
C823   C     0.71680   0.94651   0.85857   0.00000  Uiso   1.00
C824   C     0.71576   0.55358   0.81038   0.00000  Uiso   1.00
Cu825  Cu    0.75000   0.79822   0.83333   0.00000  Uiso   1.00
Cu826  Cu    0.75000   0.70179   0.83333   0.00000  Uiso   1.00
H827   H     0.80934   0.62450   0.87411   0.00000  Uiso   1.00
H828   H     0.88916   0.67640   0.85978   0.00000  Uiso   1.00
H829   H     0.88920   0.82363   0.80698   0.00000  Uiso   1.00
H830   H     0.61079   0.67644   0.80683   0.00000  Uiso   1.00
H831   H     0.77708   0.51233   0.94034   0.00000  Uiso   1.00
H832   H     0.81072   0.56672   0.94704   0.00000  Uiso   1.00
H833   H     0.83546   0.50799   0.95007   0.00000  Uiso   1.00
H834   H     0.71336   0.95360   0.94953   0.00000  Uiso   1.00
H835   H     0.66124   0.92328   0.93532   0.00000  Uiso   1.00
H836   H     0.66211   0.98565   0.95237   0.00000  Uiso   1.00
H837   H     0.71121   0.98999   0.73640   0.00000  Uiso   1.00
H838   H     0.69122   0.87497   0.87464   0.00000  Uiso   1.00
H839   H     0.70065   0.55316   0.72042   0.00000  Uiso   1.00
H840   H     0.65656   0.51009   0.72257   0.00000  Uiso   1.00
H841   H     0.78678   0.50819   0.73434   0.00000  Uiso   1.00
H842   H     0.79866   0.94501   0.71963   0.00000  Uiso   1.00
H843   H     0.84180   0.98924   0.72064   0.00000  Uiso   1.00
H844   H     0.69018   0.62437   0.79340   0.00000  Uiso   1.00
H845   H     0.80921   0.87568   0.79234   0.00000  Uiso   1.00
H846   H     0.53043   0.82325   0.86102   0.00000  Uiso   1.00
H847   H     0.96958   0.67672   0.86086   0.00000  Uiso   1.00
H848   H     0.96963   0.82332   0.80600   0.00000  Uiso   1.00
H849   H     0.53037   0.67677   0.80584   0.00000  Uiso   1.00
H850   H     0.61085   0.82356   0.85997   0.00000  Uiso   1.00
N851   N     0.75000   0.62935   0.83333   0.00000  Uiso   1.00
N852   N     0.75000   0.87066   0.83333   0.00000  Uiso   1.00
O853   O     0.68573   0.79072   0.83334   0.00000  Uiso   1.00
O854   O     0.68333   0.97168   0.88217   0.00000  Uiso   1.00
O855   O     0.67966   0.53021   0.79038   0.00000  Uiso   1.00
O856   O     0.81941   0.96992   0.78897   0.00000  Uiso   1.00
O857   O     0.81427   0.70929   0.83333   0.00000  Uiso   1.00
O858   O     0.81427   0.79072   0.83333   0.00000  Uiso   1.00
O859   O     0.68573   0.70929   0.83334   0.00000  Uiso   1.00
O860   O     0.75000   0.79071   0.76280   0.00000  Uiso   1.00
O861   O     0.75000   0.70929   0.90387   0.00000  Uiso   1.00
O862   O     0.75000   0.79071   0.90387   0.00000  Uiso   1.00
O863   O     0.75000   0.70929   0.76280   0.00000  Uiso   1.00
O864   O     0.81769   0.52956   0.88067   0.00000  Uiso   1.00
loop_
_geom_bond_atom_site_label_1
_geom_bond_atom_site_label_2
_geom_bond_distance
_geom_bond_site_symmetry_2
_ccdc_geom_bond_type
C1     C18     1.460   .     S
C1     O67     1.291   .     A
C1     O61     1.291   .     A
C2     C6      1.414   .     A
C2     O64     1.382   .     S
C2     C29     1.412   .     A
C3     O71     1.284   .     A
C3     O68     1.284   .     A
C3     C7      1.406   .     S
C4     C8      1.406   .     S
C4     O70     1.284   .     A
C4     O69     1.284   .     A
C5     C32     1.414   .     A
C5     C30     1.412   .     A
C5     C150    1.510   1_545 S
C6     C31     1.412   .     A
C6     C149    1.510   .     S
C7     C584    1.189   1_554 S
C8     C295    1.189   .     S
C9     C14     1.390   .     A
C9     C20     1.404   .     A
C9     H54     1.083   .     S
C10    H55     1.083   .     S
C10    C21     1.404   .     A
C10    C15     1.390   .     A
C11    H56     1.083   .     S
C11    C16     1.390   .     A
C11    C21     1.404   .     A
C12    O65     1.291   .     A
C12    C19     1.460   .     S
C12    O66     1.291   .     A
C13    C17     1.390   .     A
C13    H57     1.083   .     S
C13    C20     1.404   .     A
C14    C18     1.402   .     A
C14    H58     1.083   .     S
C15    H36     1.083   .     S
C15    C19     1.402   .     A
C16    H37     1.083   .     S
C16    C19     1.402   .     A
C17    C18     1.402   .     A
C17    H38     1.083   .     S
C20    C93     1.470   1_455 S
C21    C92     1.470   .     S
C22    H40     1.113   .     S
C22    H39     1.113   .     S
C22    O72     1.410   .     S
C22    H41     1.109   .     S
C23    N59     1.364   .     A
C23    H35     1.081   .     S
C23    C30     1.414   .     A
C24    H42     1.115   .     S
C24    H44     1.109   .     S
C24    H43     1.110   .     S
C24    O62     1.412   .     S
C25    H48     1.109   .     S
C25    O63     1.409   .     S
C25    H47     1.115   .     S
C25    H189    1.110   1_545 S
C26    O64     1.409   .     S
C26    H51     1.109   .     S
C26    H50     1.115   .     S
C26    H193    1.110   .     S
C27    H46     1.080   .     S
C27    C31     1.420   .     A
C27    N60     1.364   .     A
C28    H52     1.081   .     S
C28    N59     1.365   .     A
C28    C32     1.412   .     A
C29    N60     1.364   .     A
C29    H53     1.082   .     S
C30    O72     1.382   .     S
C31    O62     1.388   .     S
C32    O63     1.382   .     S
Cu33   O68     1.931   .     S
Cu33   Cu34    2.670   .     S
Cu33   O70     1.931   .     S
Cu33   O66     1.957   .     S
Cu33   N60     2.005   .     S
Cu33   O61     1.957   .     S
Cu34   O67     1.957   .     S
Cu34   N59     2.005   .     S
Cu34   O65     1.957   .     S
Cu34   O71     1.931   .     S
Cu34   O69     1.931   .     S
H45    C169    1.110   .     S
H49    C170    1.110   1_545 S
C73    C90     1.460   .     S
C73    O139    1.291   .     A
C73    O133    1.291   .     A
C74    C78     1.414   .     A
C74    O136    1.382   .     S
C74    C101    1.412   .     A
C75    O143    1.284   .     A
C75    O140    1.284   .     A
C75    C79     1.406   .     S
C76    C80     1.406   .     S
C76    O142    1.284   .     A
C76    O141    1.284   .     A
C77    C104    1.414   .     A
C77    C102    1.412   .     A
C77    C222    1.510   1_545 S
C78    C103    1.412   .     A
C78    C221    1.510   .     S
C79    C656    1.189   1_554 S
C80    C367    1.189   .     S
C81    C86     1.390   .     A
C81    C92     1.404   .     A
C81    H126    1.083   .     S
C82    H127    1.083   .     S
C82    C93     1.404   .     A
C82    C87     1.390   .     A
C83    H128    1.083   .     S
C83    C88     1.390   .     A
C83    C93     1.404   .     A
C84    O137    1.291   .     A
C84    C91     1.460   .     S
C84    O138    1.291   .     A
C85    C89     1.390   .     A
C85    H129    1.083   .     S
C85    C92     1.404   .     A
C86    C90     1.402   .     A
C86    H130    1.083   .     S
C87    H108    1.083   .     S
C87    C91     1.402   .     A
C88    H109    1.083   .     S
C88    C91     1.402   .     A
C89    C90     1.402   .     A
C89    H110    1.083   .     S
C93    C20     1.470   1_655 S
C94    H112    1.113   .     S
C94    H111    1.113   .     S
C94    O144    1.410   .     S
C94    H113    1.109   .     S
C95    N131    1.364   .     A
C95    H107    1.081   .     S
C95    C102    1.414   .     A
C96    H114    1.115   .     S
C96    H116    1.109   .     S
C96    H115    1.110   .     S
C96    O134    1.412   .     S
C97    H120    1.109   .     S
C97    O135    1.409   .     S
C97    H119    1.115   .     S
C97    H261    1.110   1_545 S
C98    O136    1.409   .     S
C98    H123    1.109   .     S
C98    H122    1.115   .     S
C98    H265    1.110   .     S
C99    H118    1.080   .     S
C99    C103    1.420   .     A
C99    N132    1.364   .     A
C100   H124    1.081   .     S
C100   N131    1.365   .     A
C100   C104    1.412   .     A
C101   N132    1.364   .     A
C101   H125    1.082   .     S
C102   O144    1.382   .     S
C103   O134    1.388   .     S
C104   O135    1.382   .     S
Cu105  O140    1.931   .     S
Cu105  Cu106   2.670   .     S
Cu105  O142    1.931   .     S
Cu105  O138    1.957   .     S
Cu105  N132    2.005   .     S
Cu105  O133    1.957   .     S
Cu106  O139    1.957   .     S
Cu106  N131    2.005   .     S
Cu106  O137    1.957   .     S
Cu106  O143    1.931   .     S
Cu106  O141    1.931   .     S
H117   C241    1.110   .     S
H121   C242    1.110   1_545 S
C145   C162    1.460   .     S
C145   O211    1.291   .     A
C145   O205    1.291   .     A
C146   C150    1.414   .     A
C146   O208    1.382   .     S
C146   C173    1.412   .     A
C147   O215    1.284   .     A
C147   O212    1.284   .     A
C147   C151    1.406   .     S
C148   C152    1.406   .     S
C148   O214    1.284   .     A
C148   O213    1.284   .     A
C149   C176    1.414   .     A
C149   C174    1.412   .     A
C150   C175    1.412   .     A
C150   C5      1.510   1_565 S
C151   C728    1.189   1_554 S
C152   C439    1.189   .     S
C153   C158    1.390   .     A
C153   C164    1.404   .     A
C153   H198    1.083   .     S
C154   H199    1.083   .     S
C154   C165    1.404   .     A
C154   C159    1.390   .     A
C155   H200    1.083   .     S
C155   C160    1.390   .     A
C155   C165    1.404   .     A
C156   O209    1.291   .     A
C156   C163    1.460   .     S
C156   O210    1.291   .     A
C157   C161    1.390   .     A
C157   H201    1.083   .     S
C157   C164    1.404   .     A
C158   C162    1.402   .     A
C158   H202    1.083   .     S
C159   H180    1.083   .     S
C159   C163    1.402   .     A
C160   H181    1.083   .     S
C160   C163    1.402   .     A
C161   C162    1.402   .     A
C161   H182    1.083   .     S
C164   C237    1.470   1_455 S
C165   C236    1.470   .     S
C166   H184    1.113   .     S
C166   H183    1.113   .     S
C166   O216    1.410   .     S
C166   H185    1.109   .     S
C167   N203    1.364   .     A
C167   H179    1.081   .     S
C167   C174    1.414   .     A
C168   H186    1.115   .     S
C168   H188    1.109   .     S
C168   H187    1.110   .     S
C168   O206    1.412   .     S
C169   H192    1.109   .     S
C169   O207    1.409   .     S
C169   H191    1.115   .     S
C170   O208    1.409   .     S
C170   H195    1.109   .     S
C170   H194    1.115   .     S
C170   H49     1.110   1_565 S
C171   H190    1.080   .     S
C171   C175    1.420   .     A
C171   N204    1.364   .     A
C172   H196    1.081   .     S
C172   N203    1.365   .     A
C172   C176    1.412   .     A
C173   N204    1.364   .     A
C173   H197    1.082   .     S
C174   O216    1.382   .     S
C175   O206    1.388   .     S
C176   O207    1.382   .     S
Cu177  O212    1.931   .     S
Cu177  Cu178   2.670   .     S
Cu177  O214    1.931   .     S
Cu177  O210    1.957   .     S
Cu177  N204    2.005   .     S
Cu177  O205    1.957   .     S
Cu178  O211    1.957   .     S
Cu178  N203    2.005   .     S
Cu178  O209    1.957   .     S
Cu178  O215    1.931   .     S
Cu178  O213    1.931   .     S
H189   C25     1.110   1_565 S
C217   C234    1.460   .     S
C217   O283    1.291   .     A
C217   O277    1.291   .     A
C218   C222    1.414   .     A
C218   O280    1.382   .     S
C218   C245    1.412   .     A
C219   O287    1.284   .     A
C219   O284    1.284   .     A
C219   C223    1.406   .     S
C220   C224    1.406   .     S
C220   O286    1.284   .     A
C220   O285    1.284   .     A
C221   C248    1.414   .     A
C221   C246    1.412   .     A
C222   C247    1.412   .     A
C222   C77     1.510   1_565 S
C223   C800    1.189   1_554 S
C224   C511    1.189   .     S
C225   C230    1.390   .     A
C225   C236    1.404   .     A
C225   H270    1.083   .     S
C226   H271    1.083   .     S
C226   C237    1.404   .     A
C226   C231    1.390   .     A
C227   H272    1.083   .     S
C227   C232    1.390   .     A
C227   C237    1.404   .     A
C228   O281    1.291   .     A
C228   C235    1.460   .     S
C228   O282    1.291   .     A
C229   C233    1.390   .     A
C229   H273    1.083   .     S
C229   C236    1.404   .     A
C230   C234    1.402   .     A
C230   H274    1.083   .     S
C231   H252    1.083   .     S
C231   C235    1.402   .     A
C232   H253    1.083   .     S
C232   C235    1.402   .     A
C233   C234    1.402   .     A
C233   H254    1.083   .     S
C237   C164    1.470   1_655 S
C238   H256    1.113   .     S
C238   H255    1.113   .     S
C238   O288    1.410   .     S
C238   H257    1.109   .     S
C239   N275    1.364   .     A
C239   H251    1.081   .     S
C239   C246    1.414   .     A
C240   H258    1.115   .     S
C240   H260    1.109   .     S
C240   H259    1.110   .     S
C240   O278    1.412   .     S
C241   H264    1.109   .     S
C241   O279    1.409   .     S
C241   H263    1.115   .     S
C242   O280    1.409   .     S
C242   H267    1.109   .     S
C242   H266    1.115   .     S
C242   H121    1.110   1_565 S
C243   H262    1.080   .     S
C243   C247    1.420   .     A
C243   N276    1.364   .     A
C244   H268    1.081   .     S
C244   N275    1.365   .     A
C244   C248    1.412   .     A
C245   N276    1.364   .     A
C245   H269    1.082   .     S
C246   O288    1.382   .     S
C247   O278    1.388   .     S
C248   O279    1.382   .     S
Cu249  O284    1.931   .     S
Cu249  Cu250   2.670   .     S
Cu249  O286    1.931   .     S
Cu249  O282    1.957   .     S
Cu249  N276    2.005   .     S
Cu249  O277    1.957   .     S
Cu250  O283    1.957   .     S
Cu250  N275    2.005   .     S
Cu250  O281    1.957   .     S
Cu250  O287    1.931   .     S
Cu250  O285    1.931   .     S
H261   C97     1.110   1_565 S
C289   C306    1.460   .     S
C289   O355    1.291   .     A
C289   O349    1.291   .     A
C290   C294    1.414   .     A
C290   O352    1.382   .     S
C290   C317    1.412   .     A
C291   O359    1.284   .     A
C291   O356    1.284   .     A
C291   C295    1.406   .     S
C292   C296    1.406   .     S
C292   O358    1.284   .     A
C292   O357    1.284   .     A
C293   C320    1.414   .     A
C293   C318    1.412   .     A
C293   C438    1.510   1_545 S
C294   C319    1.412   .     A
C294   C437    1.510   .     S
C296   C583    1.189   .     S
C297   C302    1.390   .     A
C297   C308    1.404   .     A
C297   H342    1.083   .     S
C298   H343    1.083   .     S
C298   C309    1.404   .     A
C298   C303    1.390   .     A
C299   H344    1.083   .     S
C299   C304    1.390   .     A
C299   C309    1.404   .     A
C300   O353    1.291   .     A
C300   C307    1.460   .     S
C300   O354    1.291   .     A
C301   C305    1.390   .     A
C301   H345    1.083   .     S
C301   C308    1.404   .     A
C302   C306    1.402   .     A
C302   H346    1.083   .     S
C303   H324    1.083   .     S
C303   C307    1.402   .     A
C304   H325    1.083   .     S
C304   C307    1.402   .     A
C305   C306    1.402   .     A
C305   H326    1.083   .     S
C308   C381    1.470   1_455 S
C309   C380    1.470   .     S
C310   H328    1.113   .     S
C310   H327    1.113   .     S
C310   O360    1.410   .     S
C310   H329    1.109   .     S
C311   N347    1.364   .     A
C311   H323    1.081   .     S
C311   C318    1.414   .     A
C312   H330    1.115   .     S
C312   H332    1.109   .     S
C312   H331    1.110   .     S
C312   O350    1.412   .     S
C313   H336    1.109   .     S
C313   O351    1.409   .     S
C313   H335    1.115   .     S
C313   H477    1.110   1_545 S
C314   O352    1.409   .     S
C314   H339    1.109   .     S
C314   H338    1.115   .     S
C314   H481    1.110   .     S
C315   H334    1.080   .     S
C315   C319    1.420   .     A
C315   N348    1.364   .     A
C316   H340    1.081   .     S
C316   N347    1.365   .     A
C316   C320    1.412   .     A
C317   N348    1.364   .     A
C317   H341    1.082   .     S
C318   O360    1.382   .     S
C319   O350    1.388   .     S
C320   O351    1.382   .     S
Cu321  O356    1.931   .     S
Cu321  Cu322   2.670   .     S
Cu321  O358    1.931   .     S
Cu321  O354    1.957   .     S
Cu321  N348    2.005   .     S
Cu321  O349    1.957   .     S
Cu322  O355    1.957   .     S
Cu322  N347    2.005   .     S
Cu322  O353    1.957   .     S
Cu322  O359    1.931   .     S
Cu322  O357    1.931   .     S
H333   C457    1.110   .     S
H337   C458    1.110   1_545 S
C361   C378    1.460   .     S
C361   O427    1.291   .     A
C361   O421    1.291   .     A
C362   C366    1.414   .     A
C362   O424    1.382   .     S
C362   C389    1.412   .     A
C363   O431    1.284   .     A
C363   O428    1.284   .     A
C363   C367    1.406   .     S
C364   C368    1.406   .     S
C364   O430    1.284   .     A
C364   O429    1.284   .     A
C365   C392    1.414   .     A
C365   C390    1.412   .     A
C365   C510    1.510   1_545 S
C366   C391    1.412   .     A
C366   C509    1.510   .     S
C368   C655    1.189   .     S
C369   C374    1.390   .     A
C369   C380    1.404   .     A
C369   H414    1.083   .     S
C370   H415    1.083   .     S
C370   C381    1.404   .     A
C370   C375    1.390   .     A
C371   H416    1.083   .     S
C371   C376    1.390   .     A
C371   C381    1.404   .     A
C372   O425    1.291   .     A
C372   C379    1.460   .     S
C372   O426    1.291   .     A
C373   C377    1.390   .     A
C373   H417    1.083   .     S
C373   C380    1.404   .     A
C374   C378    1.402   .     A
C374   H418    1.083   .     S
C375   H396    1.083   .     S
C375   C379    1.402   .     A
C376   H397    1.083   .     S
C376   C379    1.402   .     A
C377   C378    1.402   .     A
C377   H398    1.083   .     S
C381   C308    1.470   1_655 S
C382   H400    1.113   .     S
C382   H399    1.113   .     S
C382   O432    1.410   .     S
C382   H401    1.109   .     S
C383   N419    1.364   .     A
C383   H395    1.081   .     S
C383   C390    1.414   .     A
C384   H402    1.115   .     S
C384   H404    1.109   .     S
C384   H403    1.110   .     S
C384   O422    1.412   .     S
C385   H408    1.109   .     S
C385   O423    1.409   .     S
C385   H407    1.115   .     S
C385   H549    1.110   1_545 S
C386   O424    1.409   .     S
C386   H411    1.109   .     S
C386   H410    1.115   .     S
C386   H553    1.110   .     S
C387   H406    1.080   .     S
C387   C391    1.420   .     A
C387   N420    1.364   .     A
C388   H412    1.081   .     S
C388   N419    1.365   .     A
C388   C392    1.412   .     A
C389   N420    1.364   .     A
C389   H413    1.082   .     S
C390   O432    1.382   .     S
C391   O422    1.388   .     S
C392   O423    1.382   .     S
Cu393  O428    1.931   .     S
Cu393  Cu394   2.670   .     S
Cu393  O430    1.931   .     S
Cu393  O426    1.957   .     S
Cu393  N420    2.005   .     S
Cu393  O421    1.957   .     S
Cu394  O427    1.957   .     S
Cu394  N419    2.005   .     S
Cu394  O425    1.957   .     S
Cu394  O431    1.931   .     S
Cu394  O429    1.931   .     S
H405   C529    1.110   .     S
H409   C530    1.110   1_545 S
C433   C450    1.460   .     S
C433   O499    1.291   .     A
C433   O493    1.291   .     A
C434   C438    1.414   .     A
C434   O496    1.382   .     S
C434   C461    1.412   .     A
C435   O503    1.284   .     A
C435   O500    1.284   .     A
C435   C439    1.406   .     S
C436   C440    1.406   .     S
C436   O502    1.284   .     A
C436   O501    1.284   .     A
C437   C464    1.414   .     A
C437   C462    1.412   .     A
C438   C463    1.412   .     A
C438   C293    1.510   1_565 S
C440   C727    1.189   .     S
C441   C446    1.390   .     A
C441   C452    1.404   .     A
C441   H486    1.083   .     S
C442   H487    1.083   .     S
C442   C453    1.404   .     A
C442   C447    1.390   .     A
C443   H488    1.083   .     S
C443   C448    1.390   .     A
C443   C453    1.404   .     A
C444   O497    1.291   .     A
C444   C451    1.460   .     S
C444   O498    1.291   .     A
C445   C449    1.390   .     A
C445   H489    1.083   .     S
C445   C452    1.404   .     A
C446   C450    1.402   .     A
C446   H490    1.083   .     S
C447   H468    1.083   .     S
C447   C451    1.402   .     A
C448   H469    1.083   .     S
C448   C451    1.402   .     A
C449   C450    1.402   .     A
C449   H470    1.083   .     S
C452   C525    1.470   1_455 S
C453   C524    1.470   .     S
C454   H472    1.113   .     S
C454   H471    1.113   .     S
C454   O504    1.410   .     S
C454   H473    1.109   .     S
C455   N491    1.364   .     A
C455   H467    1.081   .     S
C455   C462    1.414   .     A
C456   H474    1.115   .     S
C456   H476    1.109   .     S
C456   H475    1.110   .     S
C456   O494    1.412   .     S
C457   H480    1.109   .     S
C457   O495    1.409   .     S
C457   H479    1.115   .     S
C458   O496    1.409   .     S
C458   H483    1.109   .     S
C458   H482    1.115   .     S
C458   H337    1.110   1_565 S
C459   H478    1.080   .     S
C459   C463    1.420   .     A
C459   N492    1.364   .     A
C460   H484    1.081   .     S
C460   N491    1.365   .     A
C460   C464    1.412   .     A
C461   N492    1.364   .     A
C461   H485    1.082   .     S
C462   O504    1.382   .     S
C463   O494    1.388   .     S
C464   O495    1.382   .     S
Cu465  O500    1.931   .     S
Cu465  Cu466   2.670   .     S
Cu465  O502    1.931   .     S
Cu465  O498    1.957   .     S
Cu465  N492    2.005   .     S
Cu465  O493    1.957   .     S
Cu466  O499    1.957   .     S
Cu466  N491    2.005   .     S
Cu466  O497    1.957   .     S
Cu466  O503    1.931   .     S
Cu466  O501    1.931   .     S
H477   C313    1.110   1_565 S
C505   C522    1.460   .     S
C505   O571    1.291   .     A
C505   O565    1.291   .     A
C506   C510    1.414   .     A
C506   O568    1.382   .     S
C506   C533    1.412   .     A
C507   O575    1.284   .     A
C507   O572    1.284   .     A
C507   C511    1.406   .     S
C508   C512    1.406   .     S
C508   O574    1.284   .     A
C508   O573    1.284   .     A
C509   C536    1.414   .     A
C509   C534    1.412   .     A
C510   C535    1.412   .     A
C510   C365    1.510   1_565 S
C512   C799    1.189   .     S
C513   C518    1.390   .     A
C513   C524    1.404   .     A
C513   H558    1.083   .     S
C514   H559    1.083   .     S
C514   C525    1.404   .     A
C514   C519    1.390   .     A
C515   H560    1.083   .     S
C515   C520    1.390   .     A
C515   C525    1.404   .     A
C516   O569    1.291   .     A
C516   C523    1.460   .     S
C516   O570    1.291   .     A
C517   C521    1.390   .     A
C517   H561    1.083   .     S
C517   C524    1.404   .     A
C518   C522    1.402   .     A
C518   H562    1.083   .     S
C519   H540    1.083   .     S
C519   C523    1.402   .     A
C520   H541    1.083   .     S
C520   C523    1.402   .     A
C521   C522    1.402   .     A
C521   H542    1.083   .     S
C525   C452    1.470   1_655 S
C526   H544    1.113   .     S
C526   H543    1.113   .     S
C526   O576    1.410   .     S
C526   H545    1.109   .     S
C527   N563    1.364   .     A
C527   H539    1.081   .     S
C527   C534    1.414   .     A
C528   H546    1.115   .     S
C528   H548    1.109   .     S
C528   H547    1.110   .     S
C528   O566    1.412   .     S
C529   H552    1.109   .     S
C529   O567    1.409   .     S
C529   H551    1.115   .     S
C530   O568    1.409   .     S
C530   H555    1.109   .     S
C530   H554    1.115   .     S
C530   H409    1.110   1_565 S
C531   H550    1.080   .     S
C531   C535    1.420   .     A
C531   N564    1.364   .     A
C532   H556    1.081   .     S
C532   N563    1.365   .     A
C532   C536    1.412   .     A
C533   N564    1.364   .     A
C533   H557    1.082   .     S
C534   O576    1.382   .     S
C535   O566    1.388   .     S
C536   O567    1.382   .     S
Cu537  O572    1.931   .     S
Cu537  Cu538   2.670   .     S
Cu537  O574    1.931   .     S
Cu537  O570    1.957   .     S
Cu537  N564    2.005   .     S
Cu537  O565    1.957   .     S
Cu538  O571    1.957   .     S
Cu538  N563    2.005   .     S
Cu538  O569    1.957   .     S
Cu538  O575    1.931   .     S
Cu538  O573    1.931   .     S
H549   C385    1.110   1_565 S
C577   C594    1.460   .     S
C577   O643    1.291   .     A
C577   O637    1.291   .     A
C578   C582    1.414   .     A
C578   O640    1.382   .     S
C578   C605    1.412   .     A
C579   O647    1.284   .     A
C579   O644    1.284   .     A
C579   C583    1.406   .     S
C580   C584    1.406   .     S
C580   O646    1.284   .     A
C580   O645    1.284   .     A
C581   C608    1.414   .     A
C581   C606    1.412   .     A
C581   C726    1.510   1_545 S
C582   C607    1.412   .     A
C582   C725    1.510   .     S
C584   C7      1.189   1_556 S
C585   C590    1.390   .     A
C585   C596    1.404   .     A
C585   H630    1.083   .     S
C586   H631    1.083   .     S
C586   C597    1.404   .     A
C586   C591    1.390   .     A
C587   H632    1.083   .     S
C587   C592    1.390   .     A
C587   C597    1.404   .     A
C588   O641    1.291   .     A
C588   C595    1.460   .     S
C588   O642    1.291   .     A
C589   C593    1.390   .     A
C589   H633    1.083   .     S
C589   C596    1.404   .     A
C590   C594    1.402   .     A
C590   H634    1.083   .     S
C591   H612    1.083   .     S
C591   C595    1.402   .     A
C592   H613    1.083   .     S
C592   C595    1.402   .     A
C593   C594    1.402   .     A
C593   H614    1.083   .     S
C596   C669    1.470   1_455 S
C597   C668    1.470   .     S
C598   H616    1.113   .     S
C598   H615    1.113   .     S
C598   O648    1.410   .     S
C598   H617    1.109   .     S
C599   N635    1.364   .     A
C599   H611    1.081   .     S
C599   C606    1.414   .     A
C600   H618    1.115   .     S
C600   H620    1.109   .     S
C600   H619    1.110   .     S
C600   O638    1.412   .     S
C601   H624    1.109   .     S
C601   O639    1.409   .     S
C601   H623    1.115   .     S
C601   H765    1.110   1_545 S
C602   O640    1.409   .     S
C602   H627    1.109   .     S
C602   H626    1.115   .     S
C602   H769    1.110   .     S
C603   H622    1.080   .     S
C603   C607    1.420   .     A
C603   N636    1.364   .     A
C604   H628    1.081   .     S
C604   N635    1.365   .     A
C604   C608    1.412   .     A
C605   N636    1.364   .     A
C605   H629    1.082   .     S
C606   O648    1.382   .     S
C607   O638    1.388   .     S
C608   O639    1.382   .     S
Cu609  O644    1.931   .     S
Cu609  Cu610   2.670   .     S
Cu609  O646    1.931   .     S
Cu609  O642    1.957   .     S
Cu609  N636    2.005   .     S
Cu609  O637    1.957   .     S
Cu610  O643    1.957   .     S
Cu610  N635    2.005   .     S
Cu610  O641    1.957   .     S
Cu610  O647    1.931   .     S
Cu610  O645    1.931   .     S
H621   C745    1.110   .     S
H625   C746    1.110   1_545 S
C649   C666    1.460   .     S
C649   O715    1.291   .     A
C649   O709    1.291   .     A
C650   C654    1.414   .     A
C650   O712    1.382   .     S
C650   C677    1.412   .     A
C651   O719    1.284   .     A
C651   O716    1.284   .     A
C651   C655    1.406   .     S
C652   C656    1.406   .     S
C652   O718    1.284   .     A
C652   O717    1.284   .     A
C653   C680    1.414   .     A
C653   C678    1.412   .     A
C653   C798    1.510   1_545 S
C654   C679    1.412   .     A
C654   C797    1.510   .     S
C656   C79     1.189   1_556 S
C657   C662    1.390   .     A
C657   C668    1.404   .     A
C657   H702    1.083   .     S
C658   H703    1.083   .     S
C658   C669    1.404   .     A
C658   C663    1.390   .     A
C659   H704    1.083   .     S
C659   C664    1.390   .     A
C659   C669    1.404   .     A
C660   O713    1.291   .     A
C660   C667    1.460   .     S
C660   O714    1.291   .     A
C661   C665    1.390   .     A
C661   H705    1.083   .     S
C661   C668    1.404   .     A
C662   C666    1.402   .     A
C662   H706    1.083   .     S
C663   H684    1.083   .     S
C663   C667    1.402   .     A
C664   H685    1.083   .     S
C664   C667    1.402   .     A
C665   C666    1.402   .     A
C665   H686    1.083   .     S
C669   C596    1.470   1_655 S
C670   H688    1.113   .     S
C670   H687    1.113   .     S
C670   O720    1.410   .     S
C670   H689    1.109   .     S
C671   N707    1.364   .     A
C671   H683    1.081   .     S
C671   C678    1.414   .     A
C672   H690    1.115   .     S
C672   H692    1.109   .     S
C672   H691    1.110   .     S
C672   O710    1.412   .     S
C673   H696    1.109   .     S
C673   O711    1.409   .     S
C673   H695    1.115   .     S
C673   H837    1.110   1_545 S
C674   O712    1.409   .     S
C674   H699    1.109   .     S
C674   H698    1.115   .     S
C674   H841    1.110   .     S
C675   H694    1.080   .     S
C675   C679    1.420   .     A
C675   N708    1.364   .     A
C676   H700    1.081   .     S
C676   N707    1.365   .     A
C676   C680    1.412   .     A
C677   N708    1.364   .     A
C677   H701    1.082   .     S
C678   O720    1.382   .     S
C679   O710    1.388   .     S
C680   O711    1.382   .     S
Cu681  O716    1.931   .     S
Cu681  Cu682   2.670   .     S
Cu681  O718    1.931   .     S
Cu681  O714    1.957   .     S
Cu681  N708    2.005   .     S
Cu681  O709    1.957   .     S
Cu682  O715    1.957   .     S
Cu682  N707    2.005   .     S
Cu682  O713    1.957   .     S
Cu682  O719    1.931   .     S
Cu682  O717    1.931   .     S
H693   C817    1.110   .     S
H697   C818    1.110   1_545 S
C721   C738    1.460   .     S
C721   O787    1.291   .     A
C721   O781    1.291   .     A
C722   C726    1.414   .     A
C722   O784    1.382   .     S
C722   C749    1.412   .     A
C723   O791    1.284   .     A
C723   O788    1.284   .     A
C723   C727    1.406   .     S
C724   C728    1.406   .     S
C724   O790    1.284   .     A
C724   O789    1.284   .     A
C725   C752    1.414   .     A
C725   C750    1.412   .     A
C726   C751    1.412   .     A
C726   C581    1.510   1_565 S
C728   C151    1.189   1_556 S
C729   C734    1.390   .     A
C729   C740    1.404   .     A
C729   H774    1.083   .     S
C730   H775    1.083   .     S
C730   C741    1.404   .     A
C730   C735    1.390   .     A
C731   H776    1.083   .     S
C731   C736    1.390   .     A
C731   C741    1.404   .     A
C732   O785    1.291   .     A
C732   C739    1.460   .     S
C732   O786    1.291   .     A
C733   C737    1.390   .     A
C733   H777    1.083   .     S
C733   C740    1.404   .     A
C734   C738    1.402   .     A
C734   H778    1.083   .     S
C735   H756    1.083   .     S
C735   C739    1.402   .     A
C736   H757    1.083   .     S
C736   C739    1.402   .     A
C737   C738    1.402   .     A
C737   H758    1.083   .     S
C740   C813    1.470   1_455 S
C741   C812    1.470   .     S
C742   H760    1.113   .     S
C742   H759    1.113   .     S
C742   O792    1.410   .     S
C742   H761    1.109   .     S
C743   N779    1.364   .     A
C743   H755    1.081   .     S
C743   C750    1.414   .     A
C744   H762    1.115   .     S
C744   H764    1.109   .     S
C744   H763    1.110   .     S
C744   O782    1.412   .     S
C745   H768    1.109   .     S
C745   O783    1.409   .     S
C745   H767    1.115   .     S
C746   O784    1.409   .     S
C746   H771    1.109   .     S
C746   H770    1.115   .     S
C746   H625    1.110   1_565 S
C747   H766    1.080   .     S
C747   C751    1.420   .     A
C747   N780    1.364   .     A
C748   H772    1.081   .     S
C748   N779    1.365   .     A
C748   C752    1.412   .     A
C749   N780    1.364   .     A
C749   H773    1.082   .     S
C750   O792    1.382   .     S
C751   O782    1.388   .     S
C752   O783    1.382   .     S
Cu753  O788    1.931   .     S
Cu753  Cu754   2.670   .     S
Cu753  O790    1.931   .     S
Cu753  O786    1.957   .     S
Cu753  N780    2.005   .     S
Cu753  O781    1.957   .     S
Cu754  O787    1.957   .     S
Cu754  N779    2.005   .     S
Cu754  O785    1.957   .     S
Cu754  O791    1.931   .     S
Cu754  O789    1.931   .     S
H765   C601    1.110   1_565 S
C793   C810    1.460   .     S
C793   O859    1.291   .     A
C793   O853    1.291   .     A
C794   C798    1.414   .     A
C794   O856    1.382   .     S
C794   C821    1.412   .     A
C795   O863    1.284   .     A
C795   O860    1.284   .     A
C795   C799    1.406   .     S
C796   C800    1.406   .     S
C796   O862    1.284   .     A
C796   O861    1.284   .     A
C797   C824    1.414   .     A
C797   C822    1.412   .     A
C798   C823    1.412   .     A
C798   C653    1.510   1_565 S
C800   C223    1.189   1_556 S
C801   C806    1.390   .     A
C801   C812    1.404   .     A
C801   H846    1.083   .     S
C802   H847    1.083   .     S
C802   C813    1.404   .     A
C802   C807    1.390   .     A
C803   H848    1.083   .     S
C803   C808    1.390   .     A
C803   C813    1.404   .     A
C804   O857    1.291   .     A
C804   C811    1.460   .     S
C804   O858    1.291   .     A
C805   C809    1.390   .     A
C805   H849    1.083   .     S
C805   C812    1.404   .     A
C806   C810    1.402   .     A
C806   H850    1.083   .     S
C807   H828    1.083   .     S
C807   C811    1.402   .     A
C808   H829    1.083   .     S
C808   C811    1.402   .     A
C809   C810    1.402   .     A
C809   H830    1.083   .     S
C813   C740    1.470   1_655 S
C814   H832    1.113   .     S
C814   H831    1.113   .     S
C814   O864    1.410   .     S
C814   H833    1.109   .     S
C815   N851    1.364   .     A
C815   H827    1.081   .     S
C815   C822    1.414   .     A
C816   H834    1.115   .     S
C816   H836    1.109   .     S
C816   H835    1.110   .     S
C816   O854    1.412   .     S
C817   H840    1.109   .     S
C817   O855    1.409   .     S
C817   H839    1.115   .     S
C818   O856    1.409   .     S
C818   H843    1.109   .     S
C818   H842    1.115   .     S
C818   H697    1.110   1_565 S
C819   H838    1.080   .     S
C819   C823    1.420   .     A
C819   N852    1.364   .     A
C820   H844    1.081   .     S
C820   N851    1.365   .     A
C820   C824    1.412   .     A
C821   N852    1.364   .     A
C821   H845    1.082   .     S
C822   O864    1.382   .     S
C823   O854    1.388   .     S
C824   O855    1.382   .     S
Cu825  O860    1.931   .     S
Cu825  Cu826   2.670   .     S
Cu825  O862    1.931   .     S
Cu825  O858    1.957   .     S
Cu825  N852    2.005   .     S
Cu825  O853    1.957   .     S
Cu826  O859    1.957   .     S
Cu826  N851    2.005   .     S
Cu826  O857    1.957   .     S
Cu826  O863    1.931   .     S
Cu826  O861    1.931   .     S
H837   C673    1.110   1_565 S
