data_str_m3_o1_o16_pcu_sym.31
_audit_creation_date              2020-01-03
_audit_creation_method            'Materials Studio'
_symmetry_space_group_name_H-M    'P1'
_symmetry_Int_Tables_number       1
_symmetry_cell_setting            triclinic
loop_
_symmetry_equiv_pos_as_xyz
  x,y,z
_cell_length_a                    29.5151
_cell_length_b                    32.1583
_cell_length_c                    26.2587
_cell_angle_alpha                 90.0083
_cell_angle_beta                  69.5851
_cell_angle_gamma                 90.0071
loop_
_atom_site_label
_atom_site_type_symbol
_atom_site_fract_x
_atom_site_fract_y
_atom_site_fract_z
_atom_site_U_iso_or_equiv
_atom_site_adp_type
_atom_site_occupancy
C1     C     0.16670   0.24672   0.24996   0.00000  Uiso   1.00
C2     C     0.12171   0.16255   0.41148   0.00000  Uiso   1.00
C3     C     0.21013   0.31206   0.24096   0.00000  Uiso   1.00
C4     C     0.13972   0.16487   0.35224   0.00000  Uiso   1.00
C5     C     0.21009   0.02132   0.24112   0.00000  Uiso   1.00
C6     C     0.16663   0.04248   0.25016   0.00000  Uiso   1.00
C7     C     0.12321   0.02129   0.25911   0.00000  Uiso   1.00
C8     C     0.12324   0.31203   0.25899   0.00000  Uiso   1.00
C9     C     0.16670   0.29087   0.24995   0.00000  Uiso   1.00
C10    C     0.30007   0.13827   0.28004   0.00000  Uiso   1.00
C11    C     0.01464   0.13837   0.28020   0.00000  Uiso   1.00
C12    C     0.14296   0.15903   0.49267   0.00000  Uiso   1.00
C13    C     0.03338   0.19486   0.21963   0.00000  Uiso   1.00
C14    C     0.31874   0.19485   0.21964   0.00000  Uiso   1.00
C15    C     0.16659   0.08662   0.25019   0.00000  Uiso   1.00
C16    C     0.19377   0.16568   0.14753   0.00000  Uiso   1.00
C17    C     0.25771   0.12151   0.00715   0.00000  Uiso   1.00
C18    C     0.21069   0.15892   0.08865   0.00000  Uiso   1.00
C19    C     0.07766   0.18160   0.44106   0.00000  Uiso   1.00
C20    C     0.06518   0.18781   0.49662   0.00000  Uiso   1.00
C21    C     0.09787   0.17771   0.02222   0.00000  Uiso   1.00
C22    C     0.29248   0.12522   0.08109   0.00000  Uiso   1.00
C23    C     0.15167   0.14681   0.43858   0.00000  Uiso   1.00
C24    C     0.28074   0.08503   0.11398   0.00000  Uiso   1.00
C25    C     0.17990   0.15223   0.01459   0.00000  Uiso   1.00
C26    C     0.22114   0.12828   0.48559   0.00000  Uiso   1.00
C27    C     0.22516   0.11101   0.43558   0.00000  Uiso   1.00
C28    C     0.19065   0.11991   0.41246   0.00000  Uiso   1.00
C29    C     0.17743   0.16947   0.06403   0.00000  Uiso   1.00
C30    C     0.25297   0.13618   0.05901   0.00000  Uiso   1.00
H31    H     0.24395   0.03754   0.23386   0.00000  Uiso   1.00
H32    H     0.14844   0.19033   0.08554   0.00000  Uiso   1.00
H33    H     0.05370   0.19298   0.42094   0.00000  Uiso   1.00
H34    H     0.08645   0.18397   0.06522   0.00000  Uiso   1.00
H35    H     0.03095   0.20218   0.01954   0.00000  Uiso   1.00
H36    H     0.19465   0.10545   0.37393   0.00000  Uiso   1.00
H37    H     0.24402   0.29587   0.23358   0.00000  Uiso   1.00
H38    H     0.30818   0.07950   0.13334   0.00000  Uiso   1.00
H39    H     0.24457   0.08679   0.14606   0.00000  Uiso   1.00
H40    H     0.28114   0.05836   0.08694   0.00000  Uiso   1.00
H41    H     0.32732   0.12069   0.04704   0.00000  Uiso   1.00
H42    H     0.08932   0.03749   0.26647   0.00000  Uiso   1.00
H43    H     0.29934   0.15109   0.10534   0.00000  Uiso   1.00
H44    H     0.08938   0.29582   0.26627   0.00000  Uiso   1.00
H45    H     0.27460   0.11542   0.30383   0.00000  Uiso   1.00
H46    H     0.02532   0.11576   0.30436   0.00000  Uiso   1.00
H47    H     0.05909   0.21738   0.19530   0.00000  Uiso   1.00
H48    H     0.30809   0.21735   0.19532   0.00000  Uiso   1.00
H49    H     0.25550   0.09126   0.41377   0.00000  Uiso   1.00
H50    H     0.28929   0.10343   0.48427   0.00000  Uiso   1.00
N51    N     0.04760   0.16668   0.25002   0.00000  Uiso   1.00
N52    N     0.28573   0.16665   0.25001   0.00000  Uiso   1.00
O53    O     0.12846   0.22775   0.25001   0.00000  Uiso   1.00
O54    O     0.20490   0.22774   0.25001   0.00000  Uiso   1.00
O55    O     0.10947   0.16666   0.32681   0.00000  Uiso   1.00
O56    O     0.18591   0.16665   0.32681   0.00000  Uiso   1.00
O57    O     0.12843   0.10559   0.25000   0.00000  Uiso   1.00
O58    O     0.20488   0.10558   0.25000   0.00000  Uiso   1.00
O59    O     0.14742   0.16668   0.17319   0.00000  Uiso   1.00
O60    O     0.22387   0.16667   0.17319   0.00000  Uiso   1.00
Zn61   Zn    0.11562   0.16667   0.25000   0.00000  Uiso   1.00
Zn62   Zn    0.21771   0.16666   0.25000   0.00000  Uiso   1.00
C63    C     0.50003   0.24672   0.24996   0.00000  Uiso   1.00
C64    C     0.45504   0.16255   0.41148   0.00000  Uiso   1.00
C65    C     0.54346   0.31206   0.24096   0.00000  Uiso   1.00
C66    C     0.47305   0.16487   0.35224   0.00000  Uiso   1.00
C67    C     0.54342   0.02132   0.24112   0.00000  Uiso   1.00
C68    C     0.49996   0.04248   0.25016   0.00000  Uiso   1.00
C69    C     0.45654   0.02129   0.25911   0.00000  Uiso   1.00
C70    C     0.45658   0.31203   0.25899   0.00000  Uiso   1.00
C71    C     0.50003   0.29087   0.24995   0.00000  Uiso   1.00
C72    C     0.63340   0.13827   0.28004   0.00000  Uiso   1.00
C73    C     0.34797   0.13837   0.28020   0.00000  Uiso   1.00
C74    C     0.47629   0.15903   0.49267   0.00000  Uiso   1.00
C75    C     0.36672   0.19486   0.21963   0.00000  Uiso   1.00
C76    C     0.65208   0.19485   0.21964   0.00000  Uiso   1.00
C77    C     0.49993   0.08662   0.25019   0.00000  Uiso   1.00
C78    C     0.52710   0.16568   0.14753   0.00000  Uiso   1.00
C79    C     0.59105   0.12151   0.00715   0.00000  Uiso   1.00
C80    C     0.54403   0.15892   0.08865   0.00000  Uiso   1.00
C81    C     0.41099   0.18160   0.44106   0.00000  Uiso   1.00
C82    C     0.39852   0.18781   0.49662   0.00000  Uiso   1.00
C83    C     0.43120   0.17771   0.02222   0.00000  Uiso   1.00
C84    C     0.62581   0.12522   0.08109   0.00000  Uiso   1.00
C85    C     0.48500   0.14681   0.43858   0.00000  Uiso   1.00
C86    C     0.61408   0.08503   0.11398   0.00000  Uiso   1.00
C87    C     0.51324   0.15223   0.01459   0.00000  Uiso   1.00
C88    C     0.55447   0.12828   0.48559   0.00000  Uiso   1.00
C89    C     0.55849   0.11101   0.43558   0.00000  Uiso   1.00
C90    C     0.52398   0.11991   0.41246   0.00000  Uiso   1.00
C91    C     0.51076   0.16947   0.06403   0.00000  Uiso   1.00
C92    C     0.58630   0.13618   0.05901   0.00000  Uiso   1.00
H93    H     0.57729   0.03754   0.23386   0.00000  Uiso   1.00
H94    H     0.48178   0.19033   0.08554   0.00000  Uiso   1.00
H95    H     0.38704   0.19298   0.42094   0.00000  Uiso   1.00
H96    H     0.41979   0.18397   0.06522   0.00000  Uiso   1.00
H97    H     0.36428   0.20218   0.01954   0.00000  Uiso   1.00
H98    H     0.52798   0.10545   0.37393   0.00000  Uiso   1.00
H99    H     0.57736   0.29587   0.23358   0.00000  Uiso   1.00
H100   H     0.64151   0.07950   0.13334   0.00000  Uiso   1.00
H101   H     0.57790   0.08679   0.14606   0.00000  Uiso   1.00
H102   H     0.61448   0.05836   0.08694   0.00000  Uiso   1.00
H103   H     0.66065   0.12069   0.04704   0.00000  Uiso   1.00
H104   H     0.42265   0.03749   0.26647   0.00000  Uiso   1.00
H105   H     0.63268   0.15109   0.10534   0.00000  Uiso   1.00
H106   H     0.42271   0.29582   0.26627   0.00000  Uiso   1.00
H107   H     0.60794   0.11542   0.30383   0.00000  Uiso   1.00
H108   H     0.35865   0.11576   0.30436   0.00000  Uiso   1.00
H109   H     0.39242   0.21738   0.19530   0.00000  Uiso   1.00
H110   H     0.64143   0.21735   0.19532   0.00000  Uiso   1.00
H111   H     0.58884   0.09126   0.41377   0.00000  Uiso   1.00
H112   H     0.62262   0.10343   0.48427   0.00000  Uiso   1.00
N113   N     0.38093   0.16668   0.25002   0.00000  Uiso   1.00
N114   N     0.61906   0.16665   0.25001   0.00000  Uiso   1.00
O115   O     0.46179   0.22775   0.25001   0.00000  Uiso   1.00
O116   O     0.53823   0.22774   0.25001   0.00000  Uiso   1.00
O117   O     0.44280   0.16666   0.32681   0.00000  Uiso   1.00
O118   O     0.51924   0.16665   0.32681   0.00000  Uiso   1.00
O119   O     0.46177   0.10559   0.25000   0.00000  Uiso   1.00
O120   O     0.53821   0.10558   0.25000   0.00000  Uiso   1.00
O121   O     0.48076   0.16668   0.17319   0.00000  Uiso   1.00
O122   O     0.55720   0.16667   0.17319   0.00000  Uiso   1.00
Zn123  Zn    0.44896   0.16667   0.25000   0.00000  Uiso   1.00
Zn124  Zn    0.55104   0.16666   0.25000   0.00000  Uiso   1.00
C125   C     0.83336   0.24672   0.24996   0.00000  Uiso   1.00
C126   C     0.78837   0.16255   0.41148   0.00000  Uiso   1.00
C127   C     0.87680   0.31206   0.24096   0.00000  Uiso   1.00
C128   C     0.80638   0.16487   0.35224   0.00000  Uiso   1.00
C129   C     0.87675   0.02132   0.24112   0.00000  Uiso   1.00
C130   C     0.83329   0.04248   0.25016   0.00000  Uiso   1.00
C131   C     0.78987   0.02129   0.25911   0.00000  Uiso   1.00
C132   C     0.78991   0.31203   0.25899   0.00000  Uiso   1.00
C133   C     0.83337   0.29087   0.24995   0.00000  Uiso   1.00
C134   C     0.96673   0.13827   0.28004   0.00000  Uiso   1.00
C135   C     0.68130   0.13837   0.28020   0.00000  Uiso   1.00
C136   C     0.80962   0.15903   0.49267   0.00000  Uiso   1.00
C137   C     0.70005   0.19486   0.21963   0.00000  Uiso   1.00
C138   C     0.98541   0.19485   0.21964   0.00000  Uiso   1.00
C139   C     0.83326   0.08662   0.25019   0.00000  Uiso   1.00
C140   C     0.86044   0.16568   0.14753   0.00000  Uiso   1.00
C141   C     0.92438   0.12151   0.00715   0.00000  Uiso   1.00
C142   C     0.87736   0.15892   0.08865   0.00000  Uiso   1.00
C143   C     0.74432   0.18160   0.44106   0.00000  Uiso   1.00
C144   C     0.73185   0.18781   0.49662   0.00000  Uiso   1.00
C145   C     0.76453   0.17771   0.02222   0.00000  Uiso   1.00
C146   C     0.95914   0.12522   0.08109   0.00000  Uiso   1.00
C147   C     0.81834   0.14681   0.43858   0.00000  Uiso   1.00
C148   C     0.94741   0.08503   0.11398   0.00000  Uiso   1.00
C149   C     0.84657   0.15223   0.01459   0.00000  Uiso   1.00
C150   C     0.88781   0.12828   0.48559   0.00000  Uiso   1.00
C151   C     0.89183   0.11101   0.43558   0.00000  Uiso   1.00
C152   C     0.85732   0.11991   0.41246   0.00000  Uiso   1.00
C153   C     0.84409   0.16947   0.06403   0.00000  Uiso   1.00
C154   C     0.91964   0.13618   0.05901   0.00000  Uiso   1.00
H155   H     0.91062   0.03754   0.23386   0.00000  Uiso   1.00
H156   H     0.81511   0.19033   0.08554   0.00000  Uiso   1.00
H157   H     0.72037   0.19298   0.42094   0.00000  Uiso   1.00
H158   H     0.75312   0.18397   0.06522   0.00000  Uiso   1.00
H159   H     0.69762   0.20218   0.01954   0.00000  Uiso   1.00
H160   H     0.86131   0.10545   0.37393   0.00000  Uiso   1.00
H161   H     0.91069   0.29587   0.23358   0.00000  Uiso   1.00
H162   H     0.97484   0.07950   0.13334   0.00000  Uiso   1.00
H163   H     0.91123   0.08679   0.14606   0.00000  Uiso   1.00
H164   H     0.94781   0.05836   0.08694   0.00000  Uiso   1.00
H165   H     0.99398   0.12069   0.04704   0.00000  Uiso   1.00
H166   H     0.75598   0.03749   0.26647   0.00000  Uiso   1.00
H167   H     0.96601   0.15109   0.10534   0.00000  Uiso   1.00
H168   H     0.75604   0.29582   0.26627   0.00000  Uiso   1.00
H169   H     0.94127   0.11542   0.30383   0.00000  Uiso   1.00
H170   H     0.69199   0.11576   0.30436   0.00000  Uiso   1.00
H171   H     0.72576   0.21738   0.19530   0.00000  Uiso   1.00
H172   H     0.97476   0.21735   0.19532   0.00000  Uiso   1.00
H173   H     0.92217   0.09126   0.41377   0.00000  Uiso   1.00
H174   H     0.95596   0.10343   0.48427   0.00000  Uiso   1.00
N175   N     0.71426   0.16668   0.25002   0.00000  Uiso   1.00
N176   N     0.95239   0.16665   0.25001   0.00000  Uiso   1.00
O177   O     0.79512   0.22775   0.25001   0.00000  Uiso   1.00
O178   O     0.87157   0.22774   0.25001   0.00000  Uiso   1.00
O179   O     0.77613   0.16666   0.32681   0.00000  Uiso   1.00
O180   O     0.85258   0.16665   0.32681   0.00000  Uiso   1.00
O181   O     0.79510   0.10559   0.25000   0.00000  Uiso   1.00
O182   O     0.87154   0.10558   0.25000   0.00000  Uiso   1.00
O183   O     0.81409   0.16668   0.17319   0.00000  Uiso   1.00
O184   O     0.89053   0.16667   0.17319   0.00000  Uiso   1.00
Zn185  Zn    0.78229   0.16667   0.25000   0.00000  Uiso   1.00
Zn186  Zn    0.88438   0.16666   0.25000   0.00000  Uiso   1.00
C187   C     0.16670   0.58005   0.24996   0.00000  Uiso   1.00
C188   C     0.12171   0.49588   0.41148   0.00000  Uiso   1.00
C189   C     0.21013   0.64539   0.24096   0.00000  Uiso   1.00
C190   C     0.13972   0.49821   0.35224   0.00000  Uiso   1.00
C191   C     0.21009   0.35466   0.24112   0.00000  Uiso   1.00
C192   C     0.16663   0.37581   0.25016   0.00000  Uiso   1.00
C193   C     0.12321   0.35463   0.25911   0.00000  Uiso   1.00
C194   C     0.12324   0.64537   0.25899   0.00000  Uiso   1.00
C195   C     0.16670   0.62420   0.24995   0.00000  Uiso   1.00
C196   C     0.30007   0.47160   0.28004   0.00000  Uiso   1.00
C197   C     0.01464   0.47170   0.28020   0.00000  Uiso   1.00
C198   C     0.14296   0.49236   0.49267   0.00000  Uiso   1.00
C199   C     0.03338   0.52819   0.21963   0.00000  Uiso   1.00
C200   C     0.31874   0.52818   0.21964   0.00000  Uiso   1.00
C201   C     0.16659   0.41995   0.25019   0.00000  Uiso   1.00
C202   C     0.19377   0.49901   0.14753   0.00000  Uiso   1.00
C203   C     0.25771   0.45484   0.00715   0.00000  Uiso   1.00
C204   C     0.21069   0.49226   0.08865   0.00000  Uiso   1.00
C205   C     0.07766   0.51493   0.44106   0.00000  Uiso   1.00
C206   C     0.06518   0.52114   0.49662   0.00000  Uiso   1.00
C207   C     0.09787   0.51104   0.02222   0.00000  Uiso   1.00
C208   C     0.29248   0.45855   0.08109   0.00000  Uiso   1.00
C209   C     0.15167   0.48014   0.43858   0.00000  Uiso   1.00
C210   C     0.28074   0.41836   0.11398   0.00000  Uiso   1.00
C211   C     0.17990   0.48556   0.01459   0.00000  Uiso   1.00
C212   C     0.22114   0.46161   0.48559   0.00000  Uiso   1.00
C213   C     0.22516   0.44434   0.43558   0.00000  Uiso   1.00
C214   C     0.19065   0.45324   0.41246   0.00000  Uiso   1.00
C215   C     0.17743   0.50281   0.06403   0.00000  Uiso   1.00
C216   C     0.25297   0.46952   0.05901   0.00000  Uiso   1.00
H217   H     0.24395   0.37087   0.23386   0.00000  Uiso   1.00
H218   H     0.14844   0.52367   0.08554   0.00000  Uiso   1.00
H219   H     0.05370   0.52632   0.42094   0.00000  Uiso   1.00
H220   H     0.08645   0.51730   0.06522   0.00000  Uiso   1.00
H221   H     0.03095   0.53551   0.01954   0.00000  Uiso   1.00
H222   H     0.19465   0.43879   0.37393   0.00000  Uiso   1.00
H223   H     0.24402   0.62920   0.23358   0.00000  Uiso   1.00
H224   H     0.30818   0.41283   0.13334   0.00000  Uiso   1.00
H225   H     0.24457   0.42013   0.14606   0.00000  Uiso   1.00
H226   H     0.28114   0.39170   0.08694   0.00000  Uiso   1.00
H227   H     0.32732   0.45402   0.04704   0.00000  Uiso   1.00
H228   H     0.08932   0.37082   0.26647   0.00000  Uiso   1.00
H229   H     0.29934   0.48442   0.10534   0.00000  Uiso   1.00
H230   H     0.08938   0.62915   0.26627   0.00000  Uiso   1.00
H231   H     0.27460   0.44876   0.30383   0.00000  Uiso   1.00
H232   H     0.02532   0.44909   0.30436   0.00000  Uiso   1.00
H233   H     0.05909   0.55072   0.19530   0.00000  Uiso   1.00
H234   H     0.30809   0.55068   0.19532   0.00000  Uiso   1.00
H235   H     0.25550   0.42460   0.41377   0.00000  Uiso   1.00
H236   H     0.28929   0.43676   0.48427   0.00000  Uiso   1.00
N237   N     0.04760   0.50001   0.25002   0.00000  Uiso   1.00
N238   N     0.28573   0.49998   0.25001   0.00000  Uiso   1.00
O239   O     0.12846   0.56108   0.25001   0.00000  Uiso   1.00
O240   O     0.20490   0.56107   0.25001   0.00000  Uiso   1.00
O241   O     0.10947   0.50000   0.32681   0.00000  Uiso   1.00
O242   O     0.18591   0.49999   0.32681   0.00000  Uiso   1.00
O243   O     0.12843   0.43893   0.25000   0.00000  Uiso   1.00
O244   O     0.20488   0.43892   0.25000   0.00000  Uiso   1.00
O245   O     0.14742   0.50001   0.17319   0.00000  Uiso   1.00
O246   O     0.22387   0.50000   0.17319   0.00000  Uiso   1.00
Zn247  Zn    0.11562   0.50001   0.25000   0.00000  Uiso   1.00
Zn248  Zn    0.21771   0.49999   0.25000   0.00000  Uiso   1.00
C249   C     0.50003   0.58005   0.24996   0.00000  Uiso   1.00
C250   C     0.45504   0.49588   0.41148   0.00000  Uiso   1.00
C251   C     0.54346   0.64539   0.24096   0.00000  Uiso   1.00
C252   C     0.47305   0.49821   0.35224   0.00000  Uiso   1.00
C253   C     0.54342   0.35466   0.24112   0.00000  Uiso   1.00
C254   C     0.49996   0.37581   0.25016   0.00000  Uiso   1.00
C255   C     0.45654   0.35463   0.25911   0.00000  Uiso   1.00
C256   C     0.45658   0.64537   0.25899   0.00000  Uiso   1.00
C257   C     0.50003   0.62420   0.24995   0.00000  Uiso   1.00
C258   C     0.63340   0.47160   0.28004   0.00000  Uiso   1.00
C259   C     0.34797   0.47170   0.28020   0.00000  Uiso   1.00
C260   C     0.47629   0.49236   0.49267   0.00000  Uiso   1.00
C261   C     0.36672   0.52819   0.21963   0.00000  Uiso   1.00
C262   C     0.65208   0.52818   0.21964   0.00000  Uiso   1.00
C263   C     0.49993   0.41995   0.25019   0.00000  Uiso   1.00
C264   C     0.52710   0.49901   0.14753   0.00000  Uiso   1.00
C265   C     0.59105   0.45484   0.00715   0.00000  Uiso   1.00
C266   C     0.54403   0.49226   0.08865   0.00000  Uiso   1.00
C267   C     0.41099   0.51493   0.44106   0.00000  Uiso   1.00
C268   C     0.39852   0.52114   0.49662   0.00000  Uiso   1.00
C269   C     0.43120   0.51104   0.02222   0.00000  Uiso   1.00
C270   C     0.62581   0.45855   0.08109   0.00000  Uiso   1.00
C271   C     0.48500   0.48014   0.43858   0.00000  Uiso   1.00
C272   C     0.61408   0.41836   0.11398   0.00000  Uiso   1.00
C273   C     0.51324   0.48556   0.01459   0.00000  Uiso   1.00
C274   C     0.55447   0.46161   0.48559   0.00000  Uiso   1.00
C275   C     0.55849   0.44434   0.43558   0.00000  Uiso   1.00
C276   C     0.52398   0.45324   0.41246   0.00000  Uiso   1.00
C277   C     0.51076   0.50281   0.06403   0.00000  Uiso   1.00
C278   C     0.58630   0.46952   0.05901   0.00000  Uiso   1.00
H279   H     0.57729   0.37087   0.23386   0.00000  Uiso   1.00
H280   H     0.48178   0.52367   0.08554   0.00000  Uiso   1.00
H281   H     0.38704   0.52632   0.42094   0.00000  Uiso   1.00
H282   H     0.41979   0.51730   0.06522   0.00000  Uiso   1.00
H283   H     0.36428   0.53551   0.01954   0.00000  Uiso   1.00
H284   H     0.52798   0.43879   0.37393   0.00000  Uiso   1.00
H285   H     0.57736   0.62920   0.23358   0.00000  Uiso   1.00
H286   H     0.64151   0.41283   0.13334   0.00000  Uiso   1.00
H287   H     0.57790   0.42013   0.14606   0.00000  Uiso   1.00
H288   H     0.61448   0.39170   0.08694   0.00000  Uiso   1.00
H289   H     0.66065   0.45402   0.04704   0.00000  Uiso   1.00
H290   H     0.42265   0.37082   0.26647   0.00000  Uiso   1.00
H291   H     0.63268   0.48442   0.10534   0.00000  Uiso   1.00
H292   H     0.42271   0.62915   0.26627   0.00000  Uiso   1.00
H293   H     0.60794   0.44876   0.30383   0.00000  Uiso   1.00
H294   H     0.35865   0.44909   0.30436   0.00000  Uiso   1.00
H295   H     0.39242   0.55072   0.19530   0.00000  Uiso   1.00
H296   H     0.64143   0.55068   0.19532   0.00000  Uiso   1.00
H297   H     0.58884   0.42460   0.41377   0.00000  Uiso   1.00
H298   H     0.62262   0.43676   0.48427   0.00000  Uiso   1.00
N299   N     0.38093   0.50001   0.25002   0.00000  Uiso   1.00
N300   N     0.61906   0.49998   0.25001   0.00000  Uiso   1.00
O301   O     0.46179   0.56108   0.25001   0.00000  Uiso   1.00
O302   O     0.53823   0.56107   0.25001   0.00000  Uiso   1.00
O303   O     0.44280   0.50000   0.32681   0.00000  Uiso   1.00
O304   O     0.51924   0.49999   0.32681   0.00000  Uiso   1.00
O305   O     0.46177   0.43893   0.25000   0.00000  Uiso   1.00
O306   O     0.53821   0.43892   0.25000   0.00000  Uiso   1.00
O307   O     0.48076   0.50001   0.17319   0.00000  Uiso   1.00
O308   O     0.55720   0.50000   0.17319   0.00000  Uiso   1.00
Zn309  Zn    0.44896   0.50001   0.25000   0.00000  Uiso   1.00
Zn310  Zn    0.55104   0.49999   0.25000   0.00000  Uiso   1.00
C311   C     0.83336   0.58005   0.24996   0.00000  Uiso   1.00
C312   C     0.78837   0.49588   0.41148   0.00000  Uiso   1.00
C313   C     0.87680   0.64539   0.24096   0.00000  Uiso   1.00
C314   C     0.80638   0.49821   0.35224   0.00000  Uiso   1.00
C315   C     0.87675   0.35466   0.24112   0.00000  Uiso   1.00
C316   C     0.83329   0.37581   0.25016   0.00000  Uiso   1.00
C317   C     0.78987   0.35463   0.25911   0.00000  Uiso   1.00
C318   C     0.78991   0.64537   0.25899   0.00000  Uiso   1.00
C319   C     0.83337   0.62420   0.24995   0.00000  Uiso   1.00
C320   C     0.96673   0.47160   0.28004   0.00000  Uiso   1.00
C321   C     0.68130   0.47170   0.28020   0.00000  Uiso   1.00
C322   C     0.80962   0.49236   0.49267   0.00000  Uiso   1.00
C323   C     0.70005   0.52819   0.21963   0.00000  Uiso   1.00
C324   C     0.98541   0.52818   0.21964   0.00000  Uiso   1.00
C325   C     0.83326   0.41995   0.25019   0.00000  Uiso   1.00
C326   C     0.86044   0.49901   0.14753   0.00000  Uiso   1.00
C327   C     0.92438   0.45484   0.00715   0.00000  Uiso   1.00
C328   C     0.87736   0.49226   0.08865   0.00000  Uiso   1.00
C329   C     0.74432   0.51493   0.44106   0.00000  Uiso   1.00
C330   C     0.73185   0.52114   0.49662   0.00000  Uiso   1.00
C331   C     0.76453   0.51104   0.02222   0.00000  Uiso   1.00
C332   C     0.95914   0.45855   0.08109   0.00000  Uiso   1.00
C333   C     0.81834   0.48014   0.43858   0.00000  Uiso   1.00
C334   C     0.94741   0.41836   0.11398   0.00000  Uiso   1.00
C335   C     0.84657   0.48556   0.01459   0.00000  Uiso   1.00
C336   C     0.88781   0.46161   0.48559   0.00000  Uiso   1.00
C337   C     0.89183   0.44434   0.43558   0.00000  Uiso   1.00
C338   C     0.85732   0.45324   0.41246   0.00000  Uiso   1.00
C339   C     0.84409   0.50281   0.06403   0.00000  Uiso   1.00
C340   C     0.91964   0.46952   0.05901   0.00000  Uiso   1.00
H341   H     0.91062   0.37087   0.23386   0.00000  Uiso   1.00
H342   H     0.81511   0.52367   0.08554   0.00000  Uiso   1.00
H343   H     0.72037   0.52632   0.42094   0.00000  Uiso   1.00
H344   H     0.75312   0.51730   0.06522   0.00000  Uiso   1.00
H345   H     0.69762   0.53551   0.01954   0.00000  Uiso   1.00
H346   H     0.86131   0.43879   0.37393   0.00000  Uiso   1.00
H347   H     0.91069   0.62920   0.23358   0.00000  Uiso   1.00
H348   H     0.97484   0.41283   0.13334   0.00000  Uiso   1.00
H349   H     0.91123   0.42013   0.14606   0.00000  Uiso   1.00
H350   H     0.94781   0.39170   0.08694   0.00000  Uiso   1.00
H351   H     0.99398   0.45402   0.04704   0.00000  Uiso   1.00
H352   H     0.75598   0.37082   0.26647   0.00000  Uiso   1.00
H353   H     0.96601   0.48442   0.10534   0.00000  Uiso   1.00
H354   H     0.75604   0.62915   0.26627   0.00000  Uiso   1.00
H355   H     0.94127   0.44876   0.30383   0.00000  Uiso   1.00
H356   H     0.69199   0.44909   0.30436   0.00000  Uiso   1.00
H357   H     0.72576   0.55072   0.19530   0.00000  Uiso   1.00
H358   H     0.97476   0.55068   0.19532   0.00000  Uiso   1.00
H359   H     0.92217   0.42460   0.41377   0.00000  Uiso   1.00
H360   H     0.95596   0.43676   0.48427   0.00000  Uiso   1.00
N361   N     0.71426   0.50001   0.25002   0.00000  Uiso   1.00
N362   N     0.95239   0.49998   0.25001   0.00000  Uiso   1.00
O363   O     0.79512   0.56108   0.25001   0.00000  Uiso   1.00
O364   O     0.87157   0.56107   0.25001   0.00000  Uiso   1.00
O365   O     0.77613   0.50000   0.32681   0.00000  Uiso   1.00
O366   O     0.85258   0.49999   0.32681   0.00000  Uiso   1.00
O367   O     0.79510   0.43893   0.25000   0.00000  Uiso   1.00
O368   O     0.87154   0.43892   0.25000   0.00000  Uiso   1.00
O369   O     0.81409   0.50001   0.17319   0.00000  Uiso   1.00
O370   O     0.89053   0.50000   0.17319   0.00000  Uiso   1.00
Zn371  Zn    0.78229   0.50001   0.25000   0.00000  Uiso   1.00
Zn372  Zn    0.88438   0.49999   0.25000   0.00000  Uiso   1.00
C373   C     0.16670   0.91338   0.24996   0.00000  Uiso   1.00
C374   C     0.12171   0.82922   0.41148   0.00000  Uiso   1.00
C375   C     0.21013   0.97873   0.24096   0.00000  Uiso   1.00
C376   C     0.13972   0.83154   0.35224   0.00000  Uiso   1.00
C377   C     0.21009   0.68799   0.24112   0.00000  Uiso   1.00
C378   C     0.16663   0.70915   0.25016   0.00000  Uiso   1.00
C379   C     0.12321   0.68796   0.25911   0.00000  Uiso   1.00
C380   C     0.12324   0.97870   0.25899   0.00000  Uiso   1.00
C381   C     0.16670   0.95754   0.24995   0.00000  Uiso   1.00
C382   C     0.30007   0.80494   0.28004   0.00000  Uiso   1.00
C383   C     0.01464   0.80504   0.28020   0.00000  Uiso   1.00
C384   C     0.14296   0.82569   0.49267   0.00000  Uiso   1.00
C385   C     0.03338   0.86152   0.21963   0.00000  Uiso   1.00
C386   C     0.31874   0.86151   0.21964   0.00000  Uiso   1.00
C387   C     0.16659   0.75329   0.25019   0.00000  Uiso   1.00
C388   C     0.19377   0.83234   0.14753   0.00000  Uiso   1.00
C389   C     0.25771   0.78818   0.00715   0.00000  Uiso   1.00
C390   C     0.21069   0.82559   0.08865   0.00000  Uiso   1.00
C391   C     0.07766   0.84827   0.44106   0.00000  Uiso   1.00
C392   C     0.06518   0.85447   0.49662   0.00000  Uiso   1.00
C393   C     0.09787   0.84437   0.02222   0.00000  Uiso   1.00
C394   C     0.29248   0.79189   0.08109   0.00000  Uiso   1.00
C395   C     0.15167   0.81347   0.43858   0.00000  Uiso   1.00
C396   C     0.28074   0.75170   0.11398   0.00000  Uiso   1.00
C397   C     0.17990   0.81890   0.01459   0.00000  Uiso   1.00
C398   C     0.22114   0.79495   0.48559   0.00000  Uiso   1.00
C399   C     0.22516   0.77767   0.43558   0.00000  Uiso   1.00
C400   C     0.19065   0.78657   0.41246   0.00000  Uiso   1.00
C401   C     0.17743   0.83614   0.06403   0.00000  Uiso   1.00
C402   C     0.25297   0.80285   0.05901   0.00000  Uiso   1.00
H403   H     0.24395   0.70420   0.23386   0.00000  Uiso   1.00
H404   H     0.14844   0.85700   0.08554   0.00000  Uiso   1.00
H405   H     0.05370   0.85965   0.42094   0.00000  Uiso   1.00
H406   H     0.08645   0.85064   0.06522   0.00000  Uiso   1.00
H407   H     0.03095   0.86884   0.01954   0.00000  Uiso   1.00
H408   H     0.19465   0.77212   0.37393   0.00000  Uiso   1.00
H409   H     0.24402   0.96254   0.23358   0.00000  Uiso   1.00
H410   H     0.30818   0.74617   0.13334   0.00000  Uiso   1.00
H411   H     0.24457   0.75346   0.14606   0.00000  Uiso   1.00
H412   H     0.28114   0.72503   0.08694   0.00000  Uiso   1.00
H413   H     0.32732   0.78736   0.04704   0.00000  Uiso   1.00
H414   H     0.08932   0.70415   0.26647   0.00000  Uiso   1.00
H415   H     0.29934   0.81776   0.10534   0.00000  Uiso   1.00
H416   H     0.08938   0.96249   0.26627   0.00000  Uiso   1.00
H417   H     0.27460   0.78209   0.30383   0.00000  Uiso   1.00
H418   H     0.02532   0.78243   0.30436   0.00000  Uiso   1.00
H419   H     0.05909   0.88405   0.19530   0.00000  Uiso   1.00
H420   H     0.30809   0.88402   0.19532   0.00000  Uiso   1.00
H421   H     0.25550   0.75793   0.41377   0.00000  Uiso   1.00
H422   H     0.28929   0.77009   0.48427   0.00000  Uiso   1.00
N423   N     0.04760   0.83334   0.25002   0.00000  Uiso   1.00
N424   N     0.28573   0.83331   0.25001   0.00000  Uiso   1.00
O425   O     0.12846   0.89442   0.25001   0.00000  Uiso   1.00
O426   O     0.20490   0.89441   0.25001   0.00000  Uiso   1.00
O427   O     0.10947   0.83333   0.32681   0.00000  Uiso   1.00
O428   O     0.18591   0.83332   0.32681   0.00000  Uiso   1.00
O429   O     0.12843   0.77226   0.25000   0.00000  Uiso   1.00
O430   O     0.20488   0.77225   0.25000   0.00000  Uiso   1.00
O431   O     0.14742   0.83335   0.17319   0.00000  Uiso   1.00
O432   O     0.22387   0.83334   0.17319   0.00000  Uiso   1.00
Zn433  Zn    0.11562   0.83334   0.25000   0.00000  Uiso   1.00
Zn434  Zn    0.21771   0.83333   0.25000   0.00000  Uiso   1.00
C435   C     0.50003   0.91338   0.24996   0.00000  Uiso   1.00
C436   C     0.45504   0.82922   0.41148   0.00000  Uiso   1.00
C437   C     0.54346   0.97873   0.24096   0.00000  Uiso   1.00
C438   C     0.47305   0.83154   0.35224   0.00000  Uiso   1.00
C439   C     0.54342   0.68799   0.24112   0.00000  Uiso   1.00
C440   C     0.49996   0.70915   0.25016   0.00000  Uiso   1.00
C441   C     0.45654   0.68796   0.25911   0.00000  Uiso   1.00
C442   C     0.45658   0.97870   0.25899   0.00000  Uiso   1.00
C443   C     0.50003   0.95754   0.24995   0.00000  Uiso   1.00
C444   C     0.63340   0.80494   0.28004   0.00000  Uiso   1.00
C445   C     0.34797   0.80504   0.28020   0.00000  Uiso   1.00
C446   C     0.47629   0.82569   0.49267   0.00000  Uiso   1.00
C447   C     0.36672   0.86152   0.21963   0.00000  Uiso   1.00
C448   C     0.65208   0.86151   0.21964   0.00000  Uiso   1.00
C449   C     0.49993   0.75329   0.25019   0.00000  Uiso   1.00
C450   C     0.52710   0.83234   0.14753   0.00000  Uiso   1.00
C451   C     0.59105   0.78818   0.00715   0.00000  Uiso   1.00
C452   C     0.54403   0.82559   0.08865   0.00000  Uiso   1.00
C453   C     0.41099   0.84827   0.44106   0.00000  Uiso   1.00
C454   C     0.39852   0.85447   0.49662   0.00000  Uiso   1.00
C455   C     0.43120   0.84437   0.02222   0.00000  Uiso   1.00
C456   C     0.62581   0.79189   0.08109   0.00000  Uiso   1.00
C457   C     0.48500   0.81347   0.43858   0.00000  Uiso   1.00
C458   C     0.61408   0.75170   0.11398   0.00000  Uiso   1.00
C459   C     0.51324   0.81890   0.01459   0.00000  Uiso   1.00
C460   C     0.55447   0.79495   0.48559   0.00000  Uiso   1.00
C461   C     0.55849   0.77767   0.43558   0.00000  Uiso   1.00
C462   C     0.52398   0.78657   0.41246   0.00000  Uiso   1.00
C463   C     0.51076   0.83614   0.06403   0.00000  Uiso   1.00
C464   C     0.58630   0.80285   0.05901   0.00000  Uiso   1.00
H465   H     0.57729   0.70420   0.23386   0.00000  Uiso   1.00
H466   H     0.48178   0.85700   0.08554   0.00000  Uiso   1.00
H467   H     0.38704   0.85965   0.42094   0.00000  Uiso   1.00
H468   H     0.41979   0.85064   0.06522   0.00000  Uiso   1.00
H469   H     0.36428   0.86884   0.01954   0.00000  Uiso   1.00
H470   H     0.52798   0.77212   0.37393   0.00000  Uiso   1.00
H471   H     0.57736   0.96254   0.23358   0.00000  Uiso   1.00
H472   H     0.64151   0.74617   0.13334   0.00000  Uiso   1.00
H473   H     0.57790   0.75346   0.14606   0.00000  Uiso   1.00
H474   H     0.61448   0.72503   0.08694   0.00000  Uiso   1.00
H475   H     0.66065   0.78736   0.04704   0.00000  Uiso   1.00
H476   H     0.42265   0.70415   0.26647   0.00000  Uiso   1.00
H477   H     0.63268   0.81776   0.10534   0.00000  Uiso   1.00
H478   H     0.42271   0.96249   0.26627   0.00000  Uiso   1.00
H479   H     0.60794   0.78209   0.30383   0.00000  Uiso   1.00
H480   H     0.35865   0.78243   0.30436   0.00000  Uiso   1.00
H481   H     0.39242   0.88405   0.19530   0.00000  Uiso   1.00
H482   H     0.64143   0.88402   0.19532   0.00000  Uiso   1.00
H483   H     0.58884   0.75793   0.41377   0.00000  Uiso   1.00
H484   H     0.62262   0.77009   0.48427   0.00000  Uiso   1.00
N485   N     0.38093   0.83334   0.25002   0.00000  Uiso   1.00
N486   N     0.61906   0.83331   0.25001   0.00000  Uiso   1.00
O487   O     0.46179   0.89442   0.25001   0.00000  Uiso   1.00
O488   O     0.53823   0.89441   0.25001   0.00000  Uiso   1.00
O489   O     0.44280   0.83333   0.32681   0.00000  Uiso   1.00
O490   O     0.51924   0.83332   0.32681   0.00000  Uiso   1.00
O491   O     0.46177   0.77226   0.25000   0.00000  Uiso   1.00
O492   O     0.53821   0.77225   0.25000   0.00000  Uiso   1.00
O493   O     0.48076   0.83335   0.17319   0.00000  Uiso   1.00
O494   O     0.55720   0.83334   0.17319   0.00000  Uiso   1.00
Zn495  Zn    0.44896   0.83334   0.25000   0.00000  Uiso   1.00
Zn496  Zn    0.55104   0.83333   0.25000   0.00000  Uiso   1.00
C497   C     0.83336   0.91338   0.24996   0.00000  Uiso   1.00
C498   C     0.78837   0.82922   0.41148   0.00000  Uiso   1.00
C499   C     0.87680   0.97873   0.24096   0.00000  Uiso   1.00
C500   C     0.80638   0.83154   0.35224   0.00000  Uiso   1.00
C501   C     0.87675   0.68799   0.24112   0.00000  Uiso   1.00
C502   C     0.83329   0.70915   0.25016   0.00000  Uiso   1.00
C503   C     0.78987   0.68796   0.25911   0.00000  Uiso   1.00
C504   C     0.78991   0.97870   0.25899   0.00000  Uiso   1.00
C505   C     0.83337   0.95754   0.24995   0.00000  Uiso   1.00
C506   C     0.96673   0.80494   0.28004   0.00000  Uiso   1.00
C507   C     0.68130   0.80504   0.28020   0.00000  Uiso   1.00
C508   C     0.80962   0.82569   0.49267   0.00000  Uiso   1.00
C509   C     0.70005   0.86152   0.21963   0.00000  Uiso   1.00
C510   C     0.98541   0.86151   0.21964   0.00000  Uiso   1.00
C511   C     0.83326   0.75329   0.25019   0.00000  Uiso   1.00
C512   C     0.86044   0.83234   0.14753   0.00000  Uiso   1.00
C513   C     0.92438   0.78818   0.00715   0.00000  Uiso   1.00
C514   C     0.87736   0.82559   0.08865   0.00000  Uiso   1.00
C515   C     0.74432   0.84827   0.44106   0.00000  Uiso   1.00
C516   C     0.73185   0.85447   0.49662   0.00000  Uiso   1.00
C517   C     0.76453   0.84437   0.02222   0.00000  Uiso   1.00
C518   C     0.95914   0.79189   0.08109   0.00000  Uiso   1.00
C519   C     0.81834   0.81347   0.43858   0.00000  Uiso   1.00
C520   C     0.94741   0.75170   0.11398   0.00000  Uiso   1.00
C521   C     0.84657   0.81890   0.01459   0.00000  Uiso   1.00
C522   C     0.88781   0.79495   0.48559   0.00000  Uiso   1.00
C523   C     0.89183   0.77767   0.43558   0.00000  Uiso   1.00
C524   C     0.85732   0.78657   0.41246   0.00000  Uiso   1.00
C525   C     0.84409   0.83614   0.06403   0.00000  Uiso   1.00
C526   C     0.91964   0.80285   0.05901   0.00000  Uiso   1.00
H527   H     0.91062   0.70420   0.23386   0.00000  Uiso   1.00
H528   H     0.81511   0.85700   0.08554   0.00000  Uiso   1.00
H529   H     0.72037   0.85965   0.42094   0.00000  Uiso   1.00
H530   H     0.75312   0.85064   0.06522   0.00000  Uiso   1.00
H531   H     0.69762   0.86884   0.01954   0.00000  Uiso   1.00
H532   H     0.86131   0.77212   0.37393   0.00000  Uiso   1.00
H533   H     0.91069   0.96254   0.23358   0.00000  Uiso   1.00
H534   H     0.97484   0.74617   0.13334   0.00000  Uiso   1.00
H535   H     0.91123   0.75346   0.14606   0.00000  Uiso   1.00
H536   H     0.94781   0.72503   0.08694   0.00000  Uiso   1.00
H537   H     0.99398   0.78736   0.04704   0.00000  Uiso   1.00
H538   H     0.75598   0.70415   0.26647   0.00000  Uiso   1.00
H539   H     0.96601   0.81776   0.10534   0.00000  Uiso   1.00
H540   H     0.75604   0.96249   0.26627   0.00000  Uiso   1.00
H541   H     0.94127   0.78209   0.30383   0.00000  Uiso   1.00
H542   H     0.69199   0.78243   0.30436   0.00000  Uiso   1.00
H543   H     0.72576   0.88405   0.19530   0.00000  Uiso   1.00
H544   H     0.97476   0.88402   0.19532   0.00000  Uiso   1.00
H545   H     0.92217   0.75793   0.41377   0.00000  Uiso   1.00
H546   H     0.95596   0.77009   0.48427   0.00000  Uiso   1.00
N547   N     0.71426   0.83334   0.25002   0.00000  Uiso   1.00
N548   N     0.95239   0.83331   0.25001   0.00000  Uiso   1.00
O549   O     0.79512   0.89442   0.25001   0.00000  Uiso   1.00
O550   O     0.87157   0.89441   0.25001   0.00000  Uiso   1.00
O551   O     0.77613   0.83333   0.32681   0.00000  Uiso   1.00
O552   O     0.85258   0.83332   0.32681   0.00000  Uiso   1.00
O553   O     0.79510   0.77226   0.25000   0.00000  Uiso   1.00
O554   O     0.87154   0.77225   0.25000   0.00000  Uiso   1.00
O555   O     0.81409   0.83335   0.17319   0.00000  Uiso   1.00
O556   O     0.89053   0.83334   0.17319   0.00000  Uiso   1.00
Zn557  Zn    0.78229   0.83334   0.25000   0.00000  Uiso   1.00
Zn558  Zn    0.88438   0.83333   0.25000   0.00000  Uiso   1.00
C559   C     0.16670   0.24672   0.74996   0.00000  Uiso   1.00
C560   C     0.12171   0.16255   0.91148   0.00000  Uiso   1.00
C561   C     0.21013   0.31206   0.74096   0.00000  Uiso   1.00
C562   C     0.13972   0.16487   0.85224   0.00000  Uiso   1.00
C563   C     0.21009   0.02132   0.74112   0.00000  Uiso   1.00
C564   C     0.16663   0.04248   0.75016   0.00000  Uiso   1.00
C565   C     0.12321   0.02129   0.75911   0.00000  Uiso   1.00
C566   C     0.12324   0.31203   0.75899   0.00000  Uiso   1.00
C567   C     0.16670   0.29087   0.74995   0.00000  Uiso   1.00
C568   C     0.30007   0.13827   0.78004   0.00000  Uiso   1.00
C569   C     0.01464   0.13837   0.78020   0.00000  Uiso   1.00
C570   C     0.14296   0.15903   0.99267   0.00000  Uiso   1.00
C571   C     0.03338   0.19486   0.71963   0.00000  Uiso   1.00
C572   C     0.31874   0.19485   0.71964   0.00000  Uiso   1.00
C573   C     0.16659   0.08662   0.75019   0.00000  Uiso   1.00
C574   C     0.19377   0.16568   0.64753   0.00000  Uiso   1.00
C575   C     0.25771   0.12151   0.50715   0.00000  Uiso   1.00
C576   C     0.21069   0.15892   0.58865   0.00000  Uiso   1.00
C577   C     0.07766   0.18160   0.94106   0.00000  Uiso   1.00
C578   C     0.06518   0.18781   0.99662   0.00000  Uiso   1.00
C579   C     0.09787   0.17771   0.52222   0.00000  Uiso   1.00
C580   C     0.29248   0.12522   0.58109   0.00000  Uiso   1.00
C581   C     0.15167   0.14681   0.93858   0.00000  Uiso   1.00
C582   C     0.28074   0.08503   0.61398   0.00000  Uiso   1.00
C583   C     0.17990   0.15223   0.51459   0.00000  Uiso   1.00
C584   C     0.22114   0.12828   0.98559   0.00000  Uiso   1.00
C585   C     0.22516   0.11101   0.93558   0.00000  Uiso   1.00
C586   C     0.19065   0.11991   0.91246   0.00000  Uiso   1.00
C587   C     0.17743   0.16947   0.56403   0.00000  Uiso   1.00
C588   C     0.25297   0.13618   0.55901   0.00000  Uiso   1.00
H589   H     0.24395   0.03754   0.73386   0.00000  Uiso   1.00
H590   H     0.14844   0.19033   0.58554   0.00000  Uiso   1.00
H591   H     0.05370   0.19298   0.92094   0.00000  Uiso   1.00
H592   H     0.08645   0.18397   0.56522   0.00000  Uiso   1.00
H593   H     0.03095   0.20218   0.51954   0.00000  Uiso   1.00
H594   H     0.19465   0.10545   0.87393   0.00000  Uiso   1.00
H595   H     0.24402   0.29587   0.73358   0.00000  Uiso   1.00
H596   H     0.30818   0.07950   0.63334   0.00000  Uiso   1.00
H597   H     0.24457   0.08679   0.64606   0.00000  Uiso   1.00
H598   H     0.28114   0.05836   0.58694   0.00000  Uiso   1.00
H599   H     0.32732   0.12069   0.54704   0.00000  Uiso   1.00
H600   H     0.08932   0.03749   0.76647   0.00000  Uiso   1.00
H601   H     0.29934   0.15109   0.60534   0.00000  Uiso   1.00
H602   H     0.08938   0.29582   0.76627   0.00000  Uiso   1.00
H603   H     0.27460   0.11542   0.80383   0.00000  Uiso   1.00
H604   H     0.02532   0.11576   0.80436   0.00000  Uiso   1.00
H605   H     0.05909   0.21738   0.69530   0.00000  Uiso   1.00
H606   H     0.30809   0.21735   0.69532   0.00000  Uiso   1.00
H607   H     0.25550   0.09126   0.91377   0.00000  Uiso   1.00
H608   H     0.28929   0.10343   0.98427   0.00000  Uiso   1.00
N609   N     0.04760   0.16668   0.75002   0.00000  Uiso   1.00
N610   N     0.28573   0.16665   0.75001   0.00000  Uiso   1.00
O611   O     0.12846   0.22775   0.75001   0.00000  Uiso   1.00
O612   O     0.20490   0.22774   0.75001   0.00000  Uiso   1.00
O613   O     0.10947   0.16666   0.82681   0.00000  Uiso   1.00
O614   O     0.18591   0.16665   0.82681   0.00000  Uiso   1.00
O615   O     0.12843   0.10559   0.75000   0.00000  Uiso   1.00
O616   O     0.20488   0.10558   0.75000   0.00000  Uiso   1.00
O617   O     0.14742   0.16668   0.67319   0.00000  Uiso   1.00
O618   O     0.22387   0.16667   0.67319   0.00000  Uiso   1.00
Zn619  Zn    0.11562   0.16667   0.75000   0.00000  Uiso   1.00
Zn620  Zn    0.21771   0.16666   0.75000   0.00000  Uiso   1.00
C621   C     0.50003   0.24672   0.74996   0.00000  Uiso   1.00
C622   C     0.45504   0.16255   0.91148   0.00000  Uiso   1.00
C623   C     0.54346   0.31206   0.74096   0.00000  Uiso   1.00
C624   C     0.47305   0.16487   0.85224   0.00000  Uiso   1.00
C625   C     0.54342   0.02132   0.74112   0.00000  Uiso   1.00
C626   C     0.49996   0.04248   0.75016   0.00000  Uiso   1.00
C627   C     0.45654   0.02129   0.75911   0.00000  Uiso   1.00
C628   C     0.45658   0.31203   0.75899   0.00000  Uiso   1.00
C629   C     0.50003   0.29087   0.74995   0.00000  Uiso   1.00
C630   C     0.63340   0.13827   0.78004   0.00000  Uiso   1.00
C631   C     0.34797   0.13837   0.78020   0.00000  Uiso   1.00
C632   C     0.47629   0.15903   0.99267   0.00000  Uiso   1.00
C633   C     0.36672   0.19486   0.71963   0.00000  Uiso   1.00
C634   C     0.65208   0.19485   0.71964   0.00000  Uiso   1.00
C635   C     0.49993   0.08662   0.75019   0.00000  Uiso   1.00
C636   C     0.52710   0.16568   0.64753   0.00000  Uiso   1.00
C637   C     0.59105   0.12151   0.50715   0.00000  Uiso   1.00
C638   C     0.54403   0.15892   0.58865   0.00000  Uiso   1.00
C639   C     0.41099   0.18160   0.94106   0.00000  Uiso   1.00
C640   C     0.39852   0.18781   0.99662   0.00000  Uiso   1.00
C641   C     0.43120   0.17771   0.52222   0.00000  Uiso   1.00
C642   C     0.62581   0.12522   0.58109   0.00000  Uiso   1.00
C643   C     0.48500   0.14681   0.93858   0.00000  Uiso   1.00
C644   C     0.61408   0.08503   0.61398   0.00000  Uiso   1.00
C645   C     0.51324   0.15223   0.51459   0.00000  Uiso   1.00
C646   C     0.55447   0.12828   0.98559   0.00000  Uiso   1.00
C647   C     0.55849   0.11101   0.93558   0.00000  Uiso   1.00
C648   C     0.52398   0.11991   0.91246   0.00000  Uiso   1.00
C649   C     0.51076   0.16947   0.56403   0.00000  Uiso   1.00
C650   C     0.58630   0.13618   0.55901   0.00000  Uiso   1.00
H651   H     0.57729   0.03754   0.73386   0.00000  Uiso   1.00
H652   H     0.48178   0.19033   0.58554   0.00000  Uiso   1.00
H653   H     0.38704   0.19298   0.92094   0.00000  Uiso   1.00
H654   H     0.41979   0.18397   0.56522   0.00000  Uiso   1.00
H655   H     0.36428   0.20218   0.51954   0.00000  Uiso   1.00
H656   H     0.52798   0.10545   0.87393   0.00000  Uiso   1.00
H657   H     0.57736   0.29587   0.73358   0.00000  Uiso   1.00
H658   H     0.64151   0.07950   0.63334   0.00000  Uiso   1.00
H659   H     0.57790   0.08679   0.64606   0.00000  Uiso   1.00
H660   H     0.61448   0.05836   0.58694   0.00000  Uiso   1.00
H661   H     0.66065   0.12069   0.54704   0.00000  Uiso   1.00
H662   H     0.42265   0.03749   0.76647   0.00000  Uiso   1.00
H663   H     0.63268   0.15109   0.60534   0.00000  Uiso   1.00
H664   H     0.42271   0.29582   0.76627   0.00000  Uiso   1.00
H665   H     0.60794   0.11542   0.80383   0.00000  Uiso   1.00
H666   H     0.35865   0.11576   0.80436   0.00000  Uiso   1.00
H667   H     0.39242   0.21738   0.69530   0.00000  Uiso   1.00
H668   H     0.64143   0.21735   0.69532   0.00000  Uiso   1.00
H669   H     0.58884   0.09126   0.91377   0.00000  Uiso   1.00
H670   H     0.62262   0.10343   0.98427   0.00000  Uiso   1.00
N671   N     0.38093   0.16668   0.75002   0.00000  Uiso   1.00
N672   N     0.61906   0.16665   0.75001   0.00000  Uiso   1.00
O673   O     0.46179   0.22775   0.75001   0.00000  Uiso   1.00
O674   O     0.53823   0.22774   0.75001   0.00000  Uiso   1.00
O675   O     0.44280   0.16666   0.82681   0.00000  Uiso   1.00
O676   O     0.51924   0.16665   0.82681   0.00000  Uiso   1.00
O677   O     0.46177   0.10559   0.75000   0.00000  Uiso   1.00
O678   O     0.53821   0.10558   0.75000   0.00000  Uiso   1.00
O679   O     0.48076   0.16668   0.67319   0.00000  Uiso   1.00
O680   O     0.55720   0.16667   0.67319   0.00000  Uiso   1.00
Zn681  Zn    0.44896   0.16667   0.75000   0.00000  Uiso   1.00
Zn682  Zn    0.55104   0.16666   0.75000   0.00000  Uiso   1.00
C683   C     0.83336   0.24672   0.74996   0.00000  Uiso   1.00
C684   C     0.78837   0.16255   0.91148   0.00000  Uiso   1.00
C685   C     0.87680   0.31206   0.74096   0.00000  Uiso   1.00
C686   C     0.80638   0.16487   0.85224   0.00000  Uiso   1.00
C687   C     0.87675   0.02132   0.74112   0.00000  Uiso   1.00
C688   C     0.83329   0.04248   0.75016   0.00000  Uiso   1.00
C689   C     0.78987   0.02129   0.75911   0.00000  Uiso   1.00
C690   C     0.78991   0.31203   0.75899   0.00000  Uiso   1.00
C691   C     0.83337   0.29087   0.74995   0.00000  Uiso   1.00
C692   C     0.96673   0.13827   0.78004   0.00000  Uiso   1.00
C693   C     0.68130   0.13837   0.78020   0.00000  Uiso   1.00
C694   C     0.80962   0.15903   0.99267   0.00000  Uiso   1.00
C695   C     0.70005   0.19486   0.71963   0.00000  Uiso   1.00
C696   C     0.98541   0.19485   0.71964   0.00000  Uiso   1.00
C697   C     0.83326   0.08662   0.75019   0.00000  Uiso   1.00
C698   C     0.86044   0.16568   0.64753   0.00000  Uiso   1.00
C699   C     0.92438   0.12151   0.50715   0.00000  Uiso   1.00
C700   C     0.87736   0.15892   0.58865   0.00000  Uiso   1.00
C701   C     0.74432   0.18160   0.94106   0.00000  Uiso   1.00
C702   C     0.73185   0.18781   0.99662   0.00000  Uiso   1.00
C703   C     0.76453   0.17771   0.52222   0.00000  Uiso   1.00
C704   C     0.95914   0.12522   0.58109   0.00000  Uiso   1.00
C705   C     0.81834   0.14681   0.93858   0.00000  Uiso   1.00
C706   C     0.94741   0.08503   0.61398   0.00000  Uiso   1.00
C707   C     0.84657   0.15223   0.51459   0.00000  Uiso   1.00
C708   C     0.88781   0.12828   0.98559   0.00000  Uiso   1.00
C709   C     0.89183   0.11101   0.93558   0.00000  Uiso   1.00
C710   C     0.85732   0.11991   0.91246   0.00000  Uiso   1.00
C711   C     0.84409   0.16947   0.56403   0.00000  Uiso   1.00
C712   C     0.91964   0.13618   0.55901   0.00000  Uiso   1.00
H713   H     0.91062   0.03754   0.73386   0.00000  Uiso   1.00
H714   H     0.81511   0.19033   0.58554   0.00000  Uiso   1.00
H715   H     0.72037   0.19298   0.92094   0.00000  Uiso   1.00
H716   H     0.75312   0.18397   0.56522   0.00000  Uiso   1.00
H717   H     0.69762   0.20218   0.51954   0.00000  Uiso   1.00
H718   H     0.86131   0.10545   0.87393   0.00000  Uiso   1.00
H719   H     0.91069   0.29587   0.73358   0.00000  Uiso   1.00
H720   H     0.97484   0.07950   0.63334   0.00000  Uiso   1.00
H721   H     0.91123   0.08679   0.64606   0.00000  Uiso   1.00
H722   H     0.94781   0.05836   0.58694   0.00000  Uiso   1.00
H723   H     0.99398   0.12069   0.54704   0.00000  Uiso   1.00
H724   H     0.75598   0.03749   0.76647   0.00000  Uiso   1.00
H725   H     0.96601   0.15109   0.60534   0.00000  Uiso   1.00
H726   H     0.75604   0.29582   0.76627   0.00000  Uiso   1.00
H727   H     0.94127   0.11542   0.80383   0.00000  Uiso   1.00
H728   H     0.69199   0.11576   0.80436   0.00000  Uiso   1.00
H729   H     0.72576   0.21738   0.69530   0.00000  Uiso   1.00
H730   H     0.97476   0.21735   0.69532   0.00000  Uiso   1.00
H731   H     0.92217   0.09126   0.91377   0.00000  Uiso   1.00
H732   H     0.95596   0.10343   0.98427   0.00000  Uiso   1.00
N733   N     0.71426   0.16668   0.75002   0.00000  Uiso   1.00
N734   N     0.95239   0.16665   0.75001   0.00000  Uiso   1.00
O735   O     0.79512   0.22775   0.75001   0.00000  Uiso   1.00
O736   O     0.87157   0.22774   0.75001   0.00000  Uiso   1.00
O737   O     0.77613   0.16666   0.82681   0.00000  Uiso   1.00
O738   O     0.85258   0.16665   0.82681   0.00000  Uiso   1.00
O739   O     0.79510   0.10559   0.75000   0.00000  Uiso   1.00
O740   O     0.87154   0.10558   0.75000   0.00000  Uiso   1.00
O741   O     0.81409   0.16668   0.67319   0.00000  Uiso   1.00
O742   O     0.89053   0.16667   0.67319   0.00000  Uiso   1.00
Zn743  Zn    0.78229   0.16667   0.75000   0.00000  Uiso   1.00
Zn744  Zn    0.88438   0.16666   0.75000   0.00000  Uiso   1.00
C745   C     0.16670   0.58005   0.74996   0.00000  Uiso   1.00
C746   C     0.12171   0.49588   0.91148   0.00000  Uiso   1.00
C747   C     0.21013   0.64539   0.74096   0.00000  Uiso   1.00
C748   C     0.13972   0.49821   0.85224   0.00000  Uiso   1.00
C749   C     0.21009   0.35466   0.74112   0.00000  Uiso   1.00
C750   C     0.16663   0.37581   0.75016   0.00000  Uiso   1.00
C751   C     0.12321   0.35463   0.75911   0.00000  Uiso   1.00
C752   C     0.12324   0.64537   0.75899   0.00000  Uiso   1.00
C753   C     0.16670   0.62420   0.74995   0.00000  Uiso   1.00
C754   C     0.30007   0.47160   0.78004   0.00000  Uiso   1.00
C755   C     0.01464   0.47170   0.78020   0.00000  Uiso   1.00
C756   C     0.14296   0.49236   0.99267   0.00000  Uiso   1.00
C757   C     0.03338   0.52819   0.71963   0.00000  Uiso   1.00
C758   C     0.31874   0.52818   0.71964   0.00000  Uiso   1.00
C759   C     0.16659   0.41995   0.75019   0.00000  Uiso   1.00
C760   C     0.19377   0.49901   0.64753   0.00000  Uiso   1.00
C761   C     0.25771   0.45484   0.50715   0.00000  Uiso   1.00
C762   C     0.21069   0.49226   0.58865   0.00000  Uiso   1.00
C763   C     0.07766   0.51493   0.94106   0.00000  Uiso   1.00
C764   C     0.06518   0.52114   0.99662   0.00000  Uiso   1.00
C765   C     0.09787   0.51104   0.52222   0.00000  Uiso   1.00
C766   C     0.29248   0.45855   0.58109   0.00000  Uiso   1.00
C767   C     0.15167   0.48014   0.93858   0.00000  Uiso   1.00
C768   C     0.28074   0.41836   0.61398   0.00000  Uiso   1.00
C769   C     0.17990   0.48556   0.51459   0.00000  Uiso   1.00
C770   C     0.22114   0.46161   0.98559   0.00000  Uiso   1.00
C771   C     0.22516   0.44434   0.93558   0.00000  Uiso   1.00
C772   C     0.19065   0.45324   0.91246   0.00000  Uiso   1.00
C773   C     0.17743   0.50281   0.56403   0.00000  Uiso   1.00
C774   C     0.25297   0.46952   0.55901   0.00000  Uiso   1.00
H775   H     0.24395   0.37087   0.73386   0.00000  Uiso   1.00
H776   H     0.14844   0.52367   0.58554   0.00000  Uiso   1.00
H777   H     0.05370   0.52632   0.92094   0.00000  Uiso   1.00
H778   H     0.08645   0.51730   0.56522   0.00000  Uiso   1.00
H779   H     0.03095   0.53551   0.51954   0.00000  Uiso   1.00
H780   H     0.19465   0.43879   0.87393   0.00000  Uiso   1.00
H781   H     0.24402   0.62920   0.73358   0.00000  Uiso   1.00
H782   H     0.30818   0.41283   0.63334   0.00000  Uiso   1.00
H783   H     0.24457   0.42013   0.64606   0.00000  Uiso   1.00
H784   H     0.28114   0.39170   0.58694   0.00000  Uiso   1.00
H785   H     0.32732   0.45402   0.54704   0.00000  Uiso   1.00
H786   H     0.08932   0.37082   0.76647   0.00000  Uiso   1.00
H787   H     0.29934   0.48442   0.60534   0.00000  Uiso   1.00
H788   H     0.08938   0.62915   0.76627   0.00000  Uiso   1.00
H789   H     0.27460   0.44876   0.80383   0.00000  Uiso   1.00
H790   H     0.02532   0.44909   0.80436   0.00000  Uiso   1.00
H791   H     0.05909   0.55072   0.69530   0.00000  Uiso   1.00
H792   H     0.30809   0.55068   0.69532   0.00000  Uiso   1.00
H793   H     0.25550   0.42460   0.91377   0.00000  Uiso   1.00
H794   H     0.28929   0.43676   0.98427   0.00000  Uiso   1.00
N795   N     0.04760   0.50001   0.75002   0.00000  Uiso   1.00
N796   N     0.28573   0.49998   0.75001   0.00000  Uiso   1.00
O797   O     0.12846   0.56108   0.75001   0.00000  Uiso   1.00
O798   O     0.20490   0.56107   0.75001   0.00000  Uiso   1.00
O799   O     0.10947   0.50000   0.82681   0.00000  Uiso   1.00
O800   O     0.18591   0.49999   0.82681   0.00000  Uiso   1.00
O801   O     0.12843   0.43893   0.75000   0.00000  Uiso   1.00
O802   O     0.20488   0.43892   0.75000   0.00000  Uiso   1.00
O803   O     0.14742   0.50001   0.67319   0.00000  Uiso   1.00
O804   O     0.22387   0.50000   0.67319   0.00000  Uiso   1.00
Zn805  Zn    0.11562   0.50001   0.75000   0.00000  Uiso   1.00
Zn806  Zn    0.21771   0.49999   0.75000   0.00000  Uiso   1.00
C807   C     0.50003   0.58005   0.74996   0.00000  Uiso   1.00
C808   C     0.45504   0.49588   0.91148   0.00000  Uiso   1.00
C809   C     0.54346   0.64539   0.74096   0.00000  Uiso   1.00
C810   C     0.47305   0.49821   0.85224   0.00000  Uiso   1.00
C811   C     0.54342   0.35466   0.74112   0.00000  Uiso   1.00
C812   C     0.49996   0.37581   0.75016   0.00000  Uiso   1.00
C813   C     0.45654   0.35463   0.75911   0.00000  Uiso   1.00
C814   C     0.45658   0.64537   0.75899   0.00000  Uiso   1.00
C815   C     0.50003   0.62420   0.74995   0.00000  Uiso   1.00
C816   C     0.63340   0.47160   0.78004   0.00000  Uiso   1.00
C817   C     0.34797   0.47170   0.78020   0.00000  Uiso   1.00
C818   C     0.47629   0.49236   0.99267   0.00000  Uiso   1.00
C819   C     0.36672   0.52819   0.71963   0.00000  Uiso   1.00
C820   C     0.65208   0.52818   0.71964   0.00000  Uiso   1.00
C821   C     0.49993   0.41995   0.75019   0.00000  Uiso   1.00
C822   C     0.52710   0.49901   0.64753   0.00000  Uiso   1.00
C823   C     0.59105   0.45484   0.50715   0.00000  Uiso   1.00
C824   C     0.54403   0.49226   0.58865   0.00000  Uiso   1.00
C825   C     0.41099   0.51493   0.94106   0.00000  Uiso   1.00
C826   C     0.39852   0.52114   0.99662   0.00000  Uiso   1.00
C827   C     0.43120   0.51104   0.52222   0.00000  Uiso   1.00
C828   C     0.62581   0.45855   0.58109   0.00000  Uiso   1.00
C829   C     0.48500   0.48014   0.93858   0.00000  Uiso   1.00
C830   C     0.61408   0.41836   0.61398   0.00000  Uiso   1.00
C831   C     0.51324   0.48556   0.51459   0.00000  Uiso   1.00
C832   C     0.55447   0.46161   0.98559   0.00000  Uiso   1.00
C833   C     0.55849   0.44434   0.93558   0.00000  Uiso   1.00
C834   C     0.52398   0.45324   0.91246   0.00000  Uiso   1.00
C835   C     0.51076   0.50281   0.56403   0.00000  Uiso   1.00
C836   C     0.58630   0.46952   0.55901   0.00000  Uiso   1.00
H837   H     0.57729   0.37087   0.73386   0.00000  Uiso   1.00
H838   H     0.48178   0.52367   0.58554   0.00000  Uiso   1.00
H839   H     0.38704   0.52632   0.92094   0.00000  Uiso   1.00
H840   H     0.41979   0.51730   0.56522   0.00000  Uiso   1.00
H841   H     0.36428   0.53551   0.51954   0.00000  Uiso   1.00
H842   H     0.52798   0.43879   0.87393   0.00000  Uiso   1.00
H843   H     0.57736   0.62920   0.73358   0.00000  Uiso   1.00
H844   H     0.64151   0.41283   0.63334   0.00000  Uiso   1.00
H845   H     0.57790   0.42013   0.64606   0.00000  Uiso   1.00
H846   H     0.61448   0.39170   0.58694   0.00000  Uiso   1.00
H847   H     0.66065   0.45402   0.54704   0.00000  Uiso   1.00
H848   H     0.42265   0.37082   0.76647   0.00000  Uiso   1.00
H849   H     0.63268   0.48442   0.60534   0.00000  Uiso   1.00
H850   H     0.42271   0.62915   0.76627   0.00000  Uiso   1.00
H851   H     0.60794   0.44876   0.80383   0.00000  Uiso   1.00
H852   H     0.35865   0.44909   0.80436   0.00000  Uiso   1.00
H853   H     0.39242   0.55072   0.69530   0.00000  Uiso   1.00
H854   H     0.64143   0.55068   0.69532   0.00000  Uiso   1.00
H855   H     0.58884   0.42460   0.91377   0.00000  Uiso   1.00
H856   H     0.62262   0.43676   0.98427   0.00000  Uiso   1.00
N857   N     0.38093   0.50001   0.75002   0.00000  Uiso   1.00
N858   N     0.61906   0.49998   0.75001   0.00000  Uiso   1.00
O859   O     0.46179   0.56108   0.75001   0.00000  Uiso   1.00
O860   O     0.53823   0.56107   0.75001   0.00000  Uiso   1.00
O861   O     0.44280   0.50000   0.82681   0.00000  Uiso   1.00
O862   O     0.51924   0.49999   0.82681   0.00000  Uiso   1.00
O863   O     0.46177   0.43893   0.75000   0.00000  Uiso   1.00
O864   O     0.53821   0.43892   0.75000   0.00000  Uiso   1.00
O865   O     0.48076   0.50001   0.67319   0.00000  Uiso   1.00
O866   O     0.55720   0.50000   0.67319   0.00000  Uiso   1.00
Zn867  Zn    0.44896   0.50001   0.75000   0.00000  Uiso   1.00
Zn868  Zn    0.55104   0.49999   0.75000   0.00000  Uiso   1.00
C869   C     0.83336   0.58005   0.74996   0.00000  Uiso   1.00
C870   C     0.78837   0.49588   0.91148   0.00000  Uiso   1.00
C871   C     0.87680   0.64539   0.74096   0.00000  Uiso   1.00
C872   C     0.80638   0.49821   0.85224   0.00000  Uiso   1.00
C873   C     0.87675   0.35466   0.74112   0.00000  Uiso   1.00
C874   C     0.83329   0.37581   0.75016   0.00000  Uiso   1.00
C875   C     0.78987   0.35463   0.75911   0.00000  Uiso   1.00
C876   C     0.78991   0.64537   0.75899   0.00000  Uiso   1.00
C877   C     0.83337   0.62420   0.74995   0.00000  Uiso   1.00
C878   C     0.96673   0.47160   0.78004   0.00000  Uiso   1.00
C879   C     0.68130   0.47170   0.78020   0.00000  Uiso   1.00
C880   C     0.80962   0.49236   0.99267   0.00000  Uiso   1.00
C881   C     0.70005   0.52819   0.71963   0.00000  Uiso   1.00
C882   C     0.98541   0.52818   0.71964   0.00000  Uiso   1.00
C883   C     0.83326   0.41995   0.75019   0.00000  Uiso   1.00
C884   C     0.86044   0.49901   0.64753   0.00000  Uiso   1.00
C885   C     0.92438   0.45484   0.50715   0.00000  Uiso   1.00
C886   C     0.87736   0.49226   0.58865   0.00000  Uiso   1.00
C887   C     0.74432   0.51493   0.94106   0.00000  Uiso   1.00
C888   C     0.73185   0.52114   0.99662   0.00000  Uiso   1.00
C889   C     0.76453   0.51104   0.52222   0.00000  Uiso   1.00
C890   C     0.95914   0.45855   0.58109   0.00000  Uiso   1.00
C891   C     0.81834   0.48014   0.93858   0.00000  Uiso   1.00
C892   C     0.94741   0.41836   0.61398   0.00000  Uiso   1.00
C893   C     0.84657   0.48556   0.51459   0.00000  Uiso   1.00
C894   C     0.88781   0.46161   0.98559   0.00000  Uiso   1.00
C895   C     0.89183   0.44434   0.93558   0.00000  Uiso   1.00
C896   C     0.85732   0.45324   0.91246   0.00000  Uiso   1.00
C897   C     0.84409   0.50281   0.56403   0.00000  Uiso   1.00
C898   C     0.91964   0.46952   0.55901   0.00000  Uiso   1.00
H899   H     0.91062   0.37087   0.73386   0.00000  Uiso   1.00
H900   H     0.81511   0.52367   0.58554   0.00000  Uiso   1.00
H901   H     0.72037   0.52632   0.92094   0.00000  Uiso   1.00
H902   H     0.75312   0.51730   0.56522   0.00000  Uiso   1.00
H903   H     0.69762   0.53551   0.51954   0.00000  Uiso   1.00
H904   H     0.86131   0.43879   0.87393   0.00000  Uiso   1.00
H905   H     0.91069   0.62920   0.73358   0.00000  Uiso   1.00
H906   H     0.97484   0.41283   0.63334   0.00000  Uiso   1.00
H907   H     0.91123   0.42013   0.64606   0.00000  Uiso   1.00
H908   H     0.94781   0.39170   0.58694   0.00000  Uiso   1.00
H909   H     0.99398   0.45402   0.54704   0.00000  Uiso   1.00
H910   H     0.75598   0.37082   0.76647   0.00000  Uiso   1.00
H911   H     0.96601   0.48442   0.60534   0.00000  Uiso   1.00
H912   H     0.75604   0.62915   0.76627   0.00000  Uiso   1.00
H913   H     0.94127   0.44876   0.80383   0.00000  Uiso   1.00
H914   H     0.69199   0.44909   0.80436   0.00000  Uiso   1.00
H915   H     0.72576   0.55072   0.69530   0.00000  Uiso   1.00
H916   H     0.97476   0.55068   0.69532   0.00000  Uiso   1.00
H917   H     0.92217   0.42460   0.91377   0.00000  Uiso   1.00
H918   H     0.95596   0.43676   0.98427   0.00000  Uiso   1.00
N919   N     0.71426   0.50001   0.75002   0.00000  Uiso   1.00
N920   N     0.95239   0.49998   0.75001   0.00000  Uiso   1.00
O921   O     0.79512   0.56108   0.75001   0.00000  Uiso   1.00
O922   O     0.87157   0.56107   0.75001   0.00000  Uiso   1.00
O923   O     0.77613   0.50000   0.82681   0.00000  Uiso   1.00
O924   O     0.85258   0.49999   0.82681   0.00000  Uiso   1.00
O925   O     0.79510   0.43893   0.75000   0.00000  Uiso   1.00
O926   O     0.87154   0.43892   0.75000   0.00000  Uiso   1.00
O927   O     0.81409   0.50001   0.67319   0.00000  Uiso   1.00
O928   O     0.89053   0.50000   0.67319   0.00000  Uiso   1.00
Zn929  Zn    0.78229   0.50001   0.75000   0.00000  Uiso   1.00
Zn930  Zn    0.88438   0.49999   0.75000   0.00000  Uiso   1.00
C931   C     0.16670   0.91338   0.74996   0.00000  Uiso   1.00
C932   C     0.12171   0.82922   0.91148   0.00000  Uiso   1.00
C933   C     0.21013   0.97873   0.74096   0.00000  Uiso   1.00
C934   C     0.13972   0.83154   0.85224   0.00000  Uiso   1.00
C935   C     0.21009   0.68799   0.74112   0.00000  Uiso   1.00
C936   C     0.16663   0.70915   0.75016   0.00000  Uiso   1.00
C937   C     0.12321   0.68796   0.75911   0.00000  Uiso   1.00
C938   C     0.12324   0.97870   0.75899   0.00000  Uiso   1.00
C939   C     0.16670   0.95754   0.74995   0.00000  Uiso   1.00
C940   C     0.30007   0.80494   0.78004   0.00000  Uiso   1.00
C941   C     0.01464   0.80504   0.78020   0.00000  Uiso   1.00
C942   C     0.14296   0.82569   0.99267   0.00000  Uiso   1.00
C943   C     0.03338   0.86152   0.71963   0.00000  Uiso   1.00
C944   C     0.31874   0.86151   0.71964   0.00000  Uiso   1.00
C945   C     0.16659   0.75329   0.75019   0.00000  Uiso   1.00
C946   C     0.19377   0.83234   0.64753   0.00000  Uiso   1.00
C947   C     0.25771   0.78818   0.50715   0.00000  Uiso   1.00
C948   C     0.21069   0.82559   0.58865   0.00000  Uiso   1.00
C949   C     0.07766   0.84827   0.94106   0.00000  Uiso   1.00
C950   C     0.06518   0.85447   0.99662   0.00000  Uiso   1.00
C951   C     0.09787   0.84437   0.52222   0.00000  Uiso   1.00
C952   C     0.29248   0.79189   0.58109   0.00000  Uiso   1.00
C953   C     0.15167   0.81347   0.93858   0.00000  Uiso   1.00
C954   C     0.28074   0.75170   0.61398   0.00000  Uiso   1.00
C955   C     0.17990   0.81890   0.51459   0.00000  Uiso   1.00
C956   C     0.22114   0.79495   0.98559   0.00000  Uiso   1.00
C957   C     0.22516   0.77767   0.93558   0.00000  Uiso   1.00
C958   C     0.19065   0.78657   0.91246   0.00000  Uiso   1.00
C959   C     0.17743   0.83614   0.56403   0.00000  Uiso   1.00
C960   C     0.25297   0.80285   0.55901   0.00000  Uiso   1.00
H961   H     0.24395   0.70420   0.73386   0.00000  Uiso   1.00
H962   H     0.14844   0.85700   0.58554   0.00000  Uiso   1.00
H963   H     0.05370   0.85965   0.92094   0.00000  Uiso   1.00
H964   H     0.08645   0.85064   0.56522   0.00000  Uiso   1.00
H965   H     0.03095   0.86884   0.51954   0.00000  Uiso   1.00
H966   H     0.19465   0.77212   0.87393   0.00000  Uiso   1.00
H967   H     0.24402   0.96254   0.73358   0.00000  Uiso   1.00
H968   H     0.30818   0.74617   0.63334   0.00000  Uiso   1.00
H969   H     0.24457   0.75346   0.64606   0.00000  Uiso   1.00
H970   H     0.28114   0.72503   0.58694   0.00000  Uiso   1.00
H971   H     0.32732   0.78736   0.54704   0.00000  Uiso   1.00
H972   H     0.08932   0.70415   0.76647   0.00000  Uiso   1.00
H973   H     0.29934   0.81776   0.60534   0.00000  Uiso   1.00
H974   H     0.08938   0.96249   0.76627   0.00000  Uiso   1.00
H975   H     0.27460   0.78209   0.80383   0.00000  Uiso   1.00
H976   H     0.02532   0.78243   0.80436   0.00000  Uiso   1.00
H977   H     0.05909   0.88405   0.69530   0.00000  Uiso   1.00
H978   H     0.30809   0.88402   0.69532   0.00000  Uiso   1.00
H979   H     0.25550   0.75793   0.91377   0.00000  Uiso   1.00
H980   H     0.28929   0.77009   0.98427   0.00000  Uiso   1.00
N981   N     0.04760   0.83334   0.75002   0.00000  Uiso   1.00
N982   N     0.28573   0.83331   0.75001   0.00000  Uiso   1.00
O983   O     0.12846   0.89442   0.75001   0.00000  Uiso   1.00
O984   O     0.20490   0.89441   0.75001   0.00000  Uiso   1.00
O985   O     0.10947   0.83333   0.82681   0.00000  Uiso   1.00
O986   O     0.18591   0.83332   0.82681   0.00000  Uiso   1.00
O987   O     0.12843   0.77226   0.75000   0.00000  Uiso   1.00
O988   O     0.20488   0.77225   0.75000   0.00000  Uiso   1.00
O989   O     0.14742   0.83335   0.67319   0.00000  Uiso   1.00
O990   O     0.22387   0.83334   0.67319   0.00000  Uiso   1.00
Zn991  Zn    0.11562   0.83334   0.75000   0.00000  Uiso   1.00
Zn992  Zn    0.21771   0.83333   0.75000   0.00000  Uiso   1.00
C993   C     0.50003   0.91338   0.74996   0.00000  Uiso   1.00
C994   C     0.45504   0.82922   0.91148   0.00000  Uiso   1.00
C995   C     0.54346   0.97873   0.74096   0.00000  Uiso   1.00
C996   C     0.47305   0.83154   0.85224   0.00000  Uiso   1.00
C997   C     0.54342   0.68799   0.74112   0.00000  Uiso   1.00
C998   C     0.49996   0.70915   0.75016   0.00000  Uiso   1.00
C999   C     0.45654   0.68796   0.75911   0.00000  Uiso   1.00
C1000  C     0.45658   0.97870   0.75899   0.00000  Uiso   1.00
C1001  C     0.50003   0.95754   0.74995   0.00000  Uiso   1.00
C1002  C     0.63340   0.80494   0.78004   0.00000  Uiso   1.00
C1003  C     0.34797   0.80504   0.78020   0.00000  Uiso   1.00
C1004  C     0.47629   0.82569   0.99267   0.00000  Uiso   1.00
C1005  C     0.36672   0.86152   0.71963   0.00000  Uiso   1.00
C1006  C     0.65208   0.86151   0.71964   0.00000  Uiso   1.00
C1007  C     0.49993   0.75329   0.75019   0.00000  Uiso   1.00
C1008  C     0.52710   0.83234   0.64753   0.00000  Uiso   1.00
C1009  C     0.59105   0.78818   0.50715   0.00000  Uiso   1.00
C1010  C     0.54403   0.82559   0.58865   0.00000  Uiso   1.00
C1011  C     0.41099   0.84827   0.94106   0.00000  Uiso   1.00
C1012  C     0.39852   0.85447   0.99662   0.00000  Uiso   1.00
C1013  C     0.43120   0.84437   0.52222   0.00000  Uiso   1.00
C1014  C     0.62581   0.79189   0.58109   0.00000  Uiso   1.00
C1015  C     0.48500   0.81347   0.93858   0.00000  Uiso   1.00
C1016  C     0.61408   0.75170   0.61398   0.00000  Uiso   1.00
C1017  C     0.51324   0.81890   0.51459   0.00000  Uiso   1.00
C1018  C     0.55447   0.79495   0.98559   0.00000  Uiso   1.00
C1019  C     0.55849   0.77767   0.93558   0.00000  Uiso   1.00
C1020  C     0.52398   0.78657   0.91246   0.00000  Uiso   1.00
C1021  C     0.51076   0.83614   0.56403   0.00000  Uiso   1.00
C1022  C     0.58630   0.80285   0.55901   0.00000  Uiso   1.00
H1023  H     0.57729   0.70420   0.73386   0.00000  Uiso   1.00
H1024  H     0.48178   0.85700   0.58554   0.00000  Uiso   1.00
H1025  H     0.38704   0.85965   0.92094   0.00000  Uiso   1.00
H1026  H     0.41979   0.85064   0.56522   0.00000  Uiso   1.00
H1027  H     0.36428   0.86884   0.51954   0.00000  Uiso   1.00
H1028  H     0.52798   0.77212   0.87393   0.00000  Uiso   1.00
H1029  H     0.57736   0.96254   0.73358   0.00000  Uiso   1.00
H1030  H     0.64151   0.74617   0.63334   0.00000  Uiso   1.00
H1031  H     0.57790   0.75346   0.64606   0.00000  Uiso   1.00
H1032  H     0.61448   0.72503   0.58694   0.00000  Uiso   1.00
H1033  H     0.66065   0.78736   0.54704   0.00000  Uiso   1.00
H1034  H     0.42265   0.70415   0.76647   0.00000  Uiso   1.00
H1035  H     0.63268   0.81776   0.60534   0.00000  Uiso   1.00
H1036  H     0.42271   0.96249   0.76627   0.00000  Uiso   1.00
H1037  H     0.60794   0.78209   0.80383   0.00000  Uiso   1.00
H1038  H     0.35865   0.78243   0.80436   0.00000  Uiso   1.00
H1039  H     0.39242   0.88405   0.69530   0.00000  Uiso   1.00
H1040  H     0.64143   0.88402   0.69532   0.00000  Uiso   1.00
H1041  H     0.58884   0.75793   0.91377   0.00000  Uiso   1.00
H1042  H     0.62262   0.77009   0.98427   0.00000  Uiso   1.00
N1043  N     0.38093   0.83334   0.75002   0.00000  Uiso   1.00
N1044  N     0.61906   0.83331   0.75001   0.00000  Uiso   1.00
O1045  O     0.46179   0.89442   0.75001   0.00000  Uiso   1.00
O1046  O     0.53823   0.89441   0.75001   0.00000  Uiso   1.00
O1047  O     0.44280   0.83333   0.82681   0.00000  Uiso   1.00
O1048  O     0.51924   0.83332   0.82681   0.00000  Uiso   1.00
O1049  O     0.46177   0.77226   0.75000   0.00000  Uiso   1.00
O1050  O     0.53821   0.77225   0.75000   0.00000  Uiso   1.00
O1051  O     0.48076   0.83335   0.67319   0.00000  Uiso   1.00
O1052  O     0.55720   0.83334   0.67319   0.00000  Uiso   1.00
Zn1053 Zn    0.44896   0.83334   0.75000   0.00000  Uiso   1.00
Zn1054 Zn    0.55104   0.83333   0.75000   0.00000  Uiso   1.00
C1055  C     0.83336   0.91338   0.74996   0.00000  Uiso   1.00
C1056  C     0.78837   0.82922   0.91148   0.00000  Uiso   1.00
C1057  C     0.87680   0.97873   0.74096   0.00000  Uiso   1.00
C1058  C     0.80638   0.83154   0.85224   0.00000  Uiso   1.00
C1059  C     0.87675   0.68799   0.74112   0.00000  Uiso   1.00
C1060  C     0.83329   0.70915   0.75016   0.00000  Uiso   1.00
C1061  C     0.78987   0.68796   0.75911   0.00000  Uiso   1.00
C1062  C     0.78991   0.97870   0.75899   0.00000  Uiso   1.00
C1063  C     0.83337   0.95754   0.74995   0.00000  Uiso   1.00
C1064  C     0.96673   0.80494   0.78004   0.00000  Uiso   1.00
C1065  C     0.68130   0.80504   0.78020   0.00000  Uiso   1.00
C1066  C     0.80962   0.82569   0.99267   0.00000  Uiso   1.00
C1067  C     0.70005   0.86152   0.71963   0.00000  Uiso   1.00
C1068  C     0.98541   0.86151   0.71964   0.00000  Uiso   1.00
C1069  C     0.83326   0.75329   0.75019   0.00000  Uiso   1.00
C1070  C     0.86044   0.83234   0.64753   0.00000  Uiso   1.00
C1071  C     0.92438   0.78818   0.50715   0.00000  Uiso   1.00
C1072  C     0.87736   0.82559   0.58865   0.00000  Uiso   1.00
C1073  C     0.74432   0.84827   0.94106   0.00000  Uiso   1.00
C1074  C     0.73185   0.85447   0.99662   0.00000  Uiso   1.00
C1075  C     0.76453   0.84437   0.52222   0.00000  Uiso   1.00
C1076  C     0.95914   0.79189   0.58109   0.00000  Uiso   1.00
C1077  C     0.81834   0.81347   0.93858   0.00000  Uiso   1.00
C1078  C     0.94741   0.75170   0.61398   0.00000  Uiso   1.00
C1079  C     0.84657   0.81890   0.51459   0.00000  Uiso   1.00
C1080  C     0.88781   0.79495   0.98559   0.00000  Uiso   1.00
C1081  C     0.89183   0.77767   0.93558   0.00000  Uiso   1.00
C1082  C     0.85732   0.78657   0.91246   0.00000  Uiso   1.00
C1083  C     0.84409   0.83614   0.56403   0.00000  Uiso   1.00
C1084  C     0.91964   0.80285   0.55901   0.00000  Uiso   1.00
H1085  H     0.91062   0.70420   0.73386   0.00000  Uiso   1.00
H1086  H     0.81511   0.85700   0.58554   0.00000  Uiso   1.00
H1087  H     0.72037   0.85965   0.92094   0.00000  Uiso   1.00
H1088  H     0.75312   0.85064   0.56522   0.00000  Uiso   1.00
H1089  H     0.69762   0.86884   0.51954   0.00000  Uiso   1.00
H1090  H     0.86131   0.77212   0.87393   0.00000  Uiso   1.00
H1091  H     0.91069   0.96254   0.73358   0.00000  Uiso   1.00
H1092  H     0.97484   0.74617   0.63334   0.00000  Uiso   1.00
H1093  H     0.91123   0.75346   0.64606   0.00000  Uiso   1.00
H1094  H     0.94781   0.72503   0.58694   0.00000  Uiso   1.00
H1095  H     0.99398   0.78736   0.54704   0.00000  Uiso   1.00
H1096  H     0.75598   0.70415   0.76647   0.00000  Uiso   1.00
H1097  H     0.96601   0.81776   0.60534   0.00000  Uiso   1.00
H1098  H     0.75604   0.96249   0.76627   0.00000  Uiso   1.00
H1099  H     0.94127   0.78209   0.80383   0.00000  Uiso   1.00
H1100  H     0.69199   0.78243   0.80436   0.00000  Uiso   1.00
H1101  H     0.72576   0.88405   0.69530   0.00000  Uiso   1.00
H1102  H     0.97476   0.88402   0.69532   0.00000  Uiso   1.00
H1103  H     0.92217   0.75793   0.91377   0.00000  Uiso   1.00
H1104  H     0.95596   0.77009   0.98427   0.00000  Uiso   1.00
N1105  N     0.71426   0.83334   0.75002   0.00000  Uiso   1.00
N1106  N     0.95239   0.83331   0.75001   0.00000  Uiso   1.00
O1107  O     0.79512   0.89442   0.75001   0.00000  Uiso   1.00
O1108  O     0.87157   0.89441   0.75001   0.00000  Uiso   1.00
O1109  O     0.77613   0.83333   0.82681   0.00000  Uiso   1.00
O1110  O     0.85258   0.83332   0.82681   0.00000  Uiso   1.00
O1111  O     0.79510   0.77226   0.75000   0.00000  Uiso   1.00
O1112  O     0.87154   0.77225   0.75000   0.00000  Uiso   1.00
O1113  O     0.81409   0.83335   0.67319   0.00000  Uiso   1.00
O1114  O     0.89053   0.83334   0.67319   0.00000  Uiso   1.00
Zn1115 Zn    0.78229   0.83334   0.75000   0.00000  Uiso   1.00
Zn1116 Zn    0.88438   0.83333   0.75000   0.00000  Uiso   1.00
loop_
_geom_bond_atom_site_label_1
_geom_bond_atom_site_label_2
_geom_bond_distance
_geom_bond_site_symmetry_2
_ccdc_geom_bond_type
C1     O54     1.283   .     A
C1     C9      1.420   .     S
C1     O53     1.283   .     A
C2     C4      1.460   .     S
C2     C19     1.402   .     A
C2     C23     1.409   .     A
C3     C9      1.397   .     A
C3     H37     1.084   .     S
C3     C191    1.370   .     S
C4     O56     1.293   .     A
C4     O55     1.289   .     A
C5     C6      1.397   .     A
C5     H31     1.084   .     S
C5     C375    1.370   1_545 S
C6     C7      1.397   .     A
C6     C15     1.419   .     S
C7     H42     1.084   .     S
C7     C380    1.370   1_545 S
C8     C9      1.397   .     A
C8     H44     1.084   .     S
C8     C193    1.370   .     S
C10    N52     1.366   .     A
C10    H45     1.080   .     S
C10    C73     1.415   .     S
C11    N51     1.366   .     A
C11    H46     1.082   .     S
C11    C134    1.415   1_455 S
C12    C23     1.408   .     A
C12    C579    1.419   .     S
C12    C583    1.416   .     S
C13    N51     1.367   .     A
C13    H47     1.082   .     S
C13    C138    1.416   1_455 S
C14    H48     1.082   .     S
C14    N52     1.366   .     A
C14    C75     1.416   .     S
C15    O57     1.283   .     A
C15    O58     1.282   .     A
C16    O59     1.297   .     A
C16    C18     1.465   .     S
C16    O60     1.289   .     A
C17    C30     1.401   .     A
C17    C584    1.400   1_554 S
C17    H608    1.085   1_554 S
C18    C29     1.393   .     A
C18    C30     1.421   .     A
C19    C20     1.389   .     A
C19    H33     1.083   .     S
C20    C579    1.393   .     S
C20    H593    1.083   .     S
C21    H34     1.079   .     S
C21    C578    1.393   1_554 S
C21    C570    1.419   1_554 S
C22    C24     1.526   .     S
C22    H41     1.112   .     S
C22    C30     1.514   .     S
C22    H43     1.108   .     S
C23    C28     1.411   .     A
C24    H38     1.110   .     S
C24    H40     1.111   .     S
C24    H39     1.107   .     S
C25    C29     1.390   .     A
C25    C570    1.416   1_554 S
C25    C584    1.417   1_554 S
C26    C27     1.392   .     A
C26    C575    1.400   .     S
C26    C583    1.417   .     S
C27    C28     1.385   .     A
C27    H49     1.084   .     S
C28    H36     1.082   .     S
C29    H32     1.079   .     S
H35    C578    1.083   1_554 S
H50    C575    1.085   .     S
N51    Zn61    2.008   .     S
N52    Zn62    2.008   .     S
O53    Zn61    2.000   .     S
O54    Zn62    2.000   .     S
O55    Zn61    1.961   .     S
O56    Zn62    1.905   .     S
O57    Zn61    2.000   .     S
O58    Zn62    2.000   .     S
O59    Zn61    1.905   .     S
O60    Zn62    1.961   .     S
C63    O116    1.283   .     A
C63    C71     1.420   .     S
C63    O115    1.283   .     A
C64    C66     1.460   .     S
C64    C81     1.402   .     A
C64    C85     1.409   .     A
C65    C71     1.397   .     A
C65    H99     1.084   .     S
C65    C253    1.370   .     S
C66    O118    1.293   .     A
C66    O117    1.289   .     A
C67    C68     1.397   .     A
C67    H93     1.084   .     S
C67    C437    1.370   1_545 S
C68    C69     1.397   .     A
C68    C77     1.419   .     S
C69    H104    1.084   .     S
C69    C442    1.370   1_545 S
C70    C71     1.397   .     A
C70    H106    1.084   .     S
C70    C255    1.370   .     S
C72    N114    1.366   .     A
C72    H107    1.080   .     S
C72    C135    1.415   .     S
C73    N113    1.366   .     A
C73    H108    1.082   .     S
C74    C85     1.408   .     A
C74    C641    1.419   .     S
C74    C645    1.416   .     S
C75    N113    1.367   .     A
C75    H109    1.082   .     S
C76    H110    1.082   .     S
C76    N114    1.366   .     A
C76    C137    1.416   .     S
C77    O119    1.283   .     A
C77    O120    1.282   .     A
C78    O121    1.297   .     A
C78    C80     1.465   .     S
C78    O122    1.289   .     A
C79    C92     1.401   .     A
C79    C646    1.400   1_554 S
C79    H670    1.085   1_554 S
C80    C91     1.393   .     A
C80    C92     1.421   .     A
C81    C82     1.389   .     A
C81    H95     1.083   .     S
C82    C641    1.393   .     S
C82    H655    1.083   .     S
C83    H96     1.079   .     S
C83    C640    1.393   1_554 S
C83    C632    1.419   1_554 S
C84    C86     1.526   .     S
C84    H103    1.112   .     S
C84    C92     1.514   .     S
C84    H105    1.108   .     S
C85    C90     1.411   .     A
C86    H100    1.110   .     S
C86    H102    1.111   .     S
C86    H101    1.107   .     S
C87    C91     1.390   .     A
C87    C632    1.416   1_554 S
C87    C646    1.417   1_554 S
C88    C89     1.392   .     A
C88    C637    1.400   .     S
C88    C645    1.417   .     S
C89    C90     1.385   .     A
C89    H111    1.084   .     S
C90    H98     1.082   .     S
C91    H94     1.079   .     S
H97    C640    1.083   1_554 S
H112   C637    1.085   .     S
N113   Zn123   2.008   .     S
N114   Zn124   2.008   .     S
O115   Zn123   2.000   .     S
O116   Zn124   2.000   .     S
O117   Zn123   1.961   .     S
O118   Zn124   1.905   .     S
O119   Zn123   2.000   .     S
O120   Zn124   2.000   .     S
O121   Zn123   1.905   .     S
O122   Zn124   1.961   .     S
C125   O178    1.283   .     A
C125   C133    1.420   .     S
C125   O177    1.283   .     A
C126   C128    1.460   .     S
C126   C143    1.402   .     A
C126   C147    1.409   .     A
C127   C133    1.397   .     A
C127   H161    1.084   .     S
C127   C315    1.370   .     S
C128   O180    1.293   .     A
C128   O179    1.289   .     A
C129   C130    1.397   .     A
C129   H155    1.084   .     S
C129   C499    1.370   1_545 S
C130   C131    1.397   .     A
C130   C139    1.419   .     S
C131   H166    1.084   .     S
C131   C504    1.370   1_545 S
C132   C133    1.397   .     A
C132   H168    1.084   .     S
C132   C317    1.370   .     S
C134   N176    1.366   .     A
C134   H169    1.080   .     S
C134   C11     1.415   1_655 S
C135   N175    1.366   .     A
C135   H170    1.082   .     S
C136   C147    1.408   .     A
C136   C703    1.419   .     S
C136   C707    1.416   .     S
C137   N175    1.367   .     A
C137   H171    1.082   .     S
C138   H172    1.082   .     S
C138   N176    1.366   .     A
C138   C13     1.416   1_655 S
C139   O181    1.283   .     A
C139   O182    1.282   .     A
C140   O183    1.297   .     A
C140   C142    1.465   .     S
C140   O184    1.289   .     A
C141   C154    1.401   .     A
C141   C708    1.400   1_554 S
C141   H732    1.085   1_554 S
C142   C153    1.393   .     A
C142   C154    1.421   .     A
C143   C144    1.389   .     A
C143   H157    1.083   .     S
C144   C703    1.393   .     S
C144   H717    1.083   .     S
C145   H158    1.079   .     S
C145   C702    1.393   1_554 S
C145   C694    1.419   1_554 S
C146   C148    1.526   .     S
C146   H165    1.112   .     S
C146   C154    1.514   .     S
C146   H167    1.108   .     S
C147   C152    1.411   .     A
C148   H162    1.110   .     S
C148   H164    1.111   .     S
C148   H163    1.107   .     S
C149   C153    1.390   .     A
C149   C694    1.416   1_554 S
C149   C708    1.417   1_554 S
C150   C151    1.392   .     A
C150   C699    1.400   .     S
C150   C707    1.417   .     S
C151   C152    1.385   .     A
C151   H173    1.084   .     S
C152   H160    1.082   .     S
C153   H156    1.079   .     S
H159   C702    1.083   1_554 S
H174   C699    1.085   .     S
N175   Zn185   2.008   .     S
N176   Zn186   2.008   .     S
O177   Zn185   2.000   .     S
O178   Zn186   2.000   .     S
O179   Zn185   1.961   .     S
O180   Zn186   1.905   .     S
O181   Zn185   2.000   .     S
O182   Zn186   2.000   .     S
O183   Zn185   1.905   .     S
O184   Zn186   1.961   .     S
C187   O240    1.283   .     A
C187   C195    1.420   .     S
C187   O239    1.283   .     A
C188   C190    1.460   .     S
C188   C205    1.402   .     A
C188   C209    1.409   .     A
C189   C195    1.397   .     A
C189   H223    1.084   .     S
C189   C377    1.370   .     S
C190   O242    1.293   .     A
C190   O241    1.289   .     A
C191   C192    1.397   .     A
C191   H217    1.084   .     S
C192   C193    1.397   .     A
C192   C201    1.419   .     S
C193   H228    1.084   .     S
C194   C195    1.397   .     A
C194   H230    1.084   .     S
C194   C379    1.370   .     S
C196   N238    1.366   .     A
C196   H231    1.080   .     S
C196   C259    1.415   .     S
C197   N237    1.366   .     A
C197   H232    1.082   .     S
C197   C320    1.415   1_455 S
C198   C209    1.408   .     A
C198   C765    1.419   .     S
C198   C769    1.416   .     S
C199   N237    1.367   .     A
C199   H233    1.082   .     S
C199   C324    1.416   1_455 S
C200   H234    1.082   .     S
C200   N238    1.366   .     A
C200   C261    1.416   .     S
C201   O243    1.283   .     A
C201   O244    1.282   .     A
C202   O245    1.297   .     A
C202   C204    1.465   .     S
C202   O246    1.289   .     A
C203   C216    1.401   .     A
C203   C770    1.400   1_554 S
C203   H794    1.085   1_554 S
C204   C215    1.393   .     A
C204   C216    1.421   .     A
C205   C206    1.389   .     A
C205   H219    1.083   .     S
C206   C765    1.393   .     S
C206   H779    1.083   .     S
C207   H220    1.079   .     S
C207   C764    1.393   1_554 S
C207   C756    1.419   1_554 S
C208   C210    1.526   .     S
C208   H227    1.112   .     S
C208   C216    1.514   .     S
C208   H229    1.108   .     S
C209   C214    1.411   .     A
C210   H224    1.110   .     S
C210   H226    1.111   .     S
C210   H225    1.107   .     S
C211   C215    1.390   .     A
C211   C756    1.416   1_554 S
C211   C770    1.417   1_554 S
C212   C213    1.392   .     A
C212   C761    1.400   .     S
C212   C769    1.417   .     S
C213   C214    1.385   .     A
C213   H235    1.084   .     S
C214   H222    1.082   .     S
C215   H218    1.079   .     S
H221   C764    1.083   1_554 S
H236   C761    1.085   .     S
N237   Zn247   2.008   .     S
N238   Zn248   2.008   .     S
O239   Zn247   2.000   .     S
O240   Zn248   2.000   .     S
O241   Zn247   1.961   .     S
O242   Zn248   1.905   .     S
O243   Zn247   2.000   .     S
O244   Zn248   2.000   .     S
O245   Zn247   1.905   .     S
O246   Zn248   1.961   .     S
C249   O302    1.283   .     A
C249   C257    1.420   .     S
C249   O301    1.283   .     A
C250   C252    1.460   .     S
C250   C267    1.402   .     A
C250   C271    1.409   .     A
C251   C257    1.397   .     A
C251   H285    1.084   .     S
C251   C439    1.370   .     S
C252   O304    1.293   .     A
C252   O303    1.289   .     A
C253   C254    1.397   .     A
C253   H279    1.084   .     S
C254   C255    1.397   .     A
C254   C263    1.419   .     S
C255   H290    1.084   .     S
C256   C257    1.397   .     A
C256   H292    1.084   .     S
C256   C441    1.370   .     S
C258   N300    1.366   .     A
C258   H293    1.080   .     S
C258   C321    1.415   .     S
C259   N299    1.366   .     A
C259   H294    1.082   .     S
C260   C271    1.408   .     A
C260   C827    1.419   .     S
C260   C831    1.416   .     S
C261   N299    1.367   .     A
C261   H295    1.082   .     S
C262   H296    1.082   .     S
C262   N300    1.366   .     A
C262   C323    1.416   .     S
C263   O305    1.283   .     A
C263   O306    1.282   .     A
C264   O307    1.297   .     A
C264   C266    1.465   .     S
C264   O308    1.289   .     A
C265   C278    1.401   .     A
C265   C832    1.400   1_554 S
C265   H856    1.085   1_554 S
C266   C277    1.393   .     A
C266   C278    1.421   .     A
C267   C268    1.389   .     A
C267   H281    1.083   .     S
C268   C827    1.393   .     S
C268   H841    1.083   .     S
C269   H282    1.079   .     S
C269   C826    1.393   1_554 S
C269   C818    1.419   1_554 S
C270   C272    1.526   .     S
C270   H289    1.112   .     S
C270   C278    1.514   .     S
C270   H291    1.108   .     S
C271   C276    1.411   .     A
C272   H286    1.110   .     S
C272   H288    1.111   .     S
C272   H287    1.107   .     S
C273   C277    1.390   .     A
C273   C818    1.416   1_554 S
C273   C832    1.417   1_554 S
C274   C275    1.392   .     A
C274   C823    1.400   .     S
C274   C831    1.417   .     S
C275   C276    1.385   .     A
C275   H297    1.084   .     S
C276   H284    1.082   .     S
C277   H280    1.079   .     S
H283   C826    1.083   1_554 S
H298   C823    1.085   .     S
N299   Zn309   2.008   .     S
N300   Zn310   2.008   .     S
O301   Zn309   2.000   .     S
O302   Zn310   2.000   .     S
O303   Zn309   1.961   .     S
O304   Zn310   1.905   .     S
O305   Zn309   2.000   .     S
O306   Zn310   2.000   .     S
O307   Zn309   1.905   .     S
O308   Zn310   1.961   .     S
C311   O364    1.283   .     A
C311   C319    1.420   .     S
C311   O363    1.283   .     A
C312   C314    1.460   .     S
C312   C329    1.402   .     A
C312   C333    1.409   .     A
C313   C319    1.397   .     A
C313   H347    1.084   .     S
C313   C501    1.370   .     S
C314   O366    1.293   .     A
C314   O365    1.289   .     A
C315   C316    1.397   .     A
C315   H341    1.084   .     S
C316   C317    1.397   .     A
C316   C325    1.419   .     S
C317   H352    1.084   .     S
C318   C319    1.397   .     A
C318   H354    1.084   .     S
C318   C503    1.370   .     S
C320   N362    1.366   .     A
C320   H355    1.080   .     S
C320   C197    1.415   1_655 S
C321   N361    1.366   .     A
C321   H356    1.082   .     S
C322   C333    1.408   .     A
C322   C889    1.419   .     S
C322   C893    1.416   .     S
C323   N361    1.367   .     A
C323   H357    1.082   .     S
C324   H358    1.082   .     S
C324   N362    1.366   .     A
C324   C199    1.416   1_655 S
C325   O367    1.283   .     A
C325   O368    1.282   .     A
C326   O369    1.297   .     A
C326   C328    1.465   .     S
C326   O370    1.289   .     A
C327   C340    1.401   .     A
C327   C894    1.400   1_554 S
C327   H918    1.085   1_554 S
C328   C339    1.393   .     A
C328   C340    1.421   .     A
C329   C330    1.389   .     A
C329   H343    1.083   .     S
C330   C889    1.393   .     S
C330   H903    1.083   .     S
C331   H344    1.079   .     S
C331   C888    1.393   1_554 S
C331   C880    1.419   1_554 S
C332   C334    1.526   .     S
C332   H351    1.112   .     S
C332   C340    1.514   .     S
C332   H353    1.108   .     S
C333   C338    1.411   .     A
C334   H348    1.110   .     S
C334   H350    1.111   .     S
C334   H349    1.107   .     S
C335   C339    1.390   .     A
C335   C880    1.416   1_554 S
C335   C894    1.417   1_554 S
C336   C337    1.392   .     A
C336   C885    1.400   .     S
C336   C893    1.417   .     S
C337   C338    1.385   .     A
C337   H359    1.084   .     S
C338   H346    1.082   .     S
C339   H342    1.079   .     S
H345   C888    1.083   1_554 S
H360   C885    1.085   .     S
N361   Zn371   2.008   .     S
N362   Zn372   2.008   .     S
O363   Zn371   2.000   .     S
O364   Zn372   2.000   .     S
O365   Zn371   1.961   .     S
O366   Zn372   1.905   .     S
O367   Zn371   2.000   .     S
O368   Zn372   2.000   .     S
O369   Zn371   1.905   .     S
O370   Zn372   1.961   .     S
C373   O426    1.283   .     A
C373   C381    1.420   .     S
C373   O425    1.283   .     A
C374   C376    1.460   .     S
C374   C391    1.402   .     A
C374   C395    1.409   .     A
C375   C381    1.397   .     A
C375   H409    1.084   .     S
C375   C5      1.370   1_565 S
C376   O428    1.293   .     A
C376   O427    1.289   .     A
C377   C378    1.397   .     A
C377   H403    1.084   .     S
C378   C379    1.397   .     A
C378   C387    1.419   .     S
C379   H414    1.084   .     S
C380   C381    1.397   .     A
C380   H416    1.084   .     S
C380   C7      1.370   1_565 S
C382   N424    1.366   .     A
C382   H417    1.080   .     S
C382   C445    1.415   .     S
C383   N423    1.366   .     A
C383   H418    1.082   .     S
C383   C506    1.415   1_455 S
C384   C395    1.408   .     A
C384   C951    1.419   .     S
C384   C955    1.416   .     S
C385   N423    1.367   .     A
C385   H419    1.082   .     S
C385   C510    1.416   1_455 S
C386   H420    1.082   .     S
C386   N424    1.366   .     A
C386   C447    1.416   .     S
C387   O429    1.283   .     A
C387   O430    1.282   .     A
C388   O431    1.297   .     A
C388   C390    1.465   .     S
C388   O432    1.289   .     A
C389   C402    1.401   .     A
C389   C956    1.400   1_554 S
C389   H980    1.085   1_554 S
C390   C401    1.393   .     A
C390   C402    1.421   .     A
C391   C392    1.389   .     A
C391   H405    1.083   .     S
C392   C951    1.393   .     S
C392   H965    1.083   .     S
C393   H406    1.079   .     S
C393   C950    1.393   1_554 S
C393   C942    1.419   1_554 S
C394   C396    1.526   .     S
C394   H413    1.112   .     S
C394   C402    1.514   .     S
C394   H415    1.108   .     S
C395   C400    1.411   .     A
C396   H410    1.110   .     S
C396   H412    1.111   .     S
C396   H411    1.107   .     S
C397   C401    1.390   .     A
C397   C942    1.416   1_554 S
C397   C956    1.417   1_554 S
C398   C399    1.392   .     A
C398   C947    1.400   .     S
C398   C955    1.417   .     S
C399   C400    1.385   .     A
C399   H421    1.084   .     S
C400   H408    1.082   .     S
C401   H404    1.079   .     S
H407   C950    1.083   1_554 S
H422   C947    1.085   .     S
N423   Zn433   2.008   .     S
N424   Zn434   2.008   .     S
O425   Zn433   2.000   .     S
O426   Zn434   2.000   .     S
O427   Zn433   1.961   .     S
O428   Zn434   1.905   .     S
O429   Zn433   2.000   .     S
O430   Zn434   2.000   .     S
O431   Zn433   1.905   .     S
O432   Zn434   1.961   .     S
C435   O488    1.283   .     A
C435   C443    1.420   .     S
C435   O487    1.283   .     A
C436   C438    1.460   .     S
C436   C453    1.402   .     A
C436   C457    1.409   .     A
C437   C443    1.397   .     A
C437   H471    1.084   .     S
C437   C67     1.370   1_565 S
C438   O490    1.293   .     A
C438   O489    1.289   .     A
C439   C440    1.397   .     A
C439   H465    1.084   .     S
C440   C441    1.397   .     A
C440   C449    1.419   .     S
C441   H476    1.084   .     S
C442   C443    1.397   .     A
C442   H478    1.084   .     S
C442   C69     1.370   1_565 S
C444   N486    1.366   .     A
C444   H479    1.080   .     S
C444   C507    1.415   .     S
C445   N485    1.366   .     A
C445   H480    1.082   .     S
C446   C457    1.408   .     A
C446   C1013   1.419   .     S
C446   C1017   1.416   .     S
C447   N485    1.367   .     A
C447   H481    1.082   .     S
C448   H482    1.082   .     S
C448   N486    1.366   .     A
C448   C509    1.416   .     S
C449   O491    1.283   .     A
C449   O492    1.282   .     A
C450   O493    1.297   .     A
C450   C452    1.465   .     S
C450   O494    1.289   .     A
C451   C464    1.401   .     A
C451   C1018   1.400   1_554 S
C451   H1042   1.085   1_554 S
C452   C463    1.393   .     A
C452   C464    1.421   .     A
C453   C454    1.389   .     A
C453   H467    1.083   .     S
C454   C1013   1.393   .     S
C454   H1027   1.083   .     S
C455   H468    1.079   .     S
C455   C1012   1.393   1_554 S
C455   C1004   1.419   1_554 S
C456   C458    1.526   .     S
C456   H475    1.112   .     S
C456   C464    1.514   .     S
C456   H477    1.108   .     S
C457   C462    1.411   .     A
C458   H472    1.110   .     S
C458   H474    1.111   .     S
C458   H473    1.107   .     S
C459   C463    1.390   .     A
C459   C1004   1.416   1_554 S
C459   C1018   1.417   1_554 S
C460   C461    1.392   .     A
C460   C1009   1.400   .     S
C460   C1017   1.417   .     S
C461   C462    1.385   .     A
C461   H483    1.084   .     S
C462   H470    1.082   .     S
C463   H466    1.079   .     S
H469   C1012   1.083   1_554 S
H484   C1009   1.085   .     S
N485   Zn495   2.008   .     S
N486   Zn496   2.008   .     S
O487   Zn495   2.000   .     S
O488   Zn496   2.000   .     S
O489   Zn495   1.961   .     S
O490   Zn496   1.905   .     S
O491   Zn495   2.000   .     S
O492   Zn496   2.000   .     S
O493   Zn495   1.905   .     S
O494   Zn496   1.961   .     S
C497   O550    1.283   .     A
C497   C505    1.420   .     S
C497   O549    1.283   .     A
C498   C500    1.460   .     S
C498   C515    1.402   .     A
C498   C519    1.409   .     A
C499   C505    1.397   .     A
C499   H533    1.084   .     S
C499   C129    1.370   1_565 S
C500   O552    1.293   .     A
C500   O551    1.289   .     A
C501   C502    1.397   .     A
C501   H527    1.084   .     S
C502   C503    1.397   .     A
C502   C511    1.419   .     S
C503   H538    1.084   .     S
C504   C505    1.397   .     A
C504   H540    1.084   .     S
C504   C131    1.370   1_565 S
C506   N548    1.366   .     A
C506   H541    1.080   .     S
C506   C383    1.415   1_655 S
C507   N547    1.366   .     A
C507   H542    1.082   .     S
C508   C519    1.408   .     A
C508   C1075   1.419   .     S
C508   C1079   1.416   .     S
C509   N547    1.367   .     A
C509   H543    1.082   .     S
C510   H544    1.082   .     S
C510   N548    1.366   .     A
C510   C385    1.416   1_655 S
C511   O553    1.283   .     A
C511   O554    1.282   .     A
C512   O555    1.297   .     A
C512   C514    1.465   .     S
C512   O556    1.289   .     A
C513   C526    1.401   .     A
C513   C1080   1.400   1_554 S
C513   H1104   1.085   1_554 S
C514   C525    1.393   .     A
C514   C526    1.421   .     A
C515   C516    1.389   .     A
C515   H529    1.083   .     S
C516   C1075   1.393   .     S
C516   H1089   1.083   .     S
C517   H530    1.079   .     S
C517   C1074   1.393   1_554 S
C517   C1066   1.419   1_554 S
C518   C520    1.526   .     S
C518   H537    1.112   .     S
C518   C526    1.514   .     S
C518   H539    1.108   .     S
C519   C524    1.411   .     A
C520   H534    1.110   .     S
C520   H536    1.111   .     S
C520   H535    1.107   .     S
C521   C525    1.390   .     A
C521   C1066   1.416   1_554 S
C521   C1080   1.417   1_554 S
C522   C523    1.392   .     A
C522   C1071   1.400   .     S
C522   C1079   1.417   .     S
C523   C524    1.385   .     A
C523   H545    1.084   .     S
C524   H532    1.082   .     S
C525   H528    1.079   .     S
H531   C1074   1.083   1_554 S
H546   C1071   1.085   .     S
N547   Zn557   2.008   .     S
N548   Zn558   2.008   .     S
O549   Zn557   2.000   .     S
O550   Zn558   2.000   .     S
O551   Zn557   1.961   .     S
O552   Zn558   1.905   .     S
O553   Zn557   2.000   .     S
O554   Zn558   2.000   .     S
O555   Zn557   1.905   .     S
O556   Zn558   1.961   .     S
C559   O612    1.283   .     A
C559   C567    1.420   .     S
C559   O611    1.283   .     A
C560   C562    1.460   .     S
C560   C577    1.402   .     A
C560   C581    1.409   .     A
C561   C567    1.397   .     A
C561   H595    1.084   .     S
C561   C749    1.370   .     S
C562   O614    1.293   .     A
C562   O613    1.289   .     A
C563   C564    1.397   .     A
C563   H589    1.084   .     S
C563   C933    1.370   1_545 S
C564   C565    1.397   .     A
C564   C573    1.419   .     S
C565   H600    1.084   .     S
C565   C938    1.370   1_545 S
C566   C567    1.397   .     A
C566   H602    1.084   .     S
C566   C751    1.370   .     S
C568   N610    1.366   .     A
C568   H603    1.080   .     S
C568   C631    1.415   .     S
C569   N609    1.366   .     A
C569   H604    1.082   .     S
C569   C692    1.415   1_455 S
C570   C581    1.408   .     A
C570   C21     1.419   1_556 S
C570   C25     1.416   1_556 S
C571   N609    1.367   .     A
C571   H605    1.082   .     S
C571   C696    1.416   1_455 S
C572   H606    1.082   .     S
C572   N610    1.366   .     A
C572   C633    1.416   .     S
C573   O615    1.283   .     A
C573   O616    1.282   .     A
C574   O617    1.297   .     A
C574   C576    1.465   .     S
C574   O618    1.289   .     A
C575   C588    1.401   .     A
C576   C587    1.393   .     A
C576   C588    1.421   .     A
C577   C578    1.389   .     A
C577   H591    1.083   .     S
C578   C21     1.393   1_556 S
C578   H35     1.083   1_556 S
C579   H592    1.079   .     S
C580   C582    1.526   .     S
C580   H599    1.112   .     S
C580   C588    1.514   .     S
C580   H601    1.108   .     S
C581   C586    1.411   .     A
C582   H596    1.110   .     S
C582   H598    1.111   .     S
C582   H597    1.107   .     S
C583   C587    1.390   .     A
C584   C585    1.392   .     A
C584   C17     1.400   1_556 S
C584   C25     1.417   1_556 S
C585   C586    1.385   .     A
C585   H607    1.084   .     S
C586   H594    1.082   .     S
C587   H590    1.079   .     S
H608   C17     1.085   1_556 S
N609   Zn619   2.008   .     S
N610   Zn620   2.008   .     S
O611   Zn619   2.000   .     S
O612   Zn620   2.000   .     S
O613   Zn619   1.961   .     S
O614   Zn620   1.905   .     S
O615   Zn619   2.000   .     S
O616   Zn620   2.000   .     S
O617   Zn619   1.905   .     S
O618   Zn620   1.961   .     S
C621   O674    1.283   .     A
C621   C629    1.420   .     S
C621   O673    1.283   .     A
C622   C624    1.460   .     S
C622   C639    1.402   .     A
C622   C643    1.409   .     A
C623   C629    1.397   .     A
C623   H657    1.084   .     S
C623   C811    1.370   .     S
C624   O676    1.293   .     A
C624   O675    1.289   .     A
C625   C626    1.397   .     A
C625   H651    1.084   .     S
C625   C995    1.370   1_545 S
C626   C627    1.397   .     A
C626   C635    1.419   .     S
C627   H662    1.084   .     S
C627   C1000   1.370   1_545 S
C628   C629    1.397   .     A
C628   H664    1.084   .     S
C628   C813    1.370   .     S
C630   N672    1.366   .     A
C630   H665    1.080   .     S
C630   C693    1.415   .     S
C631   N671    1.366   .     A
C631   H666    1.082   .     S
C632   C643    1.408   .     A
C632   C83     1.419   1_556 S
C632   C87     1.416   1_556 S
C633   N671    1.367   .     A
C633   H667    1.082   .     S
C634   H668    1.082   .     S
C634   N672    1.366   .     A
C634   C695    1.416   .     S
C635   O677    1.283   .     A
C635   O678    1.282   .     A
C636   O679    1.297   .     A
C636   C638    1.465   .     S
C636   O680    1.289   .     A
C637   C650    1.401   .     A
C638   C649    1.393   .     A
C638   C650    1.421   .     A
C639   C640    1.389   .     A
C639   H653    1.083   .     S
C640   C83     1.393   1_556 S
C640   H97     1.083   1_556 S
C641   H654    1.079   .     S
C642   C644    1.526   .     S
C642   H661    1.112   .     S
C642   C650    1.514   .     S
C642   H663    1.108   .     S
C643   C648    1.411   .     A
C644   H658    1.110   .     S
C644   H660    1.111   .     S
C644   H659    1.107   .     S
C645   C649    1.390   .     A
C646   C647    1.392   .     A
C646   C79     1.400   1_556 S
C646   C87     1.417   1_556 S
C647   C648    1.385   .     A
C647   H669    1.084   .     S
C648   H656    1.082   .     S
C649   H652    1.079   .     S
H670   C79     1.085   1_556 S
N671   Zn681   2.008   .     S
N672   Zn682   2.008   .     S
O673   Zn681   2.000   .     S
O674   Zn682   2.000   .     S
O675   Zn681   1.961   .     S
O676   Zn682   1.905   .     S
O677   Zn681   2.000   .     S
O678   Zn682   2.000   .     S
O679   Zn681   1.905   .     S
O680   Zn682   1.961   .     S
C683   O736    1.283   .     A
C683   C691    1.420   .     S
C683   O735    1.283   .     A
C684   C686    1.460   .     S
C684   C701    1.402   .     A
C684   C705    1.409   .     A
C685   C691    1.397   .     A
C685   H719    1.084   .     S
C685   C873    1.370   .     S
C686   O738    1.293   .     A
C686   O737    1.289   .     A
C687   C688    1.397   .     A
C687   H713    1.084   .     S
C687   C1057   1.370   1_545 S
C688   C689    1.397   .     A
C688   C697    1.419   .     S
C689   H724    1.084   .     S
C689   C1062   1.370   1_545 S
C690   C691    1.397   .     A
C690   H726    1.084   .     S
C690   C875    1.370   .     S
C692   N734    1.366   .     A
C692   H727    1.080   .     S
C692   C569    1.415   1_655 S
C693   N733    1.366   .     A
C693   H728    1.082   .     S
C694   C705    1.408   .     A
C694   C145    1.419   1_556 S
C694   C149    1.416   1_556 S
C695   N733    1.367   .     A
C695   H729    1.082   .     S
C696   H730    1.082   .     S
C696   N734    1.366   .     A
C696   C571    1.416   1_655 S
C697   O739    1.283   .     A
C697   O740    1.282   .     A
C698   O741    1.297   .     A
C698   C700    1.465   .     S
C698   O742    1.289   .     A
C699   C712    1.401   .     A
C700   C711    1.393   .     A
C700   C712    1.421   .     A
C701   C702    1.389   .     A
C701   H715    1.083   .     S
C702   C145    1.393   1_556 S
C702   H159    1.083   1_556 S
C703   H716    1.079   .     S
C704   C706    1.526   .     S
C704   H723    1.112   .     S
C704   C712    1.514   .     S
C704   H725    1.108   .     S
C705   C710    1.411   .     A
C706   H720    1.110   .     S
C706   H722    1.111   .     S
C706   H721    1.107   .     S
C707   C711    1.390   .     A
C708   C709    1.392   .     A
C708   C141    1.400   1_556 S
C708   C149    1.417   1_556 S
C709   C710    1.385   .     A
C709   H731    1.084   .     S
C710   H718    1.082   .     S
C711   H714    1.079   .     S
H732   C141    1.085   1_556 S
N733   Zn743   2.008   .     S
N734   Zn744   2.008   .     S
O735   Zn743   2.000   .     S
O736   Zn744   2.000   .     S
O737   Zn743   1.961   .     S
O738   Zn744   1.905   .     S
O739   Zn743   2.000   .     S
O740   Zn744   2.000   .     S
O741   Zn743   1.905   .     S
O742   Zn744   1.961   .     S
C745   O798    1.283   .     A
C745   C753    1.420   .     S
C745   O797    1.283   .     A
C746   C748    1.460   .     S
C746   C763    1.402   .     A
C746   C767    1.409   .     A
C747   C753    1.397   .     A
C747   H781    1.084   .     S
C747   C935    1.370   .     S
C748   O800    1.293   .     A
C748   O799    1.289   .     A
C749   C750    1.397   .     A
C749   H775    1.084   .     S
C750   C751    1.397   .     A
C750   C759    1.419   .     S
C751   H786    1.084   .     S
C752   C753    1.397   .     A
C752   H788    1.084   .     S
C752   C937    1.370   .     S
C754   N796    1.366   .     A
C754   H789    1.080   .     S
C754   C817    1.415   .     S
C755   N795    1.366   .     A
C755   H790    1.082   .     S
C755   C878    1.415   1_455 S
C756   C767    1.408   .     A
C756   C207    1.419   1_556 S
C756   C211    1.416   1_556 S
C757   N795    1.367   .     A
C757   H791    1.082   .     S
C757   C882    1.416   1_455 S
C758   H792    1.082   .     S
C758   N796    1.366   .     A
C758   C819    1.416   .     S
C759   O801    1.283   .     A
C759   O802    1.282   .     A
C760   O803    1.297   .     A
C760   C762    1.465   .     S
C760   O804    1.289   .     A
C761   C774    1.401   .     A
C762   C773    1.393   .     A
C762   C774    1.421   .     A
C763   C764    1.389   .     A
C763   H777    1.083   .     S
C764   C207    1.393   1_556 S
C764   H221    1.083   1_556 S
C765   H778    1.079   .     S
C766   C768    1.526   .     S
C766   H785    1.112   .     S
C766   C774    1.514   .     S
C766   H787    1.108   .     S
C767   C772    1.411   .     A
C768   H782    1.110   .     S
C768   H784    1.111   .     S
C768   H783    1.107   .     S
C769   C773    1.390   .     A
C770   C771    1.392   .     A
C770   C203    1.400   1_556 S
C770   C211    1.417   1_556 S
C771   C772    1.385   .     A
C771   H793    1.084   .     S
C772   H780    1.082   .     S
C773   H776    1.079   .     S
H794   C203    1.085   1_556 S
N795   Zn805   2.008   .     S
N796   Zn806   2.008   .     S
O797   Zn805   2.000   .     S
O798   Zn806   2.000   .     S
O799   Zn805   1.961   .     S
O800   Zn806   1.905   .     S
O801   Zn805   2.000   .     S
O802   Zn806   2.000   .     S
O803   Zn805   1.905   .     S
O804   Zn806   1.961   .     S
C807   O860    1.283   .     A
C807   C815    1.420   .     S
C807   O859    1.283   .     A
C808   C810    1.460   .     S
C808   C825    1.402   .     A
C808   C829    1.409   .     A
C809   C815    1.397   .     A
C809   H843    1.084   .     S
C809   C997    1.370   .     S
C810   O862    1.293   .     A
C810   O861    1.289   .     A
C811   C812    1.397   .     A
C811   H837    1.084   .     S
C812   C813    1.397   .     A
C812   C821    1.419   .     S
C813   H848    1.084   .     S
C814   C815    1.397   .     A
C814   H850    1.084   .     S
C814   C999    1.370   .     S
C816   N858    1.366   .     A
C816   H851    1.080   .     S
C816   C879    1.415   .     S
C817   N857    1.366   .     A
C817   H852    1.082   .     S
C818   C829    1.408   .     A
C818   C269    1.419   1_556 S
C818   C273    1.416   1_556 S
C819   N857    1.367   .     A
C819   H853    1.082   .     S
C820   H854    1.082   .     S
C820   N858    1.366   .     A
C820   C881    1.416   .     S
C821   O863    1.283   .     A
C821   O864    1.282   .     A
C822   O865    1.297   .     A
C822   C824    1.465   .     S
C822   O866    1.289   .     A
C823   C836    1.401   .     A
C824   C835    1.393   .     A
C824   C836    1.421   .     A
C825   C826    1.389   .     A
C825   H839    1.083   .     S
C826   C269    1.393   1_556 S
C826   H283    1.083   1_556 S
C827   H840    1.079   .     S
C828   C830    1.526   .     S
C828   H847    1.112   .     S
C828   C836    1.514   .     S
C828   H849    1.108   .     S
C829   C834    1.411   .     A
C830   H844    1.110   .     S
C830   H846    1.111   .     S
C830   H845    1.107   .     S
C831   C835    1.390   .     A
C832   C833    1.392   .     A
C832   C265    1.400   1_556 S
C832   C273    1.417   1_556 S
C833   C834    1.385   .     A
C833   H855    1.084   .     S
C834   H842    1.082   .     S
C835   H838    1.079   .     S
H856   C265    1.085   1_556 S
N857   Zn867   2.008   .     S
N858   Zn868   2.008   .     S
O859   Zn867   2.000   .     S
O860   Zn868   2.000   .     S
O861   Zn867   1.961   .     S
O862   Zn868   1.905   .     S
O863   Zn867   2.000   .     S
O864   Zn868   2.000   .     S
O865   Zn867   1.905   .     S
O866   Zn868   1.961   .     S
C869   O922    1.283   .     A
C869   C877    1.420   .     S
C869   O921    1.283   .     A
C870   C872    1.460   .     S
C870   C887    1.402   .     A
C870   C891    1.409   .     A
C871   C877    1.397   .     A
C871   H905    1.084   .     S
C871   C1059   1.370   .     S
C872   O924    1.293   .     A
C872   O923    1.289   .     A
C873   C874    1.397   .     A
C873   H899    1.084   .     S
C874   C875    1.397   .     A
C874   C883    1.419   .     S
C875   H910    1.084   .     S
C876   C877    1.397   .     A
C876   H912    1.084   .     S
C876   C1061   1.370   .     S
C878   N920    1.366   .     A
C878   H913    1.080   .     S
C878   C755    1.415   1_655 S
C879   N919    1.366   .     A
C879   H914    1.082   .     S
C880   C891    1.408   .     A
C880   C331    1.419   1_556 S
C880   C335    1.416   1_556 S
C881   N919    1.367   .     A
C881   H915    1.082   .     S
C882   H916    1.082   .     S
C882   N920    1.366   .     A
C882   C757    1.416   1_655 S
C883   O925    1.283   .     A
C883   O926    1.282   .     A
C884   O927    1.297   .     A
C884   C886    1.465   .     S
C884   O928    1.289   .     A
C885   C898    1.401   .     A
C886   C897    1.393   .     A
C886   C898    1.421   .     A
C887   C888    1.389   .     A
C887   H901    1.083   .     S
C888   C331    1.393   1_556 S
C888   H345    1.083   1_556 S
C889   H902    1.079   .     S
C890   C892    1.526   .     S
C890   H909    1.112   .     S
C890   C898    1.514   .     S
C890   H911    1.108   .     S
C891   C896    1.411   .     A
C892   H906    1.110   .     S
C892   H908    1.111   .     S
C892   H907    1.107   .     S
C893   C897    1.390   .     A
C894   C895    1.392   .     A
C894   C327    1.400   1_556 S
C894   C335    1.417   1_556 S
C895   C896    1.385   .     A
C895   H917    1.084   .     S
C896   H904    1.082   .     S
C897   H900    1.079   .     S
H918   C327    1.085   1_556 S
N919   Zn929   2.008   .     S
N920   Zn930   2.008   .     S
O921   Zn929   2.000   .     S
O922   Zn930   2.000   .     S
O923   Zn929   1.961   .     S
O924   Zn930   1.905   .     S
O925   Zn929   2.000   .     S
O926   Zn930   2.000   .     S
O927   Zn929   1.905   .     S
O928   Zn930   1.961   .     S
C931   O984    1.283   .     A
C931   C939    1.420   .     S
C931   O983    1.283   .     A
C932   C934    1.460   .     S
C932   C949    1.402   .     A
C932   C953    1.409   .     A
C933   C939    1.397   .     A
C933   H967    1.084   .     S
C933   C563    1.370   1_565 S
C934   O986    1.293   .     A
C934   O985    1.289   .     A
C935   C936    1.397   .     A
C935   H961    1.084   .     S
C936   C937    1.397   .     A
C936   C945    1.419   .     S
C937   H972    1.084   .     S
C938   C939    1.397   .     A
C938   H974    1.084   .     S
C938   C565    1.370   1_565 S
C940   N982    1.366   .     A
C940   H975    1.080   .     S
C940   C1003   1.415   .     S
C941   N981    1.366   .     A
C941   H976    1.082   .     S
C941   C1064   1.415   1_455 S
C942   C953    1.408   .     A
C942   C393    1.419   1_556 S
C942   C397    1.416   1_556 S
C943   N981    1.367   .     A
C943   H977    1.082   .     S
C943   C1068   1.416   1_455 S
C944   H978    1.082   .     S
C944   N982    1.366   .     A
C944   C1005   1.416   .     S
C945   O987    1.283   .     A
C945   O988    1.282   .     A
C946   O989    1.297   .     A
C946   C948    1.465   .     S
C946   O990    1.289   .     A
C947   C960    1.401   .     A
C948   C959    1.393   .     A
C948   C960    1.421   .     A
C949   C950    1.389   .     A
C949   H963    1.083   .     S
C950   C393    1.393   1_556 S
C950   H407    1.083   1_556 S
C951   H964    1.079   .     S
C952   C954    1.526   .     S
C952   H971    1.112   .     S
C952   C960    1.514   .     S
C952   H973    1.108   .     S
C953   C958    1.411   .     A
C954   H968    1.110   .     S
C954   H970    1.111   .     S
C954   H969    1.107   .     S
C955   C959    1.390   .     A
C956   C957    1.392   .     A
C956   C389    1.400   1_556 S
C956   C397    1.417   1_556 S
C957   C958    1.385   .     A
C957   H979    1.084   .     S
C958   H966    1.082   .     S
C959   H962    1.079   .     S
H980   C389    1.085   1_556 S
N981   Zn991   2.008   .     S
N982   Zn992   2.008   .     S
O983   Zn991   2.000   .     S
O984   Zn992   2.000   .     S
O985   Zn991   1.961   .     S
O986   Zn992   1.905   .     S
O987   Zn991   2.000   .     S
O988   Zn992   2.000   .     S
O989   Zn991   1.905   .     S
O990   Zn992   1.961   .     S
C993   O1046   1.283   .     A
C993   C1001   1.420   .     S
C993   O1045   1.283   .     A
C994   C996    1.460   .     S
C994   C1011   1.402   .     A
C994   C1015   1.409   .     A
C995   C1001   1.397   .     A
C995   H1029   1.084   .     S
C995   C625    1.370   1_565 S
C996   O1048   1.293   .     A
C996   O1047   1.289   .     A
C997   C998    1.397   .     A
C997   H1023   1.084   .     S
C998   C999    1.397   .     A
C998   C1007   1.419   .     S
C999   H1034   1.084   .     S
C1000  C1001   1.397   .     A
C1000  H1036   1.084   .     S
C1000  C627    1.370   1_565 S
C1002  N1044   1.366   .     A
C1002  H1037   1.080   .     S
C1002  C1065   1.415   .     S
C1003  N1043   1.366   .     A
C1003  H1038   1.082   .     S
C1004  C1015   1.408   .     A
C1004  C455    1.419   1_556 S
C1004  C459    1.416   1_556 S
C1005  N1043   1.367   .     A
C1005  H1039   1.082   .     S
C1006  H1040   1.082   .     S
C1006  N1044   1.366   .     A
C1006  C1067   1.416   .     S
C1007  O1049   1.283   .     A
C1007  O1050   1.282   .     A
C1008  O1051   1.297   .     A
C1008  C1010   1.465   .     S
C1008  O1052   1.289   .     A
C1009  C1022   1.401   .     A
C1010  C1021   1.393   .     A
C1010  C1022   1.421   .     A
C1011  C1012   1.389   .     A
C1011  H1025   1.083   .     S
C1012  C455    1.393   1_556 S
C1012  H469    1.083   1_556 S
C1013  H1026   1.079   .     S
C1014  C1016   1.526   .     S
C1014  H1033   1.112   .     S
C1014  C1022   1.514   .     S
C1014  H1035   1.108   .     S
C1015  C1020   1.411   .     A
C1016  H1030   1.110   .     S
C1016  H1032   1.111   .     S
C1016  H1031   1.107   .     S
C1017  C1021   1.390   .     A
C1018  C1019   1.392   .     A
C1018  C451    1.400   1_556 S
C1018  C459    1.417   1_556 S
C1019  C1020   1.385   .     A
C1019  H1041   1.084   .     S
C1020  H1028   1.082   .     S
C1021  H1024   1.079   .     S
H1042  C451    1.085   1_556 S
N1043  Zn1053  2.008   .     S
N1044  Zn1054  2.008   .     S
O1045  Zn1053  2.000   .     S
O1046  Zn1054  2.000   .     S
O1047  Zn1053  1.961   .     S
O1048  Zn1054  1.905   .     S
O1049  Zn1053  2.000   .     S
O1050  Zn1054  2.000   .     S
O1051  Zn1053  1.905   .     S
O1052  Zn1054  1.961   .     S
C1055  O1108   1.283   .     A
C1055  C1063   1.420   .     S
C1055  O1107   1.283   .     A
C1056  C1058   1.460   .     S
C1056  C1073   1.402   .     A
C1056  C1077   1.409   .     A
C1057  C1063   1.397   .     A
C1057  H1091   1.084   .     S
C1057  C687    1.370   1_565 S
C1058  O1110   1.293   .     A
C1058  O1109   1.289   .     A
C1059  C1060   1.397   .     A
C1059  H1085   1.084   .     S
C1060  C1061   1.397   .     A
C1060  C1069   1.419   .     S
C1061  H1096   1.084   .     S
C1062  C1063   1.397   .     A
C1062  H1098   1.084   .     S
C1062  C689    1.370   1_565 S
C1064  N1106   1.366   .     A
C1064  H1099   1.080   .     S
C1064  C941    1.415   1_655 S
C1065  N1105   1.366   .     A
C1065  H1100   1.082   .     S
C1066  C1077   1.408   .     A
C1066  C517    1.419   1_556 S
C1066  C521    1.416   1_556 S
C1067  N1105   1.367   .     A
C1067  H1101   1.082   .     S
C1068  H1102   1.082   .     S
C1068  N1106   1.366   .     A
C1068  C943    1.416   1_655 S
C1069  O1111   1.283   .     A
C1069  O1112   1.282   .     A
C1070  O1113   1.297   .     A
C1070  C1072   1.465   .     S
C1070  O1114   1.289   .     A
C1071  C1084   1.401   .     A
C1072  C1083   1.393   .     A
C1072  C1084   1.421   .     A
C1073  C1074   1.389   .     A
C1073  H1087   1.083   .     S
C1074  C517    1.393   1_556 S
C1074  H531    1.083   1_556 S
C1075  H1088   1.079   .     S
C1076  C1078   1.526   .     S
C1076  H1095   1.112   .     S
C1076  C1084   1.514   .     S
C1076  H1097   1.108   .     S
C1077  C1082   1.411   .     A
C1078  H1092   1.110   .     S
C1078  H1094   1.111   .     S
C1078  H1093   1.107   .     S
C1079  C1083   1.390   .     A
C1080  C1081   1.392   .     A
C1080  C513    1.400   1_556 S
C1080  C521    1.417   1_556 S
C1081  C1082   1.385   .     A
C1081  H1103   1.084   .     S
C1082  H1090   1.082   .     S
C1083  H1086   1.079   .     S
H1104  C513    1.085   1_556 S
N1105  Zn1115  2.008   .     S
N1106  Zn1116  2.008   .     S
O1107  Zn1115  2.000   .     S
O1108  Zn1116  2.000   .     S
O1109  Zn1115  1.961   .     S
O1110  Zn1116  1.905   .     S
O1111  Zn1115  2.000   .     S
O1112  Zn1116  2.000   .     S
O1113  Zn1115  1.905   .     S
O1114  Zn1116  1.961   .     S
