data_str_m1_o1_o2_pcu_sym.105
_audit_creation_date              2020-01-03
_audit_creation_method            'Materials Studio'
_symmetry_space_group_name_H-M    'P1'
_symmetry_Int_Tables_number       1
_symmetry_cell_setting            triclinic
loop_
_symmetry_equiv_pos_as_xyz
  x,y,z
_cell_length_a                    36.8807
_cell_length_b                    36.8803
_cell_length_c                    34.4174
_cell_angle_alpha                 90.0010
_cell_angle_beta                  89.9995
_cell_angle_gamma                 90.0002
loop_
_atom_site_label
_atom_site_type_symbol
_atom_site_fract_x
_atom_site_fract_y
_atom_site_fract_z
_atom_site_U_iso_or_equiv
_atom_site_adp_type
_atom_site_occupancy
C1     C     0.21865   0.01115   0.04186   0.00000  Uiso   1.00
C2     C     0.02732   0.26903   0.45774   0.00000  Uiso   1.00
C3     C     0.34804   0.40167   0.75023   0.00000  Uiso   1.00
C4     C     0.40191   0.15171   0.24993   0.00000  Uiso   1.00
C5     C     0.09834   0.34804   0.75024   0.00000  Uiso   1.00
C6     C     0.34828   0.40190   0.24992   0.00000  Uiso   1.00
C7     C     0.15197   0.09834   0.75024   0.00000  Uiso   1.00
C8     C     0.09828   0.15189   0.74992   0.00000  Uiso   1.00
C9     C     0.40197   0.34834   0.25024   0.00000  Uiso   1.00
C10    C     0.15189   0.40173   0.74991   0.00000  Uiso   1.00
C11    C     0.34835   0.09802   0.25026   0.00000  Uiso   1.00
C12    C     0.40174   0.34812   0.74990   0.00000  Uiso   1.00
C13    C     0.23885   0.46865   0.54186   0.00000  Uiso   1.00
C14    C     0.09804   0.15167   0.25023   0.00000  Uiso   1.00
C15    C     0.34811   0.09827   0.74991   0.00000  Uiso   1.00
C16    C     0.15166   0.40196   0.25024   0.00000  Uiso   1.00
C17    C     0.25000  -0.00000   0.10251   0.00000  Uiso   1.00
C18    C     0.25000  -0.00000   0.89723   0.00000  Uiso   1.00
C19    C     0.00000   0.25000   0.10251   0.00000  Uiso   1.00
C20    C    -0.00000   0.25000   0.89723   0.00000  Uiso   1.00
C21    C    -0.00000   0.24999   0.60251   0.00000  Uiso   1.00
C22    C    -0.00000   0.24999   0.39723   0.00000  Uiso   1.00
C23    C     0.25001  -0.00000   0.60251   0.00000  Uiso   1.00
C24    C     0.23094   0.02731   0.45774   0.00000  Uiso   1.00
C25    C     0.25000   0.00000   0.39723   0.00000  Uiso   1.00
C26    C     0.18643   0.05575   0.01004   0.00000  Uiso   1.00
C27    C     0.17648   0.08210   0.04283   0.00000  Uiso   1.00
C28    C     0.17023   0.12035   0.02732   0.00000  Uiso   1.00
C29    C     0.29549   0.07050   0.99075   0.00000  Uiso   1.00
C30    C     0.29034   0.09859   0.95827   0.00000  Uiso   1.00
C31    C     0.28430   0.13645   0.97492   0.00000  Uiso   1.00
C32    C     0.44421   0.18642   0.01008   0.00000  Uiso   1.00
C33    C     0.41791   0.17641   0.04289   0.00000  Uiso   1.00
C34    C     0.37965   0.17017   0.02743   0.00000  Uiso   1.00
C35    C     0.03134   0.23881   0.54186   0.00000  Uiso   1.00
C36    C     0.42949   0.29549   0.99076   0.00000  Uiso   1.00
C37    C     0.40139   0.29030   0.95828   0.00000  Uiso   1.00
C38    C     0.36354   0.28424   0.97494   0.00000  Uiso   1.00
C39    C     0.31356   0.44421   0.01006   0.00000  Uiso   1.00
C40    C     0.32355   0.41788   0.04286   0.00000  Uiso   1.00
C41    C     0.32979   0.37963   0.02737   0.00000  Uiso   1.00
C42    C     0.20451   0.42948   0.99075   0.00000  Uiso   1.00
C43    C     0.20971   0.40139   0.95827   0.00000  Uiso   1.00
C44    C     0.21575   0.36354   0.97492   0.00000  Uiso   1.00
C45    C     0.05576   0.31356   0.01004   0.00000  Uiso   1.00
C46    C     0.47268   0.23091   0.45773   0.00000  Uiso   1.00
C47    C     0.08210   0.32353   0.04283   0.00000  Uiso   1.00
C48    C     0.12035   0.32978   0.02733   0.00000  Uiso   1.00
C49    C     0.07050   0.20451   0.99075   0.00000  Uiso   1.00
C50    C     0.09859   0.20971   0.95827   0.00000  Uiso   1.00
C51    C     0.13645   0.21573   0.97492   0.00000  Uiso   1.00
C52    C     0.43643   0.30574   0.51003   0.00000  Uiso   1.00
C53    C     0.42648   0.33210   0.54281   0.00000  Uiso   1.00
C54    C     0.42023   0.37034   0.52730   0.00000  Uiso   1.00
C55    C     0.04550   0.32047   0.49076   0.00000  Uiso   1.00
C56    C     0.04036   0.34857   0.45827   0.00000  Uiso   1.00
C57    C     0.26117   0.03135   0.54186   0.00000  Uiso   1.00
C58    C     0.03432   0.38643   0.47492   0.00000  Uiso   1.00
C59    C     0.19425   0.43642   0.51005   0.00000  Uiso   1.00
C60    C     0.16791   0.42645   0.54284   0.00000  Uiso   1.00
C61    C     0.12967   0.42020   0.52735   0.00000  Uiso   1.00
C62    C     0.17950   0.04548   0.49076   0.00000  Uiso   1.00
C63    C     0.15141   0.04030   0.45828   0.00000  Uiso   1.00
C64    C     0.11355   0.03425   0.47495   0.00000  Uiso   1.00
C65    C     0.06353   0.19415   0.51011   0.00000  Uiso   1.00
C66    C     0.07365   0.16788   0.54291   0.00000  Uiso   1.00
C67    C     0.07988   0.12961   0.52747   0.00000  Uiso   1.00
C68    C     0.26907   0.47269   0.45773   0.00000  Uiso   1.00
C69    C     0.45450   0.17948   0.49078   0.00000  Uiso   1.00
C70    C     0.45993   0.15141   0.45832   0.00000  Uiso   1.00
C71    C     0.46590   0.11355   0.47501   0.00000  Uiso   1.00
C72    C     0.30577   0.06358   0.51004   0.00000  Uiso   1.00
C73    C     0.33212   0.07350   0.54283   0.00000  Uiso   1.00
C74    C     0.37037   0.07976   0.52732   0.00000  Uiso   1.00
C75    C     0.32053   0.45451   0.49073   0.00000  Uiso   1.00
C76    C     0.34862   0.45963   0.45824   0.00000  Uiso   1.00
C77    C     0.38647   0.46569   0.47488   0.00000  Uiso   1.00
C78    C     0.10305   0.44527   0.22078   0.00000  Uiso   1.00
C79    C     0.21866   0.00975   0.08223   0.00000  Uiso   1.00
C80    C     0.09854   0.46896   0.25700   0.00000  Uiso   1.00
C81    C     0.37306   0.07950   0.81734   0.00000  Uiso   1.00
C82    C     0.38596   0.04001   0.81921   0.00000  Uiso   1.00
C83    C     0.05474   0.10305   0.22078   0.00000  Uiso   1.00
C84    C     0.03105   0.09854   0.25699   0.00000  Uiso   1.00
C85    C     0.42051   0.37307   0.81733   0.00000  Uiso   1.00
C86    C     0.46001   0.38597   0.81919   0.00000  Uiso   1.00
C87    C     0.39701   0.05462   0.22109   0.00000  Uiso   1.00
C88    C     0.40137   0.03101   0.25738   0.00000  Uiso   1.00
C89    C     0.12690   0.42054   0.81732   0.00000  Uiso   1.00
C90    C     0.27782   0.01737   0.91738   0.00000  Uiso   1.00
C91    C     0.11401   0.46003   0.81915   0.00000  Uiso   1.00
C92    C     0.44531   0.39697   0.22089   0.00000  Uiso   1.00
C93    C     0.46898   0.40143   0.25714   0.00000  Uiso   1.00
C94    C     0.07946   0.12689   0.81731   0.00000  Uiso   1.00
C95    C     0.03997   0.11400   0.81914   0.00000  Uiso   1.00
C96    C     0.10307   0.05541   0.77929   0.00000  Uiso   1.00
C97    C     0.09649   0.03367   0.74204   0.00000  Uiso   1.00
C98    C     0.37532   0.42298   0.18363   0.00000  Uiso   1.00
C99    C     0.34402   0.40943   0.15824   0.00000  Uiso   1.00
C100   C     0.05542   0.39693   0.77933   0.00000  Uiso   1.00
C101   C     0.49025   0.21866   0.08224   0.00000  Uiso   1.00
C102   C     0.03366   0.40353   0.74210   0.00000  Uiso   1.00
C103   C     0.42310   0.12454   0.18374   0.00000  Uiso   1.00
C104   C     0.40959   0.15577   0.15823   0.00000  Uiso   1.00
C105   C     0.39692   0.44458   0.77936   0.00000  Uiso   1.00
C106   C     0.40354   0.46634   0.74214   0.00000  Uiso   1.00
C107   C     0.12477   0.07710   0.18356   0.00000  Uiso   1.00
C108   C     0.15611   0.09065   0.15823   0.00000  Uiso   1.00
C109   C     0.44457   0.10308   0.77936   0.00000  Uiso   1.00
C110   C     0.46631   0.09645   0.74212   0.00000  Uiso   1.00
C111   C     0.07710   0.37524   0.18357   0.00000  Uiso   1.00
C112   C     0.27732   0.01905   0.95774   0.00000  Uiso   1.00
C113   C     0.48262   0.27782   0.91738   0.00000  Uiso   1.00
C114   C     0.09065   0.34390   0.15824   0.00000  Uiso   1.00
C115   C     0.35306   0.19526   0.72076   0.00000  Uiso   1.00
C116   C     0.34854   0.21896   0.75697   0.00000  Uiso   1.00
C117   C     0.12308   0.32948   0.31733   0.00000  Uiso   1.00
C118   C     0.13598   0.28999   0.31917   0.00000  Uiso   1.00
C119   C     0.30476   0.35307   0.72072   0.00000  Uiso   1.00
C120   C     0.28105   0.34852   0.75691   0.00000  Uiso   1.00
C121   C     0.17057   0.12313   0.31729   0.00000  Uiso   1.00
C122   C     0.21006   0.13603   0.31909   0.00000  Uiso   1.00
C123   C     0.14695   0.30473   0.72079   0.00000  Uiso   1.00
C124   C     0.28134   0.49024   0.08224   0.00000  Uiso   1.00
C125   C     0.15146   0.28104   0.75700   0.00000  Uiso   1.00
C126   C     0.37681   0.17060   0.31726   0.00000  Uiso   1.00
C127   C     0.36392   0.21010   0.31902   0.00000  Uiso   1.00
C128   C     0.19530   0.14697   0.72088   0.00000  Uiso   1.00
C129   C     0.21897   0.15143   0.75712   0.00000  Uiso   1.00
C130   C     0.32945   0.37688   0.31730   0.00000  Uiso   1.00
C131   C     0.28996   0.36398   0.31912   0.00000  Uiso   1.00
C132   C     0.35305   0.30541   0.27924   0.00000  Uiso   1.00
C133   C     0.34648   0.28370   0.24196   0.00000  Uiso   1.00
C134   C     0.12531   0.17296   0.68362   0.00000  Uiso   1.00
C135   C     0.22218   0.48261   0.91738   0.00000  Uiso   1.00
C136   C     0.09401   0.15942   0.65823   0.00000  Uiso   1.00
C137   C     0.30538   0.14696   0.27917   0.00000  Uiso   1.00
C138   C     0.28366   0.15347   0.24189   0.00000  Uiso   1.00
C139   C     0.17291   0.37476   0.68357   0.00000  Uiso   1.00
C140   C     0.15936   0.40609   0.65824   0.00000  Uiso   1.00
C141   C     0.14693   0.19460   0.27930   0.00000  Uiso   1.00
C142   C     0.15351   0.21635   0.24206   0.00000  Uiso   1.00
C143   C     0.37481   0.32714   0.68353   0.00000  Uiso   1.00
C144   C     0.40617   0.34070   0.65824   0.00000  Uiso   1.00
C145   C     0.19458   0.35307   0.27933   0.00000  Uiso   1.00
C146   C     0.00975   0.28134   0.08223   0.00000  Uiso   1.00
C147   C     0.21632   0.34646   0.24208   0.00000  Uiso   1.00
C148   C     0.32711   0.12522   0.68356   0.00000  Uiso   1.00
C149   C     0.34067   0.09388   0.65824   0.00000  Uiso   1.00
C150   C     0.01737   0.22218   0.91738   0.00000  Uiso   1.00
C151   C     0.46866   0.25975   0.58223   0.00000  Uiso   1.00
C152   C     0.02782   0.26736   0.41739   0.00000  Uiso   1.00
C153   C     0.24026   0.46866   0.58223   0.00000  Uiso   1.00
C154   C     0.23262   0.02782   0.41738   0.00000  Uiso   1.00
C155   C     0.03134   0.24022   0.58224   0.00000  Uiso   1.00
C156   C     0.48883   0.21865   0.04186   0.00000  Uiso   1.00
C157   C     0.47218   0.23261   0.41737   0.00000  Uiso   1.00
C158   C     0.25976   0.03134   0.58224   0.00000  Uiso   1.00
C159   C     0.26739   0.47218   0.41738   0.00000  Uiso   1.00
C160   C     0.25000   0.49999   0.02121   0.00000  Uiso   1.00
C161   C     0.25000   0.49999   0.97846   0.00000  Uiso   1.00
C162   C     0.49999   0.25000   0.02121   0.00000  Uiso   1.00
C163   C     0.49999   0.25000   0.97846   0.00000  Uiso   1.00
C164   C     0.49999   0.24997   0.52121   0.00000  Uiso   1.00
C165   C    -0.00000   0.24997   0.47846   0.00000  Uiso   1.00
C166   C     0.25001  -0.00000   0.52121   0.00000  Uiso   1.00
C167   C     0.48093   0.27731   0.95774   0.00000  Uiso   1.00
C168   C     0.25001   0.00000   0.47846   0.00000  Uiso   1.00
C169   C     0.25000   0.00000   0.35504   0.00000  Uiso   1.00
C170   C     0.25000   0.00000   0.64487   0.00000  Uiso   1.00
C171   C     0.00000   0.25000   0.35504   0.00000  Uiso   1.00
C172   C     0.00000   0.25000   0.64487   0.00000  Uiso   1.00
C173   C    -0.00000   0.25000   0.85504   0.00000  Uiso   1.00
C174   C     0.00000   0.25000   0.14487   0.00000  Uiso   1.00
C175   C     0.25000  -0.00000   0.85504   0.00000  Uiso   1.00
C176   C     0.25000   0.00000   0.14487   0.00000  Uiso   1.00
C177   C     0.17983   0.06997   0.25009   0.00000  Uiso   1.00
C178   C     0.28135   0.48883   0.04186   0.00000  Uiso   1.00
C179   C     0.32008   0.42994   0.75000   0.00000  Uiso   1.00
C180   C     0.43003   0.17983   0.25010   0.00000  Uiso   1.00
C181   C     0.07006   0.32007   0.75000   0.00000  Uiso   1.00
C182   C     0.32017   0.43003   0.25010   0.00000  Uiso   1.00
C183   C     0.17993   0.07006   0.75000   0.00000  Uiso   1.00
C184   C     0.06997   0.32017   0.25010   0.00000  Uiso   1.00
C185   C     0.42994   0.17993   0.75000   0.00000  Uiso   1.00
C186   C     0.18003   0.42983   0.75010   0.00000  Uiso   1.00
C187   C     0.32006   0.07007   0.25000   0.00000  Uiso   1.00
C188   C     0.42983   0.31997   0.75010   0.00000  Uiso   1.00
C189   C     0.22268   0.48093   0.95773   0.00000  Uiso   1.00
C190   C     0.07007   0.17994   0.25000   0.00000  Uiso   1.00
C191   C     0.31997   0.07017   0.75010   0.00000  Uiso   1.00
C192   C     0.17994   0.42993   0.25000   0.00000  Uiso   1.00
C193   C     0.07017   0.18003   0.75010   0.00000  Uiso   1.00
C194   C     0.42993   0.32006   0.25000   0.00000  Uiso   1.00
C195   C     0.11824   0.40775   0.23062   0.00000  Uiso   1.00
C196   C     0.37684   0.09700   0.77731   0.00000  Uiso   1.00
C197   C     0.09226   0.11824   0.23062   0.00000  Uiso   1.00
C198   C     0.40300   0.37685   0.77730   0.00000  Uiso   1.00
C199   C     0.38181   0.09218   0.23077   0.00000  Uiso   1.00
C200   C     0.01116   0.28135   0.04186   0.00000  Uiso   1.00
C201   C     0.12314   0.40301   0.77729   0.00000  Uiso   1.00
C202   C     0.40778   0.38178   0.23068   0.00000  Uiso   1.00
C203   C     0.09699   0.12314   0.77728   0.00000  Uiso   1.00
C204   C     0.11856   0.09274   0.76995   0.00000  Uiso   1.00
C205   C     0.37710   0.40281   0.22243   0.00000  Uiso   1.00
C206   C     0.09274   0.38144   0.76997   0.00000  Uiso   1.00
C207   C     0.40287   0.12284   0.22250   0.00000  Uiso   1.00
C208   C     0.38143   0.40726   0.76998   0.00000  Uiso   1.00
C209   C     0.12295   0.09722   0.22239   0.00000  Uiso   1.00
C210   C     0.40725   0.11857   0.76999   0.00000  Uiso   1.00
C211   C     0.01905   0.22268   0.95774   0.00000  Uiso   1.00
C212   C     0.09722   0.37706   0.22239   0.00000  Uiso   1.00
C213   C     0.36824   0.15774   0.73062   0.00000  Uiso   1.00
C214   C     0.12685   0.34700   0.27730   0.00000  Uiso   1.00
C215   C     0.34227   0.36825   0.73059   0.00000  Uiso   1.00
C216   C     0.15302   0.12687   0.27727   0.00000  Uiso   1.00
C217   C     0.13176   0.34226   0.73063   0.00000  Uiso   1.00
C218   C     0.37311   0.15304   0.27725   0.00000  Uiso   1.00
C219   C     0.15777   0.13178   0.73067   0.00000  Uiso   1.00
C220   C     0.34698   0.37314   0.27728   0.00000  Uiso   1.00
C221   C     0.36856   0.34274   0.26994   0.00000  Uiso   1.00
C222   C     0.46865   0.26114   0.54186   0.00000  Uiso   1.00
C223   C     0.12709   0.15281   0.72243   0.00000  Uiso   1.00
C224   C     0.34272   0.13146   0.26990   0.00000  Uiso   1.00
C225   C     0.15278   0.37294   0.72239   0.00000  Uiso   1.00
C226   C     0.13145   0.15727   0.26995   0.00000  Uiso   1.00
C227   C     0.37297   0.34724   0.72237   0.00000  Uiso   1.00
C228   C     0.15726   0.36856   0.26997   0.00000  Uiso   1.00
C229   C     0.34723   0.12705   0.72239   0.00000  Uiso   1.00
C230   C     0.09811   0.34827   0.24991   0.00000  Uiso   1.00
C231   C     0.40166   0.15197   0.75024   0.00000  Uiso   1.00
C232   C     0.15174   0.09812   0.24990   0.00000  Uiso   1.00
H233   H     0.19413   0.01705   0.09771   0.00000  Uiso   1.00
H234   H     0.04952   0.28078   0.40174   0.00000  Uiso   1.00
H235   H     0.10483   0.05823   0.49206   0.00000  Uiso   1.00
H236   H     0.08441   0.19208   0.48695   0.00000  Uiso   1.00
H237   H     0.03756   0.18617   0.49626   0.00000  Uiso   1.00
H238   H     0.09885   0.17747   0.55734   0.00000  Uiso   1.00
H239   H     0.05153   0.16707   0.56481   0.00000  Uiso   1.00
H240   H     0.05506   0.11937   0.51288   0.00000  Uiso   1.00
H241   H     0.08663   0.11121   0.55197   0.00000  Uiso   1.00
H242   H     0.10276   0.12939   0.50649   0.00000  Uiso   1.00
H243   H     0.43220   0.16989   0.50989   0.00000  Uiso   1.00
H244   H     0.47877   0.18127   0.50966   0.00000  Uiso   1.00
H245   H     0.23296   0.44413   0.59771   0.00000  Uiso   1.00
H246   H     0.43564   0.15102   0.43920   0.00000  Uiso   1.00
H247   H     0.48394   0.15880   0.44052   0.00000  Uiso   1.00
H248   H     0.49005   0.11334   0.49426   0.00000  Uiso   1.00
H249   H     0.47037   0.09399   0.45096   0.00000  Uiso   1.00
H250   H     0.44178   0.10477   0.49188   0.00000  Uiso   1.00
H251   H     0.30782   0.08456   0.48699   0.00000  Uiso   1.00
H252   H     0.31367   0.03766   0.49602   0.00000  Uiso   1.00
H253   H     0.32260   0.09864   0.55742   0.00000  Uiso   1.00
H254   H     0.33297   0.05127   0.56459   0.00000  Uiso   1.00
H255   H     0.38053   0.05501   0.51253   0.00000  Uiso   1.00
H256   H     0.21920   0.04952   0.40173   0.00000  Uiso   1.00
H257   H     0.38884   0.08634   0.55180   0.00000  Uiso   1.00
H258   H     0.37057   0.10276   0.50649   0.00000  Uiso   1.00
H259   H     0.33004   0.43231   0.51002   0.00000  Uiso   1.00
H260   H     0.31881   0.47892   0.50942   0.00000  Uiso   1.00
H261   H     0.34897   0.43518   0.43935   0.00000  Uiso   1.00
H262   H     0.34126   0.48351   0.44020   0.00000  Uiso   1.00
H263   H     0.38673   0.49005   0.49384   0.00000  Uiso   1.00
H264   H     0.40606   0.46986   0.45079   0.00000  Uiso   1.00
H265   H     0.39519   0.44174   0.49205   0.00000  Uiso   1.00
H266   H     0.08033   0.45533   0.27816   0.00000  Uiso   1.00
H267   H     0.05586   0.23292   0.59771   0.00000  Uiso   1.00
H268   H     0.12481   0.47465   0.27137   0.00000  Uiso   1.00
H269   H     0.08620   0.49531   0.24864   0.00000  Uiso   1.00
H270   H     0.11949   0.45911   0.19827   0.00000  Uiso   1.00
H271   H     0.07535   0.44315   0.20839   0.00000  Uiso   1.00
H272   H     0.36608   0.02338   0.83565   0.00000  Uiso   1.00
H273   H     0.38899   0.02843   0.78973   0.00000  Uiso   1.00
H274   H     0.41237   0.03802   0.83453   0.00000  Uiso   1.00
H275   H     0.38854   0.09557   0.83910   0.00000  Uiso   1.00
H276   H     0.34442   0.08139   0.82721   0.00000  Uiso   1.00
H277   H     0.04468   0.08033   0.27815   0.00000  Uiso   1.00
H278   H     0.45048   0.21919   0.40172   0.00000  Uiso   1.00
H279   H     0.02537   0.12480   0.27137   0.00000  Uiso   1.00
H280   H     0.00470   0.08620   0.24863   0.00000  Uiso   1.00
H281   H     0.04089   0.11949   0.19827   0.00000  Uiso   1.00
H282   H     0.05685   0.07535   0.20838   0.00000  Uiso   1.00
H283   H     0.47664   0.36609   0.83564   0.00000  Uiso   1.00
H284   H     0.47158   0.38899   0.78970   0.00000  Uiso   1.00
H285   H     0.46200   0.41239   0.83450   0.00000  Uiso   1.00
H286   H     0.40445   0.38856   0.83909   0.00000  Uiso   1.00
H287   H     0.41862   0.34444   0.82720   0.00000  Uiso   1.00
H288   H     0.41948   0.04469   0.27861   0.00000  Uiso   1.00
H289   H     0.26706   0.05587   0.59771   0.00000  Uiso   1.00
H290   H     0.37504   0.02534   0.27163   0.00000  Uiso   1.00
H291   H     0.41376   0.00465   0.24915   0.00000  Uiso   1.00
H292   H     0.38065   0.04073   0.19855   0.00000  Uiso   1.00
H293   H     0.42476   0.05669   0.20881   0.00000  Uiso   1.00
H294   H     0.13388   0.47667   0.83560   0.00000  Uiso   1.00
H295   H     0.11100   0.47159   0.78966   0.00000  Uiso   1.00
H296   H     0.08759   0.46203   0.83445   0.00000  Uiso   1.00
H297   H     0.11141   0.40448   0.83907   0.00000  Uiso   1.00
H298   H     0.15554   0.41864   0.82720   0.00000  Uiso   1.00
H299   H     0.45533   0.41960   0.27832   0.00000  Uiso   1.00
H300   H     0.28081   0.45048   0.40172   0.00000  Uiso   1.00
H301   H     0.47465   0.37514   0.27146   0.00000  Uiso   1.00
H302   H     0.49533   0.41379   0.24882   0.00000  Uiso   1.00
H303   H     0.45917   0.38056   0.19837   0.00000  Uiso   1.00
H304   H     0.44322   0.42469   0.20854   0.00000  Uiso   1.00
H305   H     0.02334   0.13385   0.83562   0.00000  Uiso   1.00
H306   H     0.02840   0.11103   0.78965   0.00000  Uiso   1.00
H307   H     0.03797   0.08756   0.83440   0.00000  Uiso   1.00
H308   H     0.09552   0.11139   0.83906   0.00000  Uiso   1.00
H309   H     0.08135   0.15552   0.82720   0.00000  Uiso   1.00
H310   H     0.08184   0.05054   0.72037   0.00000  Uiso   1.00
H311   H     0.16546   0.05780   0.98698   0.00000  Uiso   1.00
H312   H     0.12237   0.02421   0.72916   0.00000  Uiso   1.00
H313   H     0.07938   0.00964   0.74844   0.00000  Uiso   1.00
H314   H     0.11989   0.04033   0.80043   0.00000  Uiso   1.00
H315   H     0.07632   0.05765   0.79348   0.00000  Uiso   1.00
H316   H     0.34784   0.38023   0.15145   0.00000  Uiso   1.00
H317   H     0.31732   0.41291   0.17248   0.00000  Uiso   1.00
H318   H     0.34367   0.42488   0.13057   0.00000  Uiso   1.00
H319   H     0.37427   0.45276   0.18777   0.00000  Uiso   1.00
H320   H     0.40001   0.41800   0.16600   0.00000  Uiso   1.00
H321   H     0.05052   0.41818   0.72043   0.00000  Uiso   1.00
H322   H     0.21235   0.06366   0.99604   0.00000  Uiso   1.00
H323   H     0.02420   0.37765   0.72921   0.00000  Uiso   1.00
H324   H     0.00964   0.42063   0.74851   0.00000  Uiso   1.00
H325   H     0.04034   0.38009   0.80047   0.00000  Uiso   1.00
H326   H     0.05766   0.42366   0.79354   0.00000  Uiso   1.00
H327   H     0.38041   0.15190   0.15136   0.00000  Uiso   1.00
H328   H     0.41298   0.18251   0.17242   0.00000  Uiso   1.00
H329   H     0.42510   0.15609   0.13061   0.00000  Uiso   1.00
H330   H     0.45288   0.12561   0.18794   0.00000  Uiso   1.00
H331   H     0.41817   0.09980   0.16616   0.00000  Uiso   1.00
H332   H     0.41820   0.44948   0.72047   0.00000  Uiso   1.00
H333   H     0.15134   0.07257   0.05741   0.00000  Uiso   1.00
H334   H     0.37767   0.47581   0.72924   0.00000  Uiso   1.00
H335   H     0.42064   0.49036   0.74857   0.00000  Uiso   1.00
H336   H     0.38007   0.45965   0.80050   0.00000  Uiso   1.00
H337   H     0.42365   0.44233   0.79359   0.00000  Uiso   1.00
H338   H     0.15233   0.11986   0.15149   0.00000  Uiso   1.00
H339   H     0.18279   0.08712   0.17250   0.00000  Uiso   1.00
H340   H     0.15648   0.07525   0.13054   0.00000  Uiso   1.00
H341   H     0.12580   0.04731   0.18767   0.00000  Uiso   1.00
H342   H     0.10010   0.08211   0.16590   0.00000  Uiso   1.00
H343   H     0.44944   0.08180   0.72046   0.00000  Uiso   1.00
H344   H     0.29952   0.03079   0.90173   0.00000  Uiso   1.00
H345   H     0.19870   0.08295   0.06461   0.00000  Uiso   1.00
H346   H     0.47579   0.12232   0.72923   0.00000  Uiso   1.00
H347   H     0.49032   0.07933   0.74854   0.00000  Uiso   1.00
H348   H     0.45964   0.11992   0.80049   0.00000  Uiso   1.00
H349   H     0.44232   0.07635   0.79359   0.00000  Uiso   1.00
H350   H     0.11987   0.34768   0.15150   0.00000  Uiso   1.00
H351   H     0.08712   0.31721   0.17251   0.00000  Uiso   1.00
H352   H     0.07525   0.34352   0.13054   0.00000  Uiso   1.00
H353   H     0.04731   0.37420   0.18767   0.00000  Uiso   1.00
H354   H     0.08211   0.39990   0.16590   0.00000  Uiso   1.00
H355   H     0.33032   0.20533   0.77813   0.00000  Uiso   1.00
H356   H     0.19498   0.13052   0.01255   0.00000  Uiso   1.00
H357   H     0.37479   0.22465   0.77135   0.00000  Uiso   1.00
H358   H     0.33620   0.24531   0.74860   0.00000  Uiso   1.00
H359   H     0.36950   0.20910   0.69825   0.00000  Uiso   1.00
H360   H     0.32536   0.19314   0.70836   0.00000  Uiso   1.00
H361   H     0.11611   0.27336   0.33563   0.00000  Uiso   1.00
H362   H     0.13899   0.27842   0.28969   0.00000  Uiso   1.00
H363   H     0.16240   0.28800   0.33447   0.00000  Uiso   1.00
H364   H     0.13857   0.34554   0.33908   0.00000  Uiso   1.00
H365   H     0.09445   0.33137   0.32720   0.00000  Uiso   1.00
H366   H     0.29467   0.33029   0.77807   0.00000  Uiso   1.00
H367   H     0.16363   0.13882   0.05181   0.00000  Uiso   1.00
H368   H     0.27536   0.37477   0.77131   0.00000  Uiso   1.00
H369   H     0.25471   0.33619   0.74853   0.00000  Uiso   1.00
H370   H     0.29092   0.36951   0.69821   0.00000  Uiso   1.00
H371   H     0.30688   0.32537   0.70830   0.00000  Uiso   1.00
H372   H     0.22671   0.11616   0.33553   0.00000  Uiso   1.00
H373   H     0.22160   0.13903   0.28959   0.00000  Uiso   1.00
H374   H     0.21207   0.16245   0.33438   0.00000  Uiso   1.00
H375   H     0.15452   0.13864   0.33905   0.00000  Uiso   1.00
H376   H     0.16867   0.09451   0.32720   0.00000  Uiso   1.00
H377   H     0.16966   0.29468   0.77817   0.00000  Uiso   1.00
H378   H     0.14723   0.12055   0.00648   0.00000  Uiso   1.00
H379   H     0.12519   0.27536   0.77137   0.00000  Uiso   1.00
H380   H     0.16380   0.25469   0.74865   0.00000  Uiso   1.00
H381   H     0.13052   0.29088   0.69828   0.00000  Uiso   1.00
H382   H     0.17465   0.30684   0.70840   0.00000  Uiso   1.00
H383   H     0.38376   0.22674   0.33552   0.00000  Uiso   1.00
H384   H     0.36099   0.22164   0.28951   0.00000  Uiso   1.00
H385   H     0.33746   0.21211   0.33424   0.00000  Uiso   1.00
H386   H     0.36128   0.15457   0.33901   0.00000  Uiso   1.00
H387   H     0.40543   0.16871   0.32720   0.00000  Uiso   1.00
H388   H     0.20532   0.16961   0.77830   0.00000  Uiso   1.00
H389   H     0.31770   0.08002   0.01003   0.00000  Uiso   1.00
H390   H     0.22465   0.12515   0.77145   0.00000  Uiso   1.00
H391   H     0.24532   0.16379   0.74880   0.00000  Uiso   1.00
H392   H     0.20916   0.13056   0.69836   0.00000  Uiso   1.00
H393   H     0.19320   0.17469   0.70852   0.00000  Uiso   1.00
H394   H     0.27333   0.38383   0.33562   0.00000  Uiso   1.00
H395   H     0.27839   0.36103   0.28963   0.00000  Uiso   1.00
H396   H     0.28797   0.33753   0.33437   0.00000  Uiso   1.00
H397   H     0.34551   0.36137   0.33905   0.00000  Uiso   1.00
H398   H     0.33134   0.40551   0.32720   0.00000  Uiso   1.00
H399   H     0.33187   0.30059   0.22029   0.00000  Uiso   1.00
H400   H     0.27110   0.06877   0.00946   0.00000  Uiso   1.00
H401   H     0.37237   0.27423   0.22911   0.00000  Uiso   1.00
H402   H     0.32935   0.25968   0.24832   0.00000  Uiso   1.00
H403   H     0.36987   0.29031   0.30037   0.00000  Uiso   1.00
H404   H     0.32630   0.30764   0.29342   0.00000  Uiso   1.00
H405   H     0.09781   0.13022   0.65145   0.00000  Uiso   1.00
H406   H     0.06730   0.16292   0.67247   0.00000  Uiso   1.00
H407   H     0.09365   0.17486   0.63056   0.00000  Uiso   1.00
H408   H     0.12426   0.20275   0.68776   0.00000  Uiso   1.00
H409   H     0.15000   0.16798   0.66598   0.00000  Uiso   1.00
H410   H     0.30054   0.16810   0.22021   0.00000  Uiso   1.00
H411   H     0.31477   0.09894   0.93936   0.00000  Uiso   1.00
H412   H     0.27423   0.12756   0.22905   0.00000  Uiso   1.00
H413   H     0.25962   0.17057   0.24824   0.00000  Uiso   1.00
H414   H     0.29029   0.13016   0.30033   0.00000  Uiso   1.00
H415   H     0.30760   0.17373   0.29332   0.00000  Uiso   1.00
H416   H     0.13014   0.40231   0.65149   0.00000  Uiso   1.00
H417   H     0.16288   0.43278   0.67250   0.00000  Uiso   1.00
H418   H     0.17476   0.40647   0.63055   0.00000  Uiso   1.00
H419   H     0.20270   0.37579   0.68768   0.00000  Uiso   1.00
H420   H     0.16790   0.35009   0.66591   0.00000  Uiso   1.00
H421   H     0.16816   0.19949   0.22038   0.00000  Uiso   1.00
H422   H     0.26645   0.09123   0.94025   0.00000  Uiso   1.00
H423   H     0.12763   0.22581   0.22918   0.00000  Uiso   1.00
H424   H     0.17061   0.24038   0.24846   0.00000  Uiso   1.00
H425   H     0.13010   0.20967   0.30044   0.00000  Uiso   1.00
H426   H     0.17367   0.19237   0.29350   0.00000  Uiso   1.00
H427   H     0.40241   0.36992   0.65151   0.00000  Uiso   1.00
H428   H     0.43285   0.33715   0.67252   0.00000  Uiso   1.00
H429   H     0.40656   0.32531   0.63053   0.00000  Uiso   1.00
H430   H     0.37583   0.29734   0.68762   0.00000  Uiso   1.00
H431   H     0.35016   0.33216   0.66585   0.00000  Uiso   1.00
H432   H     0.19944   0.33182   0.22041   0.00000  Uiso   1.00
H433   H     0.25996   0.13669   0.99391   0.00000  Uiso   1.00
H434   H     0.22579   0.37234   0.22920   0.00000  Uiso   1.00
H435   H     0.24033   0.32935   0.24849   0.00000  Uiso   1.00
H436   H     0.20966   0.36991   0.30046   0.00000  Uiso   1.00
H437   H     0.19233   0.32634   0.29354   0.00000  Uiso   1.00
H438   H     0.36989   0.09765   0.65150   0.00000  Uiso   1.00
H439   H     0.33714   0.06719   0.67252   0.00000  Uiso   1.00
H440   H     0.32527   0.09349   0.63054   0.00000  Uiso   1.00
H441   H     0.29732   0.12419   0.68765   0.00000  Uiso   1.00
H442   H     0.33213   0.14988   0.66589   0.00000  Uiso   1.00
H443   H     0.28009   0.15603   0.95084   0.00000  Uiso   1.00
H444   H     0.48295   0.19413   0.09771   0.00000  Uiso   1.00
H445   H     0.30827   0.14516   0.99206   0.00000  Uiso   1.00
H446   H     0.44216   0.16547   0.98699   0.00000  Uiso   1.00
H447   H     0.43627   0.21235   0.99613   0.00000  Uiso   1.00
H448   H     0.42747   0.15125   0.05741   0.00000  Uiso   1.00
H449   H     0.41708   0.19859   0.06471   0.00000  Uiso   1.00
H450   H     0.36945   0.19494   0.01272   0.00000  Uiso   1.00
H451   H     0.36121   0.16351   0.05192   0.00000  Uiso   1.00
H452   H     0.37943   0.14721   0.00653   0.00000  Uiso   1.00
H453   H     0.41996   0.31771   0.01001   0.00000  Uiso   1.00
H454   H     0.43123   0.27112   0.00949   0.00000  Uiso   1.00
H455   H     0.46920   0.29952   0.90173   0.00000  Uiso   1.00
H456   H     0.40102   0.31471   0.93935   0.00000  Uiso   1.00
H457   H     0.40877   0.26640   0.94028   0.00000  Uiso   1.00
H458   H     0.36331   0.25992   0.99395   0.00000  Uiso   1.00
H459   H     0.34396   0.28000   0.95087   0.00000  Uiso   1.00
H460   H     0.35481   0.30821   0.99206   0.00000  Uiso   1.00
H461   H     0.33452   0.44215   0.98698   0.00000  Uiso   1.00
H462   H     0.28763   0.43628   0.99609   0.00000  Uiso   1.00
H463   H     0.34870   0.42743   0.05740   0.00000  Uiso   1.00
H464   H     0.30135   0.41705   0.06466   0.00000  Uiso   1.00
H465   H     0.30503   0.36944   0.01264   0.00000  Uiso   1.00
H466   H     0.30587   0.48294   0.09771   0.00000  Uiso   1.00
H467   H     0.33642   0.36118   0.05186   0.00000  Uiso   1.00
H468   H     0.35276   0.37941   0.00650   0.00000  Uiso   1.00
H469   H     0.18228   0.41995   0.00999   0.00000  Uiso   1.00
H470   H     0.22887   0.43122   0.00949   0.00000  Uiso   1.00
H471   H     0.18531   0.40103   0.93932   0.00000  Uiso   1.00
H472   H     0.23362   0.40876   0.94029   0.00000  Uiso   1.00
H473   H     0.24005   0.36330   0.99396   0.00000  Uiso   1.00
H474   H     0.22000   0.34396   0.95085   0.00000  Uiso   1.00
H475   H     0.19175   0.35481   0.99201   0.00000  Uiso   1.00
H476   H     0.05781   0.33453   0.98697   0.00000  Uiso   1.00
H477   H     0.20048   0.46920   0.90173   0.00000  Uiso   1.00
H478   H     0.06368   0.28764   0.99605   0.00000  Uiso   1.00
H479   H     0.07257   0.34868   0.05739   0.00000  Uiso   1.00
H480   H     0.08295   0.30132   0.06462   0.00000  Uiso   1.00
H481   H     0.13053   0.30502   0.01257   0.00000  Uiso   1.00
H482   H     0.13881   0.33639   0.05181   0.00000  Uiso   1.00
H483   H     0.12056   0.35276   0.00647   0.00000  Uiso   1.00
H484   H     0.08003   0.18229   0.01000   0.00000  Uiso   1.00
H485   H     0.06876   0.22888   0.00949   0.00000  Uiso   1.00
H486   H     0.09894   0.18530   0.93932   0.00000  Uiso   1.00
H487   H     0.09122   0.23362   0.94029   0.00000  Uiso   1.00
H488   H     0.01705   0.30587   0.09771   0.00000  Uiso   1.00
H489   H     0.13669   0.24003   0.99396   0.00000  Uiso   1.00
H490   H     0.15602   0.21999   0.95085   0.00000  Uiso   1.00
H491   H     0.14517   0.19174   0.99200   0.00000  Uiso   1.00
H492   H     0.41545   0.30778   0.48696   0.00000  Uiso   1.00
H493   H     0.46235   0.31364   0.49602   0.00000  Uiso   1.00
H494   H     0.40134   0.32257   0.55739   0.00000  Uiso   1.00
H495   H     0.44870   0.33294   0.56459   0.00000  Uiso   1.00
H496   H     0.44499   0.38050   0.51253   0.00000  Uiso   1.00
H497   H     0.41363   0.38881   0.55178   0.00000  Uiso   1.00
H498   H     0.39724   0.37054   0.50645   0.00000  Uiso   1.00
H499   H     0.03080   0.20048   0.90173   0.00000  Uiso   1.00
H500   H     0.06770   0.32999   0.51004   0.00000  Uiso   1.00
H501   H     0.02110   0.31875   0.50946   0.00000  Uiso   1.00
H502   H     0.06480   0.34892   0.43937   0.00000  Uiso   1.00
H503   H     0.01648   0.34121   0.44025   0.00000  Uiso   1.00
H504   H     0.00997   0.38668   0.49390   0.00000  Uiso   1.00
H505   H     0.03012   0.40601   0.45084   0.00000  Uiso   1.00
H506   H     0.05828   0.39514   0.49207   0.00000  Uiso   1.00
H507   H     0.19220   0.41546   0.48697   0.00000  Uiso   1.00
H508   H     0.18633   0.46235   0.49606   0.00000  Uiso   1.00
H509   H     0.17746   0.40131   0.55740   0.00000  Uiso   1.00
H510   H     0.44413   0.26706   0.59771   0.00000  Uiso   1.00
H511   H     0.16707   0.44866   0.56463   0.00000  Uiso   1.00
H512   H     0.11948   0.44495   0.51259   0.00000  Uiso   1.00
H513   H     0.11121   0.41358   0.55183   0.00000  Uiso   1.00
H514   H     0.12947   0.39721   0.50648   0.00000  Uiso   1.00
H515   H     0.16997   0.06770   0.51003   0.00000  Uiso   1.00
H516   H     0.18124   0.02110   0.50949   0.00000  Uiso   1.00
H517   H     0.15104   0.06473   0.43936   0.00000  Uiso   1.00
H518   H     0.15877   0.01641   0.44028   0.00000  Uiso   1.00
H519   H     0.11332   0.00993   0.49395   0.00000  Uiso   1.00
H520   H     0.09397   0.03002   0.45087   0.00000  Uiso   1.00
O521   O     0.25000   0.00000   0.25000   0.00000  Uiso   1.00
O522   O     0.25000   0.46964   0.66317   0.00000  Uiso   1.00
O523   O     0.46964   0.25000   0.33683   0.00000  Uiso   1.00
O524   O     0.03036   0.25000   0.66317   0.00000  Uiso   1.00
O525   O     0.00000   0.21964   0.83683   0.00000  Uiso   1.00
O526   O     0.00000   0.28036   0.16317   0.00000  Uiso   1.00
O527   O     0.28036   0.00000   0.83683   0.00000  Uiso   1.00
O528   O     0.21964   0.00000   0.16317   0.00000  Uiso   1.00
O529   O     0.00000   0.28036   0.83683   0.00000  Uiso   1.00
O530   O     0.00000   0.21964   0.16317   0.00000  Uiso   1.00
O531   O     0.21964   0.00000   0.83683   0.00000  Uiso   1.00
O532   O     0.25000   0.00000   0.75000   0.00000  Uiso   1.00
O533   O     0.28036   0.00000   0.16317   0.00000  Uiso   1.00
O534   O     0.20726   0.07307   0.27282   0.00000  Uiso   1.00
O535   O     0.29275   0.42693   0.72718   0.00000  Uiso   1.00
O536   O     0.42693   0.20726   0.27282   0.00000  Uiso   1.00
O537   O     0.07307   0.29275   0.72718   0.00000  Uiso   1.00
O538   O     0.29275   0.42693   0.27282   0.00000  Uiso   1.00
O539   O     0.20726   0.07307   0.72718   0.00000  Uiso   1.00
O540   O     0.07307   0.29275   0.27282   0.00000  Uiso   1.00
O541   O     0.42693   0.20726   0.72718   0.00000  Uiso   1.00
O542   O     0.20726   0.42693   0.72718   0.00000  Uiso   1.00
O543   O     0.00000   0.25000   0.25000   0.00000  Uiso   1.00
O544   O     0.29275   0.07307   0.27282   0.00000  Uiso   1.00
O545   O     0.42693   0.29275   0.72718   0.00000  Uiso   1.00
O546   O     0.07307   0.20726   0.27282   0.00000  Uiso   1.00
O547   O     0.29275   0.07307   0.72718   0.00000  Uiso   1.00
O548   O     0.20726   0.42693   0.27282   0.00000  Uiso   1.00
O549   O     0.07307   0.20726   0.72718   0.00000  Uiso   1.00
O550   O     0.42693   0.29275   0.27282   0.00000  Uiso   1.00
O551   O     0.45726   0.32307   0.77282   0.00000  Uiso   1.00
O552   O     0.04275   0.17693   0.22718   0.00000  Uiso   1.00
O553   O     0.17693   0.45726   0.77282   0.00000  Uiso   1.00
O554   O     0.00000   0.25000   0.75000   0.00000  Uiso   1.00
O555   O     0.32307   0.04275   0.22718   0.00000  Uiso   1.00
O556   O     0.04275   0.17693   0.77282   0.00000  Uiso   1.00
O557   O     0.45726   0.32307   0.22718   0.00000  Uiso   1.00
O558   O     0.32307   0.04275   0.77282   0.00000  Uiso   1.00
O559   O     0.17693   0.45726   0.22718   0.00000  Uiso   1.00
O560   O     0.45726   0.17693   0.22718   0.00000  Uiso   1.00
O561   O     0.04275   0.32307   0.77282   0.00000  Uiso   1.00
O562   O     0.17693   0.04275   0.22718   0.00000  Uiso   1.00
O563   O     0.32307   0.45726   0.77282   0.00000  Uiso   1.00
O564   O     0.04275   0.32307   0.22718   0.00000  Uiso   1.00
O565   O     0.25000   0.46964   0.33683   0.00000  Uiso   1.00
O566   O     0.45726   0.17693   0.77282   0.00000  Uiso   1.00
O567   O     0.32307   0.45726   0.22718   0.00000  Uiso   1.00
O568   O     0.17693   0.04275   0.77282   0.00000  Uiso   1.00
O569   O     0.18635   0.01947   0.02330   0.00000  Uiso   1.00
O570   O     0.30607   0.03629   0.97600   0.00000  Uiso   1.00
O571   O     0.48051   0.18635   0.02330   0.00000  Uiso   1.00
O572   O     0.46369   0.30607   0.97599   0.00000  Uiso   1.00
O573   O     0.31364   0.48050   0.02330   0.00000  Uiso   1.00
O574   O     0.19393   0.46368   0.97599   0.00000  Uiso   1.00
O575   O     0.01948   0.31364   0.02330   0.00000  Uiso   1.00
O576   O     0.25000   0.03036   0.66317   0.00000  Uiso   1.00
O577   O     0.03630   0.19393   0.97599   0.00000  Uiso   1.00
O578   O     0.43635   0.26946   0.52330   0.00000  Uiso   1.00
O579   O     0.05607   0.28627   0.47601   0.00000  Uiso   1.00
O580   O     0.23053   0.43635   0.52330   0.00000  Uiso   1.00
O581   O     0.21370   0.05607   0.47600   0.00000  Uiso   1.00
O582   O     0.06362   0.23045   0.52329   0.00000  Uiso   1.00
O583   O     0.44392   0.21367   0.47597   0.00000  Uiso   1.00
O584   O     0.26949   0.06365   0.52330   0.00000  Uiso   1.00
O585   O     0.28632   0.44393   0.47599   0.00000  Uiso   1.00
O586   O     0.03036   0.25000   0.33683   0.00000  Uiso   1.00
O587   O     0.46964   0.25000   0.66317   0.00000  Uiso   1.00
O588   O     0.25000   0.03036   0.33683   0.00000  Uiso   1.00
Zn589  Zn    0.20660   0.00000   0.21760   0.00000  Uiso   1.00
Zn590  Zn    0.04340   0.25000   0.28240   0.00000  Uiso   1.00
Zn591  Zn    0.25000   0.45660   0.71760   0.00000  Uiso   1.00
Zn592  Zn    0.25000   0.04340   0.28240   0.00000  Uiso   1.00
Zn593  Zn    0.04340   0.25000   0.71760   0.00000  Uiso   1.00
Zn594  Zn    0.45660   0.25000   0.28240   0.00000  Uiso   1.00
Zn595  Zn    0.25000   0.04340   0.71760   0.00000  Uiso   1.00
Zn596  Zn    0.25000   0.45660   0.28240   0.00000  Uiso   1.00
Zn597  Zn    0.29340   0.00000   0.78240   0.00000  Uiso   1.00
Zn598  Zn    0.00000   0.20660   0.21760   0.00000  Uiso   1.00
Zn599  Zn    0.00000   0.29340   0.78240   0.00000  Uiso   1.00
Zn600  Zn    0.29340   0.00000   0.21760   0.00000  Uiso   1.00
Zn601  Zn    0.20660   0.00000   0.78240   0.00000  Uiso   1.00
Zn602  Zn    0.00000   0.29340   0.21760   0.00000  Uiso   1.00
Zn603  Zn    0.00000   0.20660   0.78240   0.00000  Uiso   1.00
Zn604  Zn    0.45660   0.25000   0.71760   0.00000  Uiso   1.00
C605   C     0.71865   0.01115   0.04186   0.00000  Uiso   1.00
C606   C     0.52732   0.26903   0.45774   0.00000  Uiso   1.00
C607   C     0.84804   0.40167   0.75023   0.00000  Uiso   1.00
C608   C     0.90191   0.15171   0.24993   0.00000  Uiso   1.00
C609   C     0.59834   0.34804   0.75024   0.00000  Uiso   1.00
C610   C     0.84828   0.40190   0.24992   0.00000  Uiso   1.00
C611   C     0.65197   0.09834   0.75024   0.00000  Uiso   1.00
C612   C     0.59828   0.15189   0.74992   0.00000  Uiso   1.00
C613   C     0.90197   0.34834   0.25024   0.00000  Uiso   1.00
C614   C     0.65189   0.40173   0.74991   0.00000  Uiso   1.00
C615   C     0.84835   0.09802   0.25026   0.00000  Uiso   1.00
C616   C     0.90174   0.34812   0.74990   0.00000  Uiso   1.00
C617   C     0.73885   0.46865   0.54186   0.00000  Uiso   1.00
C618   C     0.59804   0.15167   0.25023   0.00000  Uiso   1.00
C619   C     0.84811   0.09827   0.74991   0.00000  Uiso   1.00
C620   C     0.65166   0.40196   0.25024   0.00000  Uiso   1.00
C621   C     0.75000  -0.00000   0.10251   0.00000  Uiso   1.00
C622   C     0.75000  -0.00000   0.89723   0.00000  Uiso   1.00
C623   C     0.50000   0.25000   0.10251   0.00000  Uiso   1.00
C624   C     0.50000   0.25000   0.89723   0.00000  Uiso   1.00
C625   C     0.50000   0.24999   0.60251   0.00000  Uiso   1.00
C626   C     0.50000   0.24999   0.39723   0.00000  Uiso   1.00
C627   C     0.75001  -0.00000   0.60251   0.00000  Uiso   1.00
C628   C     0.73094   0.02731   0.45774   0.00000  Uiso   1.00
C629   C     0.75000   0.00000   0.39723   0.00000  Uiso   1.00
C630   C     0.68643   0.05575   0.01004   0.00000  Uiso   1.00
C631   C     0.67648   0.08210   0.04283   0.00000  Uiso   1.00
C632   C     0.67023   0.12035   0.02732   0.00000  Uiso   1.00
C633   C     0.79549   0.07050   0.99075   0.00000  Uiso   1.00
C634   C     0.79034   0.09859   0.95827   0.00000  Uiso   1.00
C635   C     0.78430   0.13645   0.97492   0.00000  Uiso   1.00
C636   C     0.94421   0.18642   0.01008   0.00000  Uiso   1.00
C637   C     0.91791   0.17641   0.04289   0.00000  Uiso   1.00
C638   C     0.87965   0.17017   0.02743   0.00000  Uiso   1.00
C639   C     0.53134   0.23881   0.54186   0.00000  Uiso   1.00
C640   C     0.92949   0.29549   0.99076   0.00000  Uiso   1.00
C641   C     0.90139   0.29030   0.95828   0.00000  Uiso   1.00
C642   C     0.86354   0.28424   0.97494   0.00000  Uiso   1.00
C643   C     0.81356   0.44421   0.01006   0.00000  Uiso   1.00
C644   C     0.82355   0.41788   0.04286   0.00000  Uiso   1.00
C645   C     0.82979   0.37963   0.02737   0.00000  Uiso   1.00
C646   C     0.70451   0.42948   0.99075   0.00000  Uiso   1.00
C647   C     0.70971   0.40139   0.95827   0.00000  Uiso   1.00
C648   C     0.71575   0.36354   0.97492   0.00000  Uiso   1.00
C649   C     0.55576   0.31356   0.01004   0.00000  Uiso   1.00
C650   C     0.97268   0.23091   0.45773   0.00000  Uiso   1.00
C651   C     0.58210   0.32353   0.04283   0.00000  Uiso   1.00
C652   C     0.62035   0.32978   0.02733   0.00000  Uiso   1.00
C653   C     0.57050   0.20451   0.99075   0.00000  Uiso   1.00
C654   C     0.59859   0.20971   0.95827   0.00000  Uiso   1.00
C655   C     0.63645   0.21573   0.97492   0.00000  Uiso   1.00
C656   C     0.93643   0.30574   0.51003   0.00000  Uiso   1.00
C657   C     0.92648   0.33210   0.54281   0.00000  Uiso   1.00
C658   C     0.92023   0.37034   0.52730   0.00000  Uiso   1.00
C659   C     0.54550   0.32047   0.49076   0.00000  Uiso   1.00
C660   C     0.54036   0.34857   0.45827   0.00000  Uiso   1.00
C661   C     0.76117   0.03135   0.54186   0.00000  Uiso   1.00
C662   C     0.53432   0.38643   0.47492   0.00000  Uiso   1.00
C663   C     0.69425   0.43642   0.51005   0.00000  Uiso   1.00
C664   C     0.66791   0.42645   0.54284   0.00000  Uiso   1.00
C665   C     0.62967   0.42020   0.52735   0.00000  Uiso   1.00
C666   C     0.67950   0.04548   0.49076   0.00000  Uiso   1.00
C667   C     0.65141   0.04030   0.45828   0.00000  Uiso   1.00
C668   C     0.61355   0.03425   0.47495   0.00000  Uiso   1.00
C669   C     0.56353   0.19415   0.51011   0.00000  Uiso   1.00
C670   C     0.57365   0.16788   0.54291   0.00000  Uiso   1.00
C671   C     0.57988   0.12961   0.52747   0.00000  Uiso   1.00
C672   C     0.76907   0.47269   0.45773   0.00000  Uiso   1.00
C673   C     0.95450   0.17948   0.49078   0.00000  Uiso   1.00
C674   C     0.95993   0.15141   0.45832   0.00000  Uiso   1.00
C675   C     0.96590   0.11355   0.47501   0.00000  Uiso   1.00
C676   C     0.80577   0.06358   0.51004   0.00000  Uiso   1.00
C677   C     0.83212   0.07350   0.54283   0.00000  Uiso   1.00
C678   C     0.87037   0.07976   0.52732   0.00000  Uiso   1.00
C679   C     0.82053   0.45451   0.49073   0.00000  Uiso   1.00
C680   C     0.84862   0.45963   0.45824   0.00000  Uiso   1.00
C681   C     0.88647   0.46569   0.47488   0.00000  Uiso   1.00
C682   C     0.60305   0.44527   0.22078   0.00000  Uiso   1.00
C683   C     0.71866   0.00975   0.08223   0.00000  Uiso   1.00
C684   C     0.59854   0.46896   0.25700   0.00000  Uiso   1.00
C685   C     0.87306   0.07950   0.81734   0.00000  Uiso   1.00
C686   C     0.88596   0.04001   0.81921   0.00000  Uiso   1.00
C687   C     0.55474   0.10305   0.22078   0.00000  Uiso   1.00
C688   C     0.53105   0.09854   0.25699   0.00000  Uiso   1.00
C689   C     0.92051   0.37307   0.81733   0.00000  Uiso   1.00
C690   C     0.96001   0.38597   0.81919   0.00000  Uiso   1.00
C691   C     0.89701   0.05462   0.22109   0.00000  Uiso   1.00
C692   C     0.90137   0.03101   0.25738   0.00000  Uiso   1.00
C693   C     0.62690   0.42054   0.81732   0.00000  Uiso   1.00
C694   C     0.77782   0.01737   0.91738   0.00000  Uiso   1.00
C695   C     0.61401   0.46003   0.81915   0.00000  Uiso   1.00
C696   C     0.94531   0.39697   0.22089   0.00000  Uiso   1.00
C697   C     0.96898   0.40143   0.25714   0.00000  Uiso   1.00
C698   C     0.57946   0.12689   0.81731   0.00000  Uiso   1.00
C699   C     0.53997   0.11400   0.81914   0.00000  Uiso   1.00
C700   C     0.60307   0.05541   0.77929   0.00000  Uiso   1.00
C701   C     0.59649   0.03367   0.74204   0.00000  Uiso   1.00
C702   C     0.87532   0.42298   0.18363   0.00000  Uiso   1.00
C703   C     0.84402   0.40943   0.15824   0.00000  Uiso   1.00
C704   C     0.55542   0.39693   0.77933   0.00000  Uiso   1.00
C705   C     0.99025   0.21866   0.08224   0.00000  Uiso   1.00
C706   C     0.53366   0.40353   0.74210   0.00000  Uiso   1.00
C707   C     0.92310   0.12454   0.18374   0.00000  Uiso   1.00
C708   C     0.90959   0.15577   0.15823   0.00000  Uiso   1.00
C709   C     0.89692   0.44458   0.77936   0.00000  Uiso   1.00
C710   C     0.90354   0.46634   0.74214   0.00000  Uiso   1.00
C711   C     0.62477   0.07710   0.18356   0.00000  Uiso   1.00
C712   C     0.65611   0.09065   0.15823   0.00000  Uiso   1.00
C713   C     0.94457   0.10308   0.77936   0.00000  Uiso   1.00
C714   C     0.96631   0.09645   0.74212   0.00000  Uiso   1.00
C715   C     0.57710   0.37524   0.18357   0.00000  Uiso   1.00
C716   C     0.77732   0.01905   0.95774   0.00000  Uiso   1.00
C717   C     0.98262   0.27782   0.91738   0.00000  Uiso   1.00
C718   C     0.59065   0.34390   0.15824   0.00000  Uiso   1.00
C719   C     0.85306   0.19526   0.72076   0.00000  Uiso   1.00
C720   C     0.84854   0.21896   0.75697   0.00000  Uiso   1.00
C721   C     0.62308   0.32948   0.31733   0.00000  Uiso   1.00
C722   C     0.63598   0.28999   0.31917   0.00000  Uiso   1.00
C723   C     0.80476   0.35307   0.72072   0.00000  Uiso   1.00
C724   C     0.78105   0.34852   0.75691   0.00000  Uiso   1.00
C725   C     0.67057   0.12313   0.31729   0.00000  Uiso   1.00
C726   C     0.71006   0.13603   0.31909   0.00000  Uiso   1.00
C727   C     0.64695   0.30473   0.72079   0.00000  Uiso   1.00
C728   C     0.78134   0.49024   0.08224   0.00000  Uiso   1.00
C729   C     0.65146   0.28104   0.75700   0.00000  Uiso   1.00
C730   C     0.87681   0.17060   0.31726   0.00000  Uiso   1.00
C731   C     0.86392   0.21010   0.31902   0.00000  Uiso   1.00
C732   C     0.69530   0.14697   0.72088   0.00000  Uiso   1.00
C733   C     0.71897   0.15143   0.75712   0.00000  Uiso   1.00
C734   C     0.82945   0.37688   0.31730   0.00000  Uiso   1.00
C735   C     0.78996   0.36398   0.31912   0.00000  Uiso   1.00
C736   C     0.85305   0.30541   0.27924   0.00000  Uiso   1.00
C737   C     0.84648   0.28370   0.24196   0.00000  Uiso   1.00
C738   C     0.62531   0.17296   0.68362   0.00000  Uiso   1.00
C739   C     0.72218   0.48261   0.91738   0.00000  Uiso   1.00
C740   C     0.59401   0.15942   0.65823   0.00000  Uiso   1.00
C741   C     0.80538   0.14696   0.27917   0.00000  Uiso   1.00
C742   C     0.78366   0.15347   0.24189   0.00000  Uiso   1.00
C743   C     0.67291   0.37476   0.68357   0.00000  Uiso   1.00
C744   C     0.65936   0.40609   0.65824   0.00000  Uiso   1.00
C745   C     0.64693   0.19460   0.27930   0.00000  Uiso   1.00
C746   C     0.65351   0.21635   0.24206   0.00000  Uiso   1.00
C747   C     0.87481   0.32714   0.68353   0.00000  Uiso   1.00
C748   C     0.90617   0.34070   0.65824   0.00000  Uiso   1.00
C749   C     0.69458   0.35307   0.27933   0.00000  Uiso   1.00
C750   C     0.50975   0.28134   0.08223   0.00000  Uiso   1.00
C751   C     0.71632   0.34646   0.24208   0.00000  Uiso   1.00
C752   C     0.82711   0.12522   0.68356   0.00000  Uiso   1.00
C753   C     0.84067   0.09388   0.65824   0.00000  Uiso   1.00
C754   C     0.51737   0.22218   0.91738   0.00000  Uiso   1.00
C755   C     0.96866   0.25975   0.58223   0.00000  Uiso   1.00
C756   C     0.52782   0.26736   0.41739   0.00000  Uiso   1.00
C757   C     0.74026   0.46866   0.58223   0.00000  Uiso   1.00
C758   C     0.73262   0.02782   0.41738   0.00000  Uiso   1.00
C759   C     0.53134   0.24022   0.58224   0.00000  Uiso   1.00
C760   C     0.98883   0.21865   0.04186   0.00000  Uiso   1.00
C761   C     0.97218   0.23261   0.41737   0.00000  Uiso   1.00
C762   C     0.75976   0.03134   0.58224   0.00000  Uiso   1.00
C763   C     0.76739   0.47218   0.41738   0.00000  Uiso   1.00
C764   C     0.75000   0.49999   0.02121   0.00000  Uiso   1.00
C765   C     0.75000   0.49999   0.97846   0.00000  Uiso   1.00
C766   C     0.99999   0.25000   0.02121   0.00000  Uiso   1.00
C767   C     0.99999   0.25000   0.97846   0.00000  Uiso   1.00
C768   C     0.99999   0.24997   0.52121   0.00000  Uiso   1.00
C769   C     0.50000   0.24997   0.47846   0.00000  Uiso   1.00
C770   C     0.75001  -0.00000   0.52121   0.00000  Uiso   1.00
C771   C     0.98093   0.27731   0.95774   0.00000  Uiso   1.00
C772   C     0.75001   0.00000   0.47846   0.00000  Uiso   1.00
C773   C     0.75000   0.00000   0.35504   0.00000  Uiso   1.00
C774   C     0.75000   0.00000   0.64487   0.00000  Uiso   1.00
C775   C     0.50000   0.25000   0.35504   0.00000  Uiso   1.00
C776   C     0.50000   0.25000   0.64487   0.00000  Uiso   1.00
C777   C     0.50000   0.25000   0.85504   0.00000  Uiso   1.00
C778   C     0.50000   0.25000   0.14487   0.00000  Uiso   1.00
C779   C     0.75000  -0.00000   0.85504   0.00000  Uiso   1.00
C780   C     0.75000   0.00000   0.14487   0.00000  Uiso   1.00
C781   C     0.67983   0.06997   0.25009   0.00000  Uiso   1.00
C782   C     0.78135   0.48883   0.04186   0.00000  Uiso   1.00
C783   C     0.82008   0.42994   0.75000   0.00000  Uiso   1.00
C784   C     0.93003   0.17983   0.25010   0.00000  Uiso   1.00
C785   C     0.57006   0.32007   0.75000   0.00000  Uiso   1.00
C786   C     0.82017   0.43003   0.25010   0.00000  Uiso   1.00
C787   C     0.67993   0.07006   0.75000   0.00000  Uiso   1.00
C788   C     0.56997   0.32017   0.25010   0.00000  Uiso   1.00
C789   C     0.92994   0.17993   0.75000   0.00000  Uiso   1.00
C790   C     0.68003   0.42983   0.75010   0.00000  Uiso   1.00
C791   C     0.82006   0.07007   0.25000   0.00000  Uiso   1.00
C792   C     0.92983   0.31997   0.75010   0.00000  Uiso   1.00
C793   C     0.72268   0.48093   0.95773   0.00000  Uiso   1.00
C794   C     0.57007   0.17994   0.25000   0.00000  Uiso   1.00
C795   C     0.81997   0.07017   0.75010   0.00000  Uiso   1.00
C796   C     0.67994   0.42993   0.25000   0.00000  Uiso   1.00
C797   C     0.57017   0.18003   0.75010   0.00000  Uiso   1.00
C798   C     0.92993   0.32006   0.25000   0.00000  Uiso   1.00
C799   C     0.61824   0.40775   0.23062   0.00000  Uiso   1.00
C800   C     0.87684   0.09700   0.77731   0.00000  Uiso   1.00
C801   C     0.59226   0.11824   0.23062   0.00000  Uiso   1.00
C802   C     0.90300   0.37685   0.77730   0.00000  Uiso   1.00
C803   C     0.88181   0.09218   0.23077   0.00000  Uiso   1.00
C804   C     0.51116   0.28135   0.04186   0.00000  Uiso   1.00
C805   C     0.62314   0.40301   0.77729   0.00000  Uiso   1.00
C806   C     0.90778   0.38178   0.23068   0.00000  Uiso   1.00
C807   C     0.59699   0.12314   0.77728   0.00000  Uiso   1.00
C808   C     0.61856   0.09274   0.76995   0.00000  Uiso   1.00
C809   C     0.87710   0.40281   0.22243   0.00000  Uiso   1.00
C810   C     0.59274   0.38144   0.76997   0.00000  Uiso   1.00
C811   C     0.90287   0.12284   0.22250   0.00000  Uiso   1.00
C812   C     0.88143   0.40726   0.76998   0.00000  Uiso   1.00
C813   C     0.62295   0.09722   0.22239   0.00000  Uiso   1.00
C814   C     0.90725   0.11857   0.76999   0.00000  Uiso   1.00
C815   C     0.51905   0.22268   0.95774   0.00000  Uiso   1.00
C816   C     0.59722   0.37706   0.22239   0.00000  Uiso   1.00
C817   C     0.86824   0.15774   0.73062   0.00000  Uiso   1.00
C818   C     0.62685   0.34700   0.27730   0.00000  Uiso   1.00
C819   C     0.84227   0.36825   0.73059   0.00000  Uiso   1.00
C820   C     0.65302   0.12687   0.27727   0.00000  Uiso   1.00
C821   C     0.63176   0.34226   0.73063   0.00000  Uiso   1.00
C822   C     0.87311   0.15304   0.27725   0.00000  Uiso   1.00
C823   C     0.65777   0.13178   0.73067   0.00000  Uiso   1.00
C824   C     0.84698   0.37314   0.27728   0.00000  Uiso   1.00
C825   C     0.86856   0.34274   0.26994   0.00000  Uiso   1.00
C826   C     0.96865   0.26114   0.54186   0.00000  Uiso   1.00
C827   C     0.62709   0.15281   0.72243   0.00000  Uiso   1.00
C828   C     0.84272   0.13146   0.26990   0.00000  Uiso   1.00
C829   C     0.65278   0.37294   0.72239   0.00000  Uiso   1.00
C830   C     0.63145   0.15727   0.26995   0.00000  Uiso   1.00
C831   C     0.87297   0.34724   0.72237   0.00000  Uiso   1.00
C832   C     0.65726   0.36856   0.26997   0.00000  Uiso   1.00
C833   C     0.84723   0.12705   0.72239   0.00000  Uiso   1.00
C834   C     0.59811   0.34827   0.24991   0.00000  Uiso   1.00
C835   C     0.90166   0.15197   0.75024   0.00000  Uiso   1.00
C836   C     0.65174   0.09812   0.24990   0.00000  Uiso   1.00
H837   H     0.69413   0.01705   0.09771   0.00000  Uiso   1.00
H838   H     0.54952   0.28078   0.40174   0.00000  Uiso   1.00
H839   H     0.60483   0.05823   0.49206   0.00000  Uiso   1.00
H840   H     0.58441   0.19208   0.48695   0.00000  Uiso   1.00
H841   H     0.53756   0.18617   0.49626   0.00000  Uiso   1.00
H842   H     0.59885   0.17747   0.55734   0.00000  Uiso   1.00
H843   H     0.55153   0.16707   0.56481   0.00000  Uiso   1.00
H844   H     0.55506   0.11937   0.51288   0.00000  Uiso   1.00
H845   H     0.58663   0.11121   0.55197   0.00000  Uiso   1.00
H846   H     0.60276   0.12939   0.50649   0.00000  Uiso   1.00
H847   H     0.93220   0.16989   0.50989   0.00000  Uiso   1.00
H848   H     0.97877   0.18127   0.50966   0.00000  Uiso   1.00
H849   H     0.73296   0.44413   0.59771   0.00000  Uiso   1.00
H850   H     0.93564   0.15102   0.43920   0.00000  Uiso   1.00
H851   H     0.98394   0.15880   0.44052   0.00000  Uiso   1.00
H852   H     0.99005   0.11334   0.49426   0.00000  Uiso   1.00
H853   H     0.97037   0.09399   0.45096   0.00000  Uiso   1.00
H854   H     0.94178   0.10477   0.49188   0.00000  Uiso   1.00
H855   H     0.80782   0.08456   0.48699   0.00000  Uiso   1.00
H856   H     0.81367   0.03766   0.49602   0.00000  Uiso   1.00
H857   H     0.82260   0.09864   0.55742   0.00000  Uiso   1.00
H858   H     0.83297   0.05127   0.56459   0.00000  Uiso   1.00
H859   H     0.88053   0.05501   0.51253   0.00000  Uiso   1.00
H860   H     0.71920   0.04952   0.40173   0.00000  Uiso   1.00
H861   H     0.88884   0.08634   0.55180   0.00000  Uiso   1.00
H862   H     0.87057   0.10276   0.50649   0.00000  Uiso   1.00
H863   H     0.83004   0.43231   0.51002   0.00000  Uiso   1.00
H864   H     0.81881   0.47892   0.50942   0.00000  Uiso   1.00
H865   H     0.84897   0.43518   0.43935   0.00000  Uiso   1.00
H866   H     0.84126   0.48351   0.44020   0.00000  Uiso   1.00
H867   H     0.88673   0.49005   0.49384   0.00000  Uiso   1.00
H868   H     0.90606   0.46986   0.45079   0.00000  Uiso   1.00
H869   H     0.89519   0.44174   0.49205   0.00000  Uiso   1.00
H870   H     0.58033   0.45533   0.27816   0.00000  Uiso   1.00
H871   H     0.55586   0.23292   0.59771   0.00000  Uiso   1.00
H872   H     0.62481   0.47465   0.27137   0.00000  Uiso   1.00
H873   H     0.58620   0.49531   0.24864   0.00000  Uiso   1.00
H874   H     0.61949   0.45911   0.19827   0.00000  Uiso   1.00
H875   H     0.57535   0.44315   0.20839   0.00000  Uiso   1.00
H876   H     0.86608   0.02338   0.83565   0.00000  Uiso   1.00
H877   H     0.88899   0.02843   0.78973   0.00000  Uiso   1.00
H878   H     0.91237   0.03802   0.83453   0.00000  Uiso   1.00
H879   H     0.88854   0.09557   0.83910   0.00000  Uiso   1.00
H880   H     0.84442   0.08139   0.82721   0.00000  Uiso   1.00
H881   H     0.54468   0.08033   0.27815   0.00000  Uiso   1.00
H882   H     0.95048   0.21919   0.40172   0.00000  Uiso   1.00
H883   H     0.52537   0.12480   0.27137   0.00000  Uiso   1.00
H884   H     0.50470   0.08620   0.24863   0.00000  Uiso   1.00
H885   H     0.54089   0.11949   0.19827   0.00000  Uiso   1.00
H886   H     0.55685   0.07535   0.20838   0.00000  Uiso   1.00
H887   H     0.97664   0.36609   0.83564   0.00000  Uiso   1.00
H888   H     0.97158   0.38899   0.78970   0.00000  Uiso   1.00
H889   H     0.96200   0.41239   0.83450   0.00000  Uiso   1.00
H890   H     0.90445   0.38856   0.83909   0.00000  Uiso   1.00
H891   H     0.91862   0.34444   0.82720   0.00000  Uiso   1.00
H892   H     0.91948   0.04469   0.27861   0.00000  Uiso   1.00
H893   H     0.76706   0.05587   0.59771   0.00000  Uiso   1.00
H894   H     0.87504   0.02534   0.27163   0.00000  Uiso   1.00
H895   H     0.91376   0.00465   0.24915   0.00000  Uiso   1.00
H896   H     0.88065   0.04073   0.19855   0.00000  Uiso   1.00
H897   H     0.92476   0.05669   0.20881   0.00000  Uiso   1.00
H898   H     0.63388   0.47667   0.83560   0.00000  Uiso   1.00
H899   H     0.61100   0.47159   0.78966   0.00000  Uiso   1.00
H900   H     0.58759   0.46203   0.83445   0.00000  Uiso   1.00
H901   H     0.61141   0.40448   0.83907   0.00000  Uiso   1.00
H902   H     0.65554   0.41864   0.82720   0.00000  Uiso   1.00
H903   H     0.95533   0.41960   0.27832   0.00000  Uiso   1.00
H904   H     0.78081   0.45048   0.40172   0.00000  Uiso   1.00
H905   H     0.97465   0.37514   0.27146   0.00000  Uiso   1.00
H906   H     0.99533   0.41379   0.24882   0.00000  Uiso   1.00
H907   H     0.95917   0.38056   0.19837   0.00000  Uiso   1.00
H908   H     0.94322   0.42469   0.20854   0.00000  Uiso   1.00
H909   H     0.52334   0.13385   0.83562   0.00000  Uiso   1.00
H910   H     0.52840   0.11103   0.78965   0.00000  Uiso   1.00
H911   H     0.53797   0.08756   0.83440   0.00000  Uiso   1.00
H912   H     0.59552   0.11139   0.83906   0.00000  Uiso   1.00
H913   H     0.58135   0.15552   0.82720   0.00000  Uiso   1.00
H914   H     0.58184   0.05054   0.72037   0.00000  Uiso   1.00
H915   H     0.66546   0.05780   0.98698   0.00000  Uiso   1.00
H916   H     0.62237   0.02421   0.72916   0.00000  Uiso   1.00
H917   H     0.57938   0.00964   0.74844   0.00000  Uiso   1.00
H918   H     0.61989   0.04033   0.80043   0.00000  Uiso   1.00
H919   H     0.57632   0.05765   0.79348   0.00000  Uiso   1.00
H920   H     0.84784   0.38023   0.15145   0.00000  Uiso   1.00
H921   H     0.81732   0.41291   0.17248   0.00000  Uiso   1.00
H922   H     0.84367   0.42488   0.13057   0.00000  Uiso   1.00
H923   H     0.87427   0.45276   0.18777   0.00000  Uiso   1.00
H924   H     0.90001   0.41800   0.16600   0.00000  Uiso   1.00
H925   H     0.55052   0.41818   0.72043   0.00000  Uiso   1.00
H926   H     0.71235   0.06366   0.99604   0.00000  Uiso   1.00
H927   H     0.52420   0.37765   0.72921   0.00000  Uiso   1.00
H928   H     0.50964   0.42063   0.74851   0.00000  Uiso   1.00
H929   H     0.54034   0.38009   0.80047   0.00000  Uiso   1.00
H930   H     0.55766   0.42366   0.79354   0.00000  Uiso   1.00
H931   H     0.88041   0.15190   0.15136   0.00000  Uiso   1.00
H932   H     0.91298   0.18251   0.17242   0.00000  Uiso   1.00
H933   H     0.92510   0.15609   0.13061   0.00000  Uiso   1.00
H934   H     0.95288   0.12561   0.18794   0.00000  Uiso   1.00
H935   H     0.91817   0.09980   0.16616   0.00000  Uiso   1.00
H936   H     0.91820   0.44948   0.72047   0.00000  Uiso   1.00
H937   H     0.65134   0.07257   0.05741   0.00000  Uiso   1.00
H938   H     0.87767   0.47581   0.72924   0.00000  Uiso   1.00
H939   H     0.92064   0.49036   0.74857   0.00000  Uiso   1.00
H940   H     0.88007   0.45965   0.80050   0.00000  Uiso   1.00
H941   H     0.92365   0.44233   0.79359   0.00000  Uiso   1.00
H942   H     0.65233   0.11986   0.15149   0.00000  Uiso   1.00
H943   H     0.68279   0.08712   0.17250   0.00000  Uiso   1.00
H944   H     0.65648   0.07525   0.13054   0.00000  Uiso   1.00
H945   H     0.62580   0.04731   0.18767   0.00000  Uiso   1.00
H946   H     0.60010   0.08211   0.16590   0.00000  Uiso   1.00
H947   H     0.94944   0.08180   0.72046   0.00000  Uiso   1.00
H948   H     0.79952   0.03079   0.90173   0.00000  Uiso   1.00
H949   H     0.69870   0.08295   0.06461   0.00000  Uiso   1.00
H950   H     0.97579   0.12232   0.72923   0.00000  Uiso   1.00
H951   H     0.99032   0.07933   0.74854   0.00000  Uiso   1.00
H952   H     0.95964   0.11992   0.80049   0.00000  Uiso   1.00
H953   H     0.94232   0.07635   0.79359   0.00000  Uiso   1.00
H954   H     0.61987   0.34768   0.15150   0.00000  Uiso   1.00
H955   H     0.58712   0.31721   0.17251   0.00000  Uiso   1.00
H956   H     0.57525   0.34352   0.13054   0.00000  Uiso   1.00
H957   H     0.54731   0.37420   0.18767   0.00000  Uiso   1.00
H958   H     0.58211   0.39990   0.16590   0.00000  Uiso   1.00
H959   H     0.83032   0.20533   0.77813   0.00000  Uiso   1.00
H960   H     0.69498   0.13052   0.01255   0.00000  Uiso   1.00
H961   H     0.87479   0.22465   0.77135   0.00000  Uiso   1.00
H962   H     0.83620   0.24531   0.74860   0.00000  Uiso   1.00
H963   H     0.86950   0.20910   0.69825   0.00000  Uiso   1.00
H964   H     0.82536   0.19314   0.70836   0.00000  Uiso   1.00
H965   H     0.61611   0.27336   0.33563   0.00000  Uiso   1.00
H966   H     0.63899   0.27842   0.28969   0.00000  Uiso   1.00
H967   H     0.66240   0.28800   0.33447   0.00000  Uiso   1.00
H968   H     0.63857   0.34554   0.33908   0.00000  Uiso   1.00
H969   H     0.59445   0.33137   0.32720   0.00000  Uiso   1.00
H970   H     0.79467   0.33029   0.77807   0.00000  Uiso   1.00
H971   H     0.66363   0.13882   0.05181   0.00000  Uiso   1.00
H972   H     0.77536   0.37477   0.77131   0.00000  Uiso   1.00
H973   H     0.75471   0.33619   0.74853   0.00000  Uiso   1.00
H974   H     0.79092   0.36951   0.69821   0.00000  Uiso   1.00
H975   H     0.80688   0.32537   0.70830   0.00000  Uiso   1.00
H976   H     0.72671   0.11616   0.33553   0.00000  Uiso   1.00
H977   H     0.72160   0.13903   0.28959   0.00000  Uiso   1.00
H978   H     0.71207   0.16245   0.33438   0.00000  Uiso   1.00
H979   H     0.65452   0.13864   0.33905   0.00000  Uiso   1.00
H980   H     0.66867   0.09451   0.32720   0.00000  Uiso   1.00
H981   H     0.66966   0.29468   0.77817   0.00000  Uiso   1.00
H982   H     0.64723   0.12055   0.00648   0.00000  Uiso   1.00
H983   H     0.62519   0.27536   0.77137   0.00000  Uiso   1.00
H984   H     0.66380   0.25469   0.74865   0.00000  Uiso   1.00
H985   H     0.63052   0.29088   0.69828   0.00000  Uiso   1.00
H986   H     0.67465   0.30684   0.70840   0.00000  Uiso   1.00
H987   H     0.88376   0.22674   0.33552   0.00000  Uiso   1.00
H988   H     0.86099   0.22164   0.28951   0.00000  Uiso   1.00
H989   H     0.83746   0.21211   0.33424   0.00000  Uiso   1.00
H990   H     0.86128   0.15457   0.33901   0.00000  Uiso   1.00
H991   H     0.90543   0.16871   0.32720   0.00000  Uiso   1.00
H992   H     0.70532   0.16961   0.77830   0.00000  Uiso   1.00
H993   H     0.81770   0.08002   0.01003   0.00000  Uiso   1.00
H994   H     0.72465   0.12515   0.77145   0.00000  Uiso   1.00
H995   H     0.74532   0.16379   0.74880   0.00000  Uiso   1.00
H996   H     0.70916   0.13056   0.69836   0.00000  Uiso   1.00
H997   H     0.69320   0.17469   0.70852   0.00000  Uiso   1.00
H998   H     0.77333   0.38383   0.33562   0.00000  Uiso   1.00
H999   H     0.77839   0.36103   0.28963   0.00000  Uiso   1.00
H1000  H     0.78797   0.33753   0.33437   0.00000  Uiso   1.00
H1001  H     0.84551   0.36137   0.33905   0.00000  Uiso   1.00
H1002  H     0.83134   0.40551   0.32720   0.00000  Uiso   1.00
H1003  H     0.83187   0.30059   0.22029   0.00000  Uiso   1.00
H1004  H     0.77110   0.06877   0.00946   0.00000  Uiso   1.00
H1005  H     0.87237   0.27423   0.22911   0.00000  Uiso   1.00
H1006  H     0.82935   0.25968   0.24832   0.00000  Uiso   1.00
H1007  H     0.86987   0.29031   0.30037   0.00000  Uiso   1.00
H1008  H     0.82630   0.30764   0.29342   0.00000  Uiso   1.00
H1009  H     0.59781   0.13022   0.65145   0.00000  Uiso   1.00
H1010  H     0.56730   0.16292   0.67247   0.00000  Uiso   1.00
H1011  H     0.59365   0.17486   0.63056   0.00000  Uiso   1.00
H1012  H     0.62426   0.20275   0.68776   0.00000  Uiso   1.00
H1013  H     0.65000   0.16798   0.66598   0.00000  Uiso   1.00
H1014  H     0.80054   0.16810   0.22021   0.00000  Uiso   1.00
H1015  H     0.81477   0.09894   0.93936   0.00000  Uiso   1.00
H1016  H     0.77423   0.12756   0.22905   0.00000  Uiso   1.00
H1017  H     0.75962   0.17057   0.24824   0.00000  Uiso   1.00
H1018  H     0.79029   0.13016   0.30033   0.00000  Uiso   1.00
H1019  H     0.80760   0.17373   0.29332   0.00000  Uiso   1.00
H1020  H     0.63014   0.40231   0.65149   0.00000  Uiso   1.00
H1021  H     0.66288   0.43278   0.67250   0.00000  Uiso   1.00
H1022  H     0.67476   0.40647   0.63055   0.00000  Uiso   1.00
H1023  H     0.70270   0.37579   0.68768   0.00000  Uiso   1.00
H1024  H     0.66790   0.35009   0.66591   0.00000  Uiso   1.00
H1025  H     0.66816   0.19949   0.22038   0.00000  Uiso   1.00
H1026  H     0.76645   0.09123   0.94025   0.00000  Uiso   1.00
H1027  H     0.62763   0.22581   0.22918   0.00000  Uiso   1.00
H1028  H     0.67061   0.24038   0.24846   0.00000  Uiso   1.00
H1029  H     0.63010   0.20967   0.30044   0.00000  Uiso   1.00
H1030  H     0.67367   0.19237   0.29350   0.00000  Uiso   1.00
H1031  H     0.90241   0.36992   0.65151   0.00000  Uiso   1.00
H1032  H     0.93285   0.33715   0.67252   0.00000  Uiso   1.00
H1033  H     0.90656   0.32531   0.63053   0.00000  Uiso   1.00
H1034  H     0.87583   0.29734   0.68762   0.00000  Uiso   1.00
H1035  H     0.85016   0.33216   0.66585   0.00000  Uiso   1.00
H1036  H     0.69944   0.33182   0.22041   0.00000  Uiso   1.00
H1037  H     0.75996   0.13669   0.99391   0.00000  Uiso   1.00
H1038  H     0.72579   0.37234   0.22920   0.00000  Uiso   1.00
H1039  H     0.74033   0.32935   0.24849   0.00000  Uiso   1.00
H1040  H     0.70966   0.36991   0.30046   0.00000  Uiso   1.00
H1041  H     0.69233   0.32634   0.29354   0.00000  Uiso   1.00
H1042  H     0.86989   0.09765   0.65150   0.00000  Uiso   1.00
H1043  H     0.83714   0.06719   0.67252   0.00000  Uiso   1.00
H1044  H     0.82527   0.09349   0.63054   0.00000  Uiso   1.00
H1045  H     0.79732   0.12419   0.68765   0.00000  Uiso   1.00
H1046  H     0.83213   0.14988   0.66589   0.00000  Uiso   1.00
H1047  H     0.78009   0.15603   0.95084   0.00000  Uiso   1.00
H1048  H     0.98295   0.19413   0.09771   0.00000  Uiso   1.00
H1049  H     0.80827   0.14516   0.99206   0.00000  Uiso   1.00
H1050  H     0.94216   0.16547   0.98699   0.00000  Uiso   1.00
H1051  H     0.93627   0.21235   0.99613   0.00000  Uiso   1.00
H1052  H     0.92747   0.15125   0.05741   0.00000  Uiso   1.00
H1053  H     0.91708   0.19859   0.06471   0.00000  Uiso   1.00
H1054  H     0.86945   0.19494   0.01272   0.00000  Uiso   1.00
H1055  H     0.86121   0.16351   0.05192   0.00000  Uiso   1.00
H1056  H     0.87943   0.14721   0.00653   0.00000  Uiso   1.00
H1057  H     0.91996   0.31771   0.01001   0.00000  Uiso   1.00
H1058  H     0.93123   0.27112   0.00949   0.00000  Uiso   1.00
H1059  H     0.96920   0.29952   0.90173   0.00000  Uiso   1.00
H1060  H     0.90102   0.31471   0.93935   0.00000  Uiso   1.00
H1061  H     0.90877   0.26640   0.94028   0.00000  Uiso   1.00
H1062  H     0.86331   0.25992   0.99395   0.00000  Uiso   1.00
H1063  H     0.84396   0.28000   0.95087   0.00000  Uiso   1.00
H1064  H     0.85481   0.30821   0.99206   0.00000  Uiso   1.00
H1065  H     0.83452   0.44215   0.98698   0.00000  Uiso   1.00
H1066  H     0.78763   0.43628   0.99609   0.00000  Uiso   1.00
H1067  H     0.84870   0.42743   0.05740   0.00000  Uiso   1.00
H1068  H     0.80135   0.41705   0.06466   0.00000  Uiso   1.00
H1069  H     0.80503   0.36944   0.01264   0.00000  Uiso   1.00
H1070  H     0.80587   0.48294   0.09771   0.00000  Uiso   1.00
H1071  H     0.83642   0.36118   0.05186   0.00000  Uiso   1.00
H1072  H     0.85276   0.37941   0.00650   0.00000  Uiso   1.00
H1073  H     0.68228   0.41995   0.00999   0.00000  Uiso   1.00
H1074  H     0.72887   0.43122   0.00949   0.00000  Uiso   1.00
H1075  H     0.68531   0.40103   0.93932   0.00000  Uiso   1.00
H1076  H     0.73362   0.40876   0.94029   0.00000  Uiso   1.00
H1077  H     0.74005   0.36330   0.99396   0.00000  Uiso   1.00
H1078  H     0.72000   0.34396   0.95085   0.00000  Uiso   1.00
H1079  H     0.69175   0.35481   0.99201   0.00000  Uiso   1.00
H1080  H     0.55781   0.33453   0.98697   0.00000  Uiso   1.00
H1081  H     0.70048   0.46920   0.90173   0.00000  Uiso   1.00
H1082  H     0.56368   0.28764   0.99605   0.00000  Uiso   1.00
H1083  H     0.57257   0.34868   0.05739   0.00000  Uiso   1.00
H1084  H     0.58295   0.30132   0.06462   0.00000  Uiso   1.00
H1085  H     0.63053   0.30502   0.01257   0.00000  Uiso   1.00
H1086  H     0.63881   0.33639   0.05181   0.00000  Uiso   1.00
H1087  H     0.62056   0.35276   0.00647   0.00000  Uiso   1.00
H1088  H     0.58003   0.18229   0.01000   0.00000  Uiso   1.00
H1089  H     0.56876   0.22888   0.00949   0.00000  Uiso   1.00
H1090  H     0.59894   0.18530   0.93932   0.00000  Uiso   1.00
H1091  H     0.59122   0.23362   0.94029   0.00000  Uiso   1.00
H1092  H     0.51705   0.30587   0.09771   0.00000  Uiso   1.00
H1093  H     0.63669   0.24003   0.99396   0.00000  Uiso   1.00
H1094  H     0.65602   0.21999   0.95085   0.00000  Uiso   1.00
H1095  H     0.64517   0.19174   0.99200   0.00000  Uiso   1.00
H1096  H     0.91545   0.30778   0.48696   0.00000  Uiso   1.00
H1097  H     0.96235   0.31364   0.49602   0.00000  Uiso   1.00
H1098  H     0.90134   0.32257   0.55739   0.00000  Uiso   1.00
H1099  H     0.94870   0.33294   0.56459   0.00000  Uiso   1.00
H1100  H     0.94499   0.38050   0.51253   0.00000  Uiso   1.00
H1101  H     0.91363   0.38881   0.55178   0.00000  Uiso   1.00
H1102  H     0.89724   0.37054   0.50645   0.00000  Uiso   1.00
H1103  H     0.53080   0.20048   0.90173   0.00000  Uiso   1.00
H1104  H     0.56770   0.32999   0.51004   0.00000  Uiso   1.00
H1105  H     0.52110   0.31875   0.50946   0.00000  Uiso   1.00
H1106  H     0.56480   0.34892   0.43937   0.00000  Uiso   1.00
H1107  H     0.51648   0.34121   0.44025   0.00000  Uiso   1.00
H1108  H     0.50997   0.38668   0.49390   0.00000  Uiso   1.00
H1109  H     0.53012   0.40601   0.45084   0.00000  Uiso   1.00
H1110  H     0.55828   0.39514   0.49207   0.00000  Uiso   1.00
H1111  H     0.69220   0.41546   0.48697   0.00000  Uiso   1.00
H1112  H     0.68633   0.46235   0.49606   0.00000  Uiso   1.00
H1113  H     0.67746   0.40131   0.55740   0.00000  Uiso   1.00
H1114  H     0.94413   0.26706   0.59771   0.00000  Uiso   1.00
H1115  H     0.66707   0.44866   0.56463   0.00000  Uiso   1.00
H1116  H     0.61948   0.44495   0.51259   0.00000  Uiso   1.00
H1117  H     0.61121   0.41358   0.55183   0.00000  Uiso   1.00
H1118  H     0.62947   0.39721   0.50648   0.00000  Uiso   1.00
H1119  H     0.66997   0.06770   0.51003   0.00000  Uiso   1.00
H1120  H     0.68124   0.02110   0.50949   0.00000  Uiso   1.00
H1121  H     0.65104   0.06473   0.43936   0.00000  Uiso   1.00
H1122  H     0.65877   0.01641   0.44028   0.00000  Uiso   1.00
H1123  H     0.61332   0.00993   0.49395   0.00000  Uiso   1.00
H1124  H     0.59397   0.03002   0.45087   0.00000  Uiso   1.00
O1125  O     0.75000   0.00000   0.25000   0.00000  Uiso   1.00
O1126  O     0.75000   0.46964   0.66317   0.00000  Uiso   1.00
O1127  O     0.96964   0.25000   0.33683   0.00000  Uiso   1.00
O1128  O     0.53036   0.25000   0.66317   0.00000  Uiso   1.00
O1129  O     0.50000   0.21964   0.83683   0.00000  Uiso   1.00
O1130  O     0.50000   0.28036   0.16317   0.00000  Uiso   1.00
O1131  O     0.78036   0.00000   0.83683   0.00000  Uiso   1.00
O1132  O     0.71964   0.00000   0.16317   0.00000  Uiso   1.00
O1133  O     0.50000   0.28036   0.83683   0.00000  Uiso   1.00
O1134  O     0.50000   0.21964   0.16317   0.00000  Uiso   1.00
O1135  O     0.71964   0.00000   0.83683   0.00000  Uiso   1.00
O1136  O     0.75000   0.00000   0.75000   0.00000  Uiso   1.00
O1137  O     0.78036   0.00000   0.16317   0.00000  Uiso   1.00
O1138  O     0.70726   0.07307   0.27282   0.00000  Uiso   1.00
O1139  O     0.79275   0.42693   0.72718   0.00000  Uiso   1.00
O1140  O     0.92693   0.20726   0.27282   0.00000  Uiso   1.00
O1141  O     0.57307   0.29275   0.72718   0.00000  Uiso   1.00
O1142  O     0.79275   0.42693   0.27282   0.00000  Uiso   1.00
O1143  O     0.70726   0.07307   0.72718   0.00000  Uiso   1.00
O1144  O     0.57307   0.29275   0.27282   0.00000  Uiso   1.00
O1145  O     0.92693   0.20726   0.72718   0.00000  Uiso   1.00
O1146  O     0.70726   0.42693   0.72718   0.00000  Uiso   1.00
O1147  O     0.50000   0.25000   0.25000   0.00000  Uiso   1.00
O1148  O     0.79275   0.07307   0.27282   0.00000  Uiso   1.00
O1149  O     0.92693   0.29275   0.72718   0.00000  Uiso   1.00
O1150  O     0.57307   0.20726   0.27282   0.00000  Uiso   1.00
O1151  O     0.79275   0.07307   0.72718   0.00000  Uiso   1.00
O1152  O     0.70726   0.42693   0.27282   0.00000  Uiso   1.00
O1153  O     0.57307   0.20726   0.72718   0.00000  Uiso   1.00
O1154  O     0.92693   0.29275   0.27282   0.00000  Uiso   1.00
O1155  O     0.95726   0.32307   0.77282   0.00000  Uiso   1.00
O1156  O     0.54275   0.17693   0.22718   0.00000  Uiso   1.00
O1157  O     0.67693   0.45726   0.77282   0.00000  Uiso   1.00
O1158  O     0.50000   0.25000   0.75000   0.00000  Uiso   1.00
O1159  O     0.82307   0.04275   0.22718   0.00000  Uiso   1.00
O1160  O     0.54275   0.17693   0.77282   0.00000  Uiso   1.00
O1161  O     0.95726   0.32307   0.22718   0.00000  Uiso   1.00
O1162  O     0.82307   0.04275   0.77282   0.00000  Uiso   1.00
O1163  O     0.67693   0.45726   0.22718   0.00000  Uiso   1.00
O1164  O     0.95726   0.17693   0.22718   0.00000  Uiso   1.00
O1165  O     0.54275   0.32307   0.77282   0.00000  Uiso   1.00
O1166  O     0.67693   0.04275   0.22718   0.00000  Uiso   1.00
O1167  O     0.82307   0.45726   0.77282   0.00000  Uiso   1.00
O1168  O     0.54275   0.32307   0.22718   0.00000  Uiso   1.00
O1169  O     0.75000   0.46964   0.33683   0.00000  Uiso   1.00
O1170  O     0.95726   0.17693   0.77282   0.00000  Uiso   1.00
O1171  O     0.82307   0.45726   0.22718   0.00000  Uiso   1.00
O1172  O     0.67693   0.04275   0.77282   0.00000  Uiso   1.00
O1173  O     0.68635   0.01947   0.02330   0.00000  Uiso   1.00
O1174  O     0.80607   0.03629   0.97600   0.00000  Uiso   1.00
O1175  O     0.98051   0.18635   0.02330   0.00000  Uiso   1.00
O1176  O     0.96369   0.30607   0.97599   0.00000  Uiso   1.00
O1177  O     0.81364   0.48050   0.02330   0.00000  Uiso   1.00
O1178  O     0.69393   0.46368   0.97599   0.00000  Uiso   1.00
O1179  O     0.51948   0.31364   0.02330   0.00000  Uiso   1.00
O1180  O     0.75000   0.03036   0.66317   0.00000  Uiso   1.00
O1181  O     0.53630   0.19393   0.97599   0.00000  Uiso   1.00
O1182  O     0.93635   0.26946   0.52330   0.00000  Uiso   1.00
O1183  O     0.55607   0.28627   0.47601   0.00000  Uiso   1.00
O1184  O     0.73053   0.43635   0.52330   0.00000  Uiso   1.00
O1185  O     0.71370   0.05607   0.47600   0.00000  Uiso   1.00
O1186  O     0.56362   0.23045   0.52329   0.00000  Uiso   1.00
O1187  O     0.94392   0.21367   0.47597   0.00000  Uiso   1.00
O1188  O     0.76949   0.06365   0.52330   0.00000  Uiso   1.00
O1189  O     0.78632   0.44393   0.47599   0.00000  Uiso   1.00
O1190  O     0.53036   0.25000   0.33683   0.00000  Uiso   1.00
O1191  O     0.96964   0.25000   0.66317   0.00000  Uiso   1.00
O1192  O     0.75000   0.03036   0.33683   0.00000  Uiso   1.00
Zn1193 Zn    0.70660   0.00000   0.21760   0.00000  Uiso   1.00
Zn1194 Zn    0.54340   0.25000   0.28240   0.00000  Uiso   1.00
Zn1195 Zn    0.75000   0.45660   0.71760   0.00000  Uiso   1.00
Zn1196 Zn    0.75000   0.04340   0.28240   0.00000  Uiso   1.00
Zn1197 Zn    0.54340   0.25000   0.71760   0.00000  Uiso   1.00
Zn1198 Zn    0.95660   0.25000   0.28240   0.00000  Uiso   1.00
Zn1199 Zn    0.75000   0.04340   0.71760   0.00000  Uiso   1.00
Zn1200 Zn    0.75000   0.45660   0.28240   0.00000  Uiso   1.00
Zn1201 Zn    0.79340   0.00000   0.78240   0.00000  Uiso   1.00
Zn1202 Zn    0.50000   0.20660   0.21760   0.00000  Uiso   1.00
Zn1203 Zn    0.50000   0.29340   0.78240   0.00000  Uiso   1.00
Zn1204 Zn    0.79340   0.00000   0.21760   0.00000  Uiso   1.00
Zn1205 Zn    0.70660   0.00000   0.78240   0.00000  Uiso   1.00
Zn1206 Zn    0.50000   0.29340   0.21760   0.00000  Uiso   1.00
Zn1207 Zn    0.50000   0.20660   0.78240   0.00000  Uiso   1.00
Zn1208 Zn    0.95660   0.25000   0.71760   0.00000  Uiso   1.00
C1209  C     0.21865   0.51115   0.04186   0.00000  Uiso   1.00
C1210  C     0.02732   0.76903   0.45774   0.00000  Uiso   1.00
C1211  C     0.34804   0.90167   0.75023   0.00000  Uiso   1.00
C1212  C     0.40191   0.65171   0.24993   0.00000  Uiso   1.00
C1213  C     0.09834   0.84804   0.75024   0.00000  Uiso   1.00
C1214  C     0.34828   0.90190   0.24992   0.00000  Uiso   1.00
C1215  C     0.15197   0.59834   0.75024   0.00000  Uiso   1.00
C1216  C     0.09828   0.65189   0.74992   0.00000  Uiso   1.00
C1217  C     0.40197   0.84834   0.25024   0.00000  Uiso   1.00
C1218  C     0.15189   0.90173   0.74991   0.00000  Uiso   1.00
C1219  C     0.34835   0.59802   0.25026   0.00000  Uiso   1.00
C1220  C     0.40174   0.84812   0.74990   0.00000  Uiso   1.00
C1221  C     0.23885   0.96865   0.54186   0.00000  Uiso   1.00
C1222  C     0.09804   0.65167   0.25023   0.00000  Uiso   1.00
C1223  C     0.34811   0.59827   0.74991   0.00000  Uiso   1.00
C1224  C     0.15166   0.90196   0.25024   0.00000  Uiso   1.00
C1225  C     0.25000   0.50000   0.10251   0.00000  Uiso   1.00
C1226  C     0.25000   0.50000   0.89723   0.00000  Uiso   1.00
C1227  C     0.00000   0.75000   0.10251   0.00000  Uiso   1.00
C1228  C    -0.00000   0.75000   0.89723   0.00000  Uiso   1.00
C1229  C    -0.00000   0.74999   0.60251   0.00000  Uiso   1.00
C1230  C    -0.00000   0.74999   0.39723   0.00000  Uiso   1.00
C1231  C     0.25001   0.50000   0.60251   0.00000  Uiso   1.00
C1232  C     0.23094   0.52731   0.45774   0.00000  Uiso   1.00
C1233  C     0.25000   0.50000   0.39723   0.00000  Uiso   1.00
C1234  C     0.18643   0.55575   0.01004   0.00000  Uiso   1.00
C1235  C     0.17648   0.58210   0.04283   0.00000  Uiso   1.00
C1236  C     0.17023   0.62035   0.02732   0.00000  Uiso   1.00
C1237  C     0.29549   0.57050   0.99075   0.00000  Uiso   1.00
C1238  C     0.29034   0.59859   0.95827   0.00000  Uiso   1.00
C1239  C     0.28430   0.63645   0.97492   0.00000  Uiso   1.00
C1240  C     0.44421   0.68642   0.01008   0.00000  Uiso   1.00
C1241  C     0.41791   0.67641   0.04289   0.00000  Uiso   1.00
C1242  C     0.37965   0.67017   0.02743   0.00000  Uiso   1.00
C1243  C     0.03134   0.73881   0.54186   0.00000  Uiso   1.00
C1244  C     0.42949   0.79549   0.99076   0.00000  Uiso   1.00
C1245  C     0.40139   0.79030   0.95828   0.00000  Uiso   1.00
C1246  C     0.36354   0.78424   0.97494   0.00000  Uiso   1.00
C1247  C     0.31356   0.94421   0.01006   0.00000  Uiso   1.00
C1248  C     0.32355   0.91788   0.04286   0.00000  Uiso   1.00
C1249  C     0.32979   0.87963   0.02737   0.00000  Uiso   1.00
C1250  C     0.20451   0.92948   0.99075   0.00000  Uiso   1.00
C1251  C     0.20971   0.90139   0.95827   0.00000  Uiso   1.00
C1252  C     0.21575   0.86354   0.97492   0.00000  Uiso   1.00
C1253  C     0.05576   0.81356   0.01004   0.00000  Uiso   1.00
C1254  C     0.47268   0.73091   0.45773   0.00000  Uiso   1.00
C1255  C     0.08210   0.82353   0.04283   0.00000  Uiso   1.00
C1256  C     0.12035   0.82978   0.02733   0.00000  Uiso   1.00
C1257  C     0.07050   0.70451   0.99075   0.00000  Uiso   1.00
C1258  C     0.09859   0.70971   0.95827   0.00000  Uiso   1.00
C1259  C     0.13645   0.71573   0.97492   0.00000  Uiso   1.00
C1260  C     0.43643   0.80574   0.51003   0.00000  Uiso   1.00
C1261  C     0.42648   0.83210   0.54281   0.00000  Uiso   1.00
C1262  C     0.42023   0.87034   0.52730   0.00000  Uiso   1.00
C1263  C     0.04550   0.82047   0.49076   0.00000  Uiso   1.00
C1264  C     0.04036   0.84857   0.45827   0.00000  Uiso   1.00
C1265  C     0.26117   0.53135   0.54186   0.00000  Uiso   1.00
C1266  C     0.03432   0.88643   0.47492   0.00000  Uiso   1.00
C1267  C     0.19425   0.93642   0.51005   0.00000  Uiso   1.00
C1268  C     0.16791   0.92645   0.54284   0.00000  Uiso   1.00
C1269  C     0.12967   0.92020   0.52735   0.00000  Uiso   1.00
C1270  C     0.17950   0.54548   0.49076   0.00000  Uiso   1.00
C1271  C     0.15141   0.54030   0.45828   0.00000  Uiso   1.00
C1272  C     0.11355   0.53425   0.47495   0.00000  Uiso   1.00
C1273  C     0.06353   0.69415   0.51011   0.00000  Uiso   1.00
C1274  C     0.07365   0.66788   0.54291   0.00000  Uiso   1.00
C1275  C     0.07988   0.62961   0.52747   0.00000  Uiso   1.00
C1276  C     0.26907   0.97269   0.45773   0.00000  Uiso   1.00
C1277  C     0.45450   0.67948   0.49078   0.00000  Uiso   1.00
C1278  C     0.45993   0.65141   0.45832   0.00000  Uiso   1.00
C1279  C     0.46590   0.61355   0.47501   0.00000  Uiso   1.00
C1280  C     0.30577   0.56358   0.51004   0.00000  Uiso   1.00
C1281  C     0.33212   0.57350   0.54283   0.00000  Uiso   1.00
C1282  C     0.37037   0.57976   0.52732   0.00000  Uiso   1.00
C1283  C     0.32053   0.95451   0.49073   0.00000  Uiso   1.00
C1284  C     0.34862   0.95963   0.45824   0.00000  Uiso   1.00
C1285  C     0.38647   0.96569   0.47488   0.00000  Uiso   1.00
C1286  C     0.10305   0.94527   0.22078   0.00000  Uiso   1.00
C1287  C     0.21866   0.50975   0.08223   0.00000  Uiso   1.00
C1288  C     0.09854   0.96896   0.25700   0.00000  Uiso   1.00
C1289  C     0.37306   0.57950   0.81734   0.00000  Uiso   1.00
C1290  C     0.38596   0.54001   0.81921   0.00000  Uiso   1.00
C1291  C     0.05474   0.60305   0.22078   0.00000  Uiso   1.00
C1292  C     0.03105   0.59854   0.25699   0.00000  Uiso   1.00
C1293  C     0.42051   0.87307   0.81733   0.00000  Uiso   1.00
C1294  C     0.46001   0.88597   0.81919   0.00000  Uiso   1.00
C1295  C     0.39701   0.55462   0.22109   0.00000  Uiso   1.00
C1296  C     0.40137   0.53101   0.25738   0.00000  Uiso   1.00
C1297  C     0.12690   0.92054   0.81732   0.00000  Uiso   1.00
C1298  C     0.27782   0.51737   0.91738   0.00000  Uiso   1.00
C1299  C     0.11401   0.96003   0.81915   0.00000  Uiso   1.00
C1300  C     0.44531   0.89697   0.22089   0.00000  Uiso   1.00
C1301  C     0.46898   0.90143   0.25714   0.00000  Uiso   1.00
C1302  C     0.07946   0.62689   0.81731   0.00000  Uiso   1.00
C1303  C     0.03997   0.61400   0.81914   0.00000  Uiso   1.00
C1304  C     0.10307   0.55541   0.77929   0.00000  Uiso   1.00
C1305  C     0.09649   0.53367   0.74204   0.00000  Uiso   1.00
C1306  C     0.37532   0.92298   0.18363   0.00000  Uiso   1.00
C1307  C     0.34402   0.90943   0.15824   0.00000  Uiso   1.00
C1308  C     0.05542   0.89693   0.77933   0.00000  Uiso   1.00
C1309  C     0.49025   0.71866   0.08224   0.00000  Uiso   1.00
C1310  C     0.03366   0.90353   0.74210   0.00000  Uiso   1.00
C1311  C     0.42310   0.62454   0.18374   0.00000  Uiso   1.00
C1312  C     0.40959   0.65577   0.15823   0.00000  Uiso   1.00
C1313  C     0.39692   0.94458   0.77936   0.00000  Uiso   1.00
C1314  C     0.40354   0.96634   0.74214   0.00000  Uiso   1.00
C1315  C     0.12477   0.57710   0.18356   0.00000  Uiso   1.00
C1316  C     0.15611   0.59065   0.15823   0.00000  Uiso   1.00
C1317  C     0.44457   0.60308   0.77936   0.00000  Uiso   1.00
C1318  C     0.46631   0.59645   0.74212   0.00000  Uiso   1.00
C1319  C     0.07710   0.87524   0.18357   0.00000  Uiso   1.00
C1320  C     0.27732   0.51905   0.95774   0.00000  Uiso   1.00
C1321  C     0.48262   0.77782   0.91738   0.00000  Uiso   1.00
C1322  C     0.09065   0.84390   0.15824   0.00000  Uiso   1.00
C1323  C     0.35306   0.69526   0.72076   0.00000  Uiso   1.00
C1324  C     0.34854   0.71896   0.75697   0.00000  Uiso   1.00
C1325  C     0.12308   0.82948   0.31733   0.00000  Uiso   1.00
C1326  C     0.13598   0.78999   0.31917   0.00000  Uiso   1.00
C1327  C     0.30476   0.85307   0.72072   0.00000  Uiso   1.00
C1328  C     0.28105   0.84852   0.75691   0.00000  Uiso   1.00
C1329  C     0.17057   0.62313   0.31729   0.00000  Uiso   1.00
C1330  C     0.21006   0.63603   0.31909   0.00000  Uiso   1.00
C1331  C     0.14695   0.80473   0.72079   0.00000  Uiso   1.00
C1332  C     0.28134   0.99024   0.08224   0.00000  Uiso   1.00
C1333  C     0.15146   0.78104   0.75700   0.00000  Uiso   1.00
C1334  C     0.37681   0.67060   0.31726   0.00000  Uiso   1.00
C1335  C     0.36392   0.71010   0.31902   0.00000  Uiso   1.00
C1336  C     0.19530   0.64697   0.72088   0.00000  Uiso   1.00
C1337  C     0.21897   0.65143   0.75712   0.00000  Uiso   1.00
C1338  C     0.32945   0.87688   0.31730   0.00000  Uiso   1.00
C1339  C     0.28996   0.86398   0.31912   0.00000  Uiso   1.00
C1340  C     0.35305   0.80541   0.27924   0.00000  Uiso   1.00
C1341  C     0.34648   0.78370   0.24196   0.00000  Uiso   1.00
C1342  C     0.12531   0.67296   0.68362   0.00000  Uiso   1.00
C1343  C     0.22218   0.98261   0.91738   0.00000  Uiso   1.00
C1344  C     0.09401   0.65942   0.65823   0.00000  Uiso   1.00
C1345  C     0.30538   0.64696   0.27917   0.00000  Uiso   1.00
C1346  C     0.28366   0.65347   0.24189   0.00000  Uiso   1.00
C1347  C     0.17291   0.87476   0.68357   0.00000  Uiso   1.00
C1348  C     0.15936   0.90609   0.65824   0.00000  Uiso   1.00
C1349  C     0.14693   0.69460   0.27930   0.00000  Uiso   1.00
C1350  C     0.15351   0.71635   0.24206   0.00000  Uiso   1.00
C1351  C     0.37481   0.82714   0.68353   0.00000  Uiso   1.00
C1352  C     0.40617   0.84070   0.65824   0.00000  Uiso   1.00
C1353  C     0.19458   0.85307   0.27933   0.00000  Uiso   1.00
C1354  C     0.00975   0.78134   0.08223   0.00000  Uiso   1.00
C1355  C     0.21632   0.84646   0.24208   0.00000  Uiso   1.00
C1356  C     0.32711   0.62522   0.68356   0.00000  Uiso   1.00
C1357  C     0.34067   0.59388   0.65824   0.00000  Uiso   1.00
C1358  C     0.01737   0.72218   0.91738   0.00000  Uiso   1.00
C1359  C     0.46866   0.75975   0.58223   0.00000  Uiso   1.00
C1360  C     0.02782   0.76736   0.41739   0.00000  Uiso   1.00
C1361  C     0.24026   0.96866   0.58223   0.00000  Uiso   1.00
C1362  C     0.23262   0.52782   0.41738   0.00000  Uiso   1.00
C1363  C     0.03134   0.74022   0.58224   0.00000  Uiso   1.00
C1364  C     0.48883   0.71865   0.04186   0.00000  Uiso   1.00
C1365  C     0.47218   0.73261   0.41737   0.00000  Uiso   1.00
C1366  C     0.25976   0.53134   0.58224   0.00000  Uiso   1.00
C1367  C     0.26739   0.97218   0.41738   0.00000  Uiso   1.00
C1368  C     0.25000   0.99999   0.02121   0.00000  Uiso   1.00
C1369  C     0.25000   0.99999   0.97846   0.00000  Uiso   1.00
C1370  C     0.49999   0.75000   0.02121   0.00000  Uiso   1.00
C1371  C     0.49999   0.75000   0.97846   0.00000  Uiso   1.00
C1372  C     0.49999   0.74997   0.52121   0.00000  Uiso   1.00
C1373  C    -0.00000   0.74997   0.47846   0.00000  Uiso   1.00
C1374  C     0.25001   0.50000   0.52121   0.00000  Uiso   1.00
C1375  C     0.48093   0.77731   0.95774   0.00000  Uiso   1.00
C1376  C     0.25001   0.50000   0.47846   0.00000  Uiso   1.00
C1377  C     0.25000   0.50000   0.35504   0.00000  Uiso   1.00
C1378  C     0.25000   0.50000   0.64487   0.00000  Uiso   1.00
C1379  C     0.00000   0.75000   0.35504   0.00000  Uiso   1.00
C1380  C     0.00000   0.75000   0.64487   0.00000  Uiso   1.00
C1381  C    -0.00000   0.75000   0.85504   0.00000  Uiso   1.00
C1382  C     0.00000   0.75000   0.14487   0.00000  Uiso   1.00
C1383  C     0.25000   0.50000   0.85504   0.00000  Uiso   1.00
C1384  C     0.25000   0.50000   0.14487   0.00000  Uiso   1.00
C1385  C     0.17983   0.56997   0.25009   0.00000  Uiso   1.00
C1386  C     0.28135   0.98883   0.04186   0.00000  Uiso   1.00
C1387  C     0.32008   0.92994   0.75000   0.00000  Uiso   1.00
C1388  C     0.43003   0.67983   0.25010   0.00000  Uiso   1.00
C1389  C     0.07006   0.82007   0.75000   0.00000  Uiso   1.00
C1390  C     0.32017   0.93003   0.25010   0.00000  Uiso   1.00
C1391  C     0.17993   0.57006   0.75000   0.00000  Uiso   1.00
C1392  C     0.06997   0.82017   0.25010   0.00000  Uiso   1.00
C1393  C     0.42994   0.67993   0.75000   0.00000  Uiso   1.00
C1394  C     0.18003   0.92983   0.75010   0.00000  Uiso   1.00
C1395  C     0.32006   0.57007   0.25000   0.00000  Uiso   1.00
C1396  C     0.42983   0.81997   0.75010   0.00000  Uiso   1.00
C1397  C     0.22268   0.98093   0.95773   0.00000  Uiso   1.00
C1398  C     0.07007   0.67994   0.25000   0.00000  Uiso   1.00
C1399  C     0.31997   0.57017   0.75010   0.00000  Uiso   1.00
C1400  C     0.17994   0.92993   0.25000   0.00000  Uiso   1.00
C1401  C     0.07017   0.68003   0.75010   0.00000  Uiso   1.00
C1402  C     0.42993   0.82006   0.25000   0.00000  Uiso   1.00
C1403  C     0.11824   0.90775   0.23062   0.00000  Uiso   1.00
C1404  C     0.37684   0.59700   0.77731   0.00000  Uiso   1.00
C1405  C     0.09226   0.61824   0.23062   0.00000  Uiso   1.00
C1406  C     0.40300   0.87685   0.77730   0.00000  Uiso   1.00
C1407  C     0.38181   0.59218   0.23077   0.00000  Uiso   1.00
C1408  C     0.01116   0.78135   0.04186   0.00000  Uiso   1.00
C1409  C     0.12314   0.90301   0.77729   0.00000  Uiso   1.00
C1410  C     0.40778   0.88178   0.23068   0.00000  Uiso   1.00
C1411  C     0.09699   0.62314   0.77728   0.00000  Uiso   1.00
C1412  C     0.11856   0.59274   0.76995   0.00000  Uiso   1.00
C1413  C     0.37710   0.90281   0.22243   0.00000  Uiso   1.00
C1414  C     0.09274   0.88144   0.76997   0.00000  Uiso   1.00
C1415  C     0.40287   0.62284   0.22250   0.00000  Uiso   1.00
C1416  C     0.38143   0.90726   0.76998   0.00000  Uiso   1.00
C1417  C     0.12295   0.59722   0.22239   0.00000  Uiso   1.00
C1418  C     0.40725   0.61857   0.76999   0.00000  Uiso   1.00
C1419  C     0.01905   0.72268   0.95774   0.00000  Uiso   1.00
C1420  C     0.09722   0.87706   0.22239   0.00000  Uiso   1.00
C1421  C     0.36824   0.65774   0.73062   0.00000  Uiso   1.00
C1422  C     0.12685   0.84700   0.27730   0.00000  Uiso   1.00
C1423  C     0.34227   0.86825   0.73059   0.00000  Uiso   1.00
C1424  C     0.15302   0.62687   0.27727   0.00000  Uiso   1.00
C1425  C     0.13176   0.84226   0.73063   0.00000  Uiso   1.00
C1426  C     0.37311   0.65304   0.27725   0.00000  Uiso   1.00
C1427  C     0.15777   0.63178   0.73067   0.00000  Uiso   1.00
C1428  C     0.34698   0.87314   0.27728   0.00000  Uiso   1.00
C1429  C     0.36856   0.84274   0.26994   0.00000  Uiso   1.00
C1430  C     0.46865   0.76114   0.54186   0.00000  Uiso   1.00
C1431  C     0.12709   0.65281   0.72243   0.00000  Uiso   1.00
C1432  C     0.34272   0.63146   0.26990   0.00000  Uiso   1.00
C1433  C     0.15278   0.87294   0.72239   0.00000  Uiso   1.00
C1434  C     0.13145   0.65727   0.26995   0.00000  Uiso   1.00
C1435  C     0.37297   0.84724   0.72237   0.00000  Uiso   1.00
C1436  C     0.15726   0.86856   0.26997   0.00000  Uiso   1.00
C1437  C     0.34723   0.62705   0.72239   0.00000  Uiso   1.00
C1438  C     0.09811   0.84827   0.24991   0.00000  Uiso   1.00
C1439  C     0.40166   0.65197   0.75024   0.00000  Uiso   1.00
C1440  C     0.15174   0.59812   0.24990   0.00000  Uiso   1.00
H1441  H     0.19413   0.51705   0.09771   0.00000  Uiso   1.00
H1442  H     0.04952   0.78078   0.40174   0.00000  Uiso   1.00
H1443  H     0.10483   0.55823   0.49206   0.00000  Uiso   1.00
H1444  H     0.08441   0.69208   0.48695   0.00000  Uiso   1.00
H1445  H     0.03756   0.68617   0.49626   0.00000  Uiso   1.00
H1446  H     0.09885   0.67747   0.55734   0.00000  Uiso   1.00
H1447  H     0.05153   0.66707   0.56481   0.00000  Uiso   1.00
H1448  H     0.05506   0.61937   0.51288   0.00000  Uiso   1.00
H1449  H     0.08663   0.61121   0.55197   0.00000  Uiso   1.00
H1450  H     0.10276   0.62939   0.50649   0.00000  Uiso   1.00
H1451  H     0.43220   0.66989   0.50989   0.00000  Uiso   1.00
H1452  H     0.47877   0.68127   0.50966   0.00000  Uiso   1.00
H1453  H     0.23296   0.94413   0.59771   0.00000  Uiso   1.00
H1454  H     0.43564   0.65102   0.43920   0.00000  Uiso   1.00
H1455  H     0.48394   0.65880   0.44052   0.00000  Uiso   1.00
H1456  H     0.49005   0.61334   0.49426   0.00000  Uiso   1.00
H1457  H     0.47037   0.59399   0.45096   0.00000  Uiso   1.00
H1458  H     0.44178   0.60477   0.49188   0.00000  Uiso   1.00
H1459  H     0.30782   0.58456   0.48699   0.00000  Uiso   1.00
H1460  H     0.31367   0.53766   0.49602   0.00000  Uiso   1.00
H1461  H     0.32260   0.59864   0.55742   0.00000  Uiso   1.00
H1462  H     0.33297   0.55127   0.56459   0.00000  Uiso   1.00
H1463  H     0.38053   0.55501   0.51253   0.00000  Uiso   1.00
H1464  H     0.21920   0.54952   0.40173   0.00000  Uiso   1.00
H1465  H     0.38884   0.58634   0.55180   0.00000  Uiso   1.00
H1466  H     0.37057   0.60276   0.50649   0.00000  Uiso   1.00
H1467  H     0.33004   0.93231   0.51002   0.00000  Uiso   1.00
H1468  H     0.31881   0.97892   0.50942   0.00000  Uiso   1.00
H1469  H     0.34897   0.93518   0.43935   0.00000  Uiso   1.00
H1470  H     0.34126   0.98351   0.44020   0.00000  Uiso   1.00
H1471  H     0.38673   0.99005   0.49384   0.00000  Uiso   1.00
H1472  H     0.40606   0.96986   0.45079   0.00000  Uiso   1.00
H1473  H     0.39519   0.94174   0.49205   0.00000  Uiso   1.00
H1474  H     0.08033   0.95533   0.27816   0.00000  Uiso   1.00
H1475  H     0.05586   0.73292   0.59771   0.00000  Uiso   1.00
H1476  H     0.12481   0.97465   0.27137   0.00000  Uiso   1.00
H1477  H     0.08620   0.99531   0.24864   0.00000  Uiso   1.00
H1478  H     0.11949   0.95911   0.19827   0.00000  Uiso   1.00
H1479  H     0.07535   0.94315   0.20839   0.00000  Uiso   1.00
H1480  H     0.36608   0.52338   0.83565   0.00000  Uiso   1.00
H1481  H     0.38899   0.52843   0.78973   0.00000  Uiso   1.00
H1482  H     0.41237   0.53802   0.83453   0.00000  Uiso   1.00
H1483  H     0.38854   0.59557   0.83910   0.00000  Uiso   1.00
H1484  H     0.34442   0.58139   0.82721   0.00000  Uiso   1.00
H1485  H     0.04468   0.58033   0.27815   0.00000  Uiso   1.00
H1486  H     0.45048   0.71919   0.40172   0.00000  Uiso   1.00
H1487  H     0.02537   0.62480   0.27137   0.00000  Uiso   1.00
H1488  H     0.00470   0.58620   0.24863   0.00000  Uiso   1.00
H1489  H     0.04089   0.61949   0.19827   0.00000  Uiso   1.00
H1490  H     0.05685   0.57535   0.20838   0.00000  Uiso   1.00
H1491  H     0.47664   0.86609   0.83564   0.00000  Uiso   1.00
H1492  H     0.47158   0.88899   0.78970   0.00000  Uiso   1.00
H1493  H     0.46200   0.91239   0.83450   0.00000  Uiso   1.00
H1494  H     0.40445   0.88856   0.83909   0.00000  Uiso   1.00
H1495  H     0.41862   0.84444   0.82720   0.00000  Uiso   1.00
H1496  H     0.41948   0.54469   0.27861   0.00000  Uiso   1.00
H1497  H     0.26706   0.55587   0.59771   0.00000  Uiso   1.00
H1498  H     0.37504   0.52534   0.27163   0.00000  Uiso   1.00
H1499  H     0.41376   0.50465   0.24915   0.00000  Uiso   1.00
H1500  H     0.38065   0.54073   0.19855   0.00000  Uiso   1.00
H1501  H     0.42476   0.55669   0.20881   0.00000  Uiso   1.00
H1502  H     0.13388   0.97667   0.83560   0.00000  Uiso   1.00
H1503  H     0.11100   0.97159   0.78966   0.00000  Uiso   1.00
H1504  H     0.08759   0.96203   0.83445   0.00000  Uiso   1.00
H1505  H     0.11141   0.90448   0.83907   0.00000  Uiso   1.00
H1506  H     0.15554   0.91864   0.82720   0.00000  Uiso   1.00
H1507  H     0.45533   0.91960   0.27832   0.00000  Uiso   1.00
H1508  H     0.28081   0.95048   0.40172   0.00000  Uiso   1.00
H1509  H     0.47465   0.87514   0.27146   0.00000  Uiso   1.00
H1510  H     0.49533   0.91379   0.24882   0.00000  Uiso   1.00
H1511  H     0.45917   0.88056   0.19837   0.00000  Uiso   1.00
H1512  H     0.44322   0.92469   0.20854   0.00000  Uiso   1.00
H1513  H     0.02334   0.63385   0.83562   0.00000  Uiso   1.00
H1514  H     0.02840   0.61103   0.78965   0.00000  Uiso   1.00
H1515  H     0.03797   0.58756   0.83440   0.00000  Uiso   1.00
H1516  H     0.09552   0.61139   0.83906   0.00000  Uiso   1.00
H1517  H     0.08135   0.65552   0.82720   0.00000  Uiso   1.00
H1518  H     0.08184   0.55054   0.72037   0.00000  Uiso   1.00
H1519  H     0.16546   0.55780   0.98698   0.00000  Uiso   1.00
H1520  H     0.12237   0.52421   0.72916   0.00000  Uiso   1.00
H1521  H     0.07938   0.50964   0.74844   0.00000  Uiso   1.00
H1522  H     0.11989   0.54033   0.80043   0.00000  Uiso   1.00
H1523  H     0.07632   0.55765   0.79348   0.00000  Uiso   1.00
H1524  H     0.34784   0.88023   0.15145   0.00000  Uiso   1.00
H1525  H     0.31732   0.91291   0.17248   0.00000  Uiso   1.00
H1526  H     0.34367   0.92488   0.13057   0.00000  Uiso   1.00
H1527  H     0.37427   0.95276   0.18777   0.00000  Uiso   1.00
H1528  H     0.40001   0.91800   0.16600   0.00000  Uiso   1.00
H1529  H     0.05052   0.91818   0.72043   0.00000  Uiso   1.00
H1530  H     0.21235   0.56366   0.99604   0.00000  Uiso   1.00
H1531  H     0.02420   0.87765   0.72921   0.00000  Uiso   1.00
H1532  H     0.00964   0.92063   0.74851   0.00000  Uiso   1.00
H1533  H     0.04034   0.88009   0.80047   0.00000  Uiso   1.00
H1534  H     0.05766   0.92366   0.79354   0.00000  Uiso   1.00
H1535  H     0.38041   0.65190   0.15136   0.00000  Uiso   1.00
H1536  H     0.41298   0.68251   0.17242   0.00000  Uiso   1.00
H1537  H     0.42510   0.65609   0.13061   0.00000  Uiso   1.00
H1538  H     0.45288   0.62561   0.18794   0.00000  Uiso   1.00
H1539  H     0.41817   0.59980   0.16616   0.00000  Uiso   1.00
H1540  H     0.41820   0.94948   0.72047   0.00000  Uiso   1.00
H1541  H     0.15134   0.57257   0.05741   0.00000  Uiso   1.00
H1542  H     0.37767   0.97581   0.72924   0.00000  Uiso   1.00
H1543  H     0.42064   0.99036   0.74857   0.00000  Uiso   1.00
H1544  H     0.38007   0.95965   0.80050   0.00000  Uiso   1.00
H1545  H     0.42365   0.94233   0.79359   0.00000  Uiso   1.00
H1546  H     0.15233   0.61986   0.15149   0.00000  Uiso   1.00
H1547  H     0.18279   0.58712   0.17250   0.00000  Uiso   1.00
H1548  H     0.15648   0.57525   0.13054   0.00000  Uiso   1.00
H1549  H     0.12580   0.54731   0.18767   0.00000  Uiso   1.00
H1550  H     0.10010   0.58211   0.16590   0.00000  Uiso   1.00
H1551  H     0.44944   0.58180   0.72046   0.00000  Uiso   1.00
H1552  H     0.29952   0.53079   0.90173   0.00000  Uiso   1.00
H1553  H     0.19870   0.58295   0.06461   0.00000  Uiso   1.00
H1554  H     0.47579   0.62232   0.72923   0.00000  Uiso   1.00
H1555  H     0.49032   0.57933   0.74854   0.00000  Uiso   1.00
H1556  H     0.45964   0.61992   0.80049   0.00000  Uiso   1.00
H1557  H     0.44232   0.57635   0.79359   0.00000  Uiso   1.00
H1558  H     0.11987   0.84768   0.15150   0.00000  Uiso   1.00
H1559  H     0.08712   0.81721   0.17251   0.00000  Uiso   1.00
H1560  H     0.07525   0.84352   0.13054   0.00000  Uiso   1.00
H1561  H     0.04731   0.87420   0.18767   0.00000  Uiso   1.00
H1562  H     0.08211   0.89990   0.16590   0.00000  Uiso   1.00
H1563  H     0.33032   0.70533   0.77813   0.00000  Uiso   1.00
H1564  H     0.19498   0.63052   0.01255   0.00000  Uiso   1.00
H1565  H     0.37479   0.72465   0.77135   0.00000  Uiso   1.00
H1566  H     0.33620   0.74531   0.74860   0.00000  Uiso   1.00
H1567  H     0.36950   0.70910   0.69825   0.00000  Uiso   1.00
H1568  H     0.32536   0.69314   0.70836   0.00000  Uiso   1.00
H1569  H     0.11611   0.77336   0.33563   0.00000  Uiso   1.00
H1570  H     0.13899   0.77842   0.28969   0.00000  Uiso   1.00
H1571  H     0.16240   0.78800   0.33447   0.00000  Uiso   1.00
H1572  H     0.13857   0.84554   0.33908   0.00000  Uiso   1.00
H1573  H     0.09445   0.83137   0.32720   0.00000  Uiso   1.00
H1574  H     0.29467   0.83029   0.77807   0.00000  Uiso   1.00
H1575  H     0.16363   0.63882   0.05181   0.00000  Uiso   1.00
H1576  H     0.27536   0.87477   0.77131   0.00000  Uiso   1.00
H1577  H     0.25471   0.83619   0.74853   0.00000  Uiso   1.00
H1578  H     0.29092   0.86951   0.69821   0.00000  Uiso   1.00
H1579  H     0.30688   0.82537   0.70830   0.00000  Uiso   1.00
H1580  H     0.22671   0.61616   0.33553   0.00000  Uiso   1.00
H1581  H     0.22160   0.63903   0.28959   0.00000  Uiso   1.00
H1582  H     0.21207   0.66245   0.33438   0.00000  Uiso   1.00
H1583  H     0.15452   0.63864   0.33905   0.00000  Uiso   1.00
H1584  H     0.16867   0.59451   0.32720   0.00000  Uiso   1.00
H1585  H     0.16966   0.79468   0.77817   0.00000  Uiso   1.00
H1586  H     0.14723   0.62055   0.00648   0.00000  Uiso   1.00
H1587  H     0.12519   0.77536   0.77137   0.00000  Uiso   1.00
H1588  H     0.16380   0.75469   0.74865   0.00000  Uiso   1.00
H1589  H     0.13052   0.79088   0.69828   0.00000  Uiso   1.00
H1590  H     0.17465   0.80684   0.70840   0.00000  Uiso   1.00
H1591  H     0.38376   0.72674   0.33552   0.00000  Uiso   1.00
H1592  H     0.36099   0.72164   0.28951   0.00000  Uiso   1.00
H1593  H     0.33746   0.71211   0.33424   0.00000  Uiso   1.00
H1594  H     0.36128   0.65457   0.33901   0.00000  Uiso   1.00
H1595  H     0.40543   0.66871   0.32720   0.00000  Uiso   1.00
H1596  H     0.20532   0.66961   0.77830   0.00000  Uiso   1.00
H1597  H     0.31770   0.58002   0.01003   0.00000  Uiso   1.00
H1598  H     0.22465   0.62515   0.77145   0.00000  Uiso   1.00
H1599  H     0.24532   0.66379   0.74880   0.00000  Uiso   1.00
H1600  H     0.20916   0.63056   0.69836   0.00000  Uiso   1.00
H1601  H     0.19320   0.67469   0.70852   0.00000  Uiso   1.00
H1602  H     0.27333   0.88383   0.33562   0.00000  Uiso   1.00
H1603  H     0.27839   0.86103   0.28963   0.00000  Uiso   1.00
H1604  H     0.28797   0.83753   0.33437   0.00000  Uiso   1.00
H1605  H     0.34551   0.86137   0.33905   0.00000  Uiso   1.00
H1606  H     0.33134   0.90551   0.32720   0.00000  Uiso   1.00
H1607  H     0.33187   0.80059   0.22029   0.00000  Uiso   1.00
H1608  H     0.27110   0.56877   0.00946   0.00000  Uiso   1.00
H1609  H     0.37237   0.77423   0.22911   0.00000  Uiso   1.00
H1610  H     0.32935   0.75968   0.24832   0.00000  Uiso   1.00
H1611  H     0.36987   0.79031   0.30037   0.00000  Uiso   1.00
H1612  H     0.32630   0.80764   0.29342   0.00000  Uiso   1.00
H1613  H     0.09781   0.63022   0.65145   0.00000  Uiso   1.00
H1614  H     0.06730   0.66292   0.67247   0.00000  Uiso   1.00
H1615  H     0.09365   0.67486   0.63056   0.00000  Uiso   1.00
H1616  H     0.12426   0.70275   0.68776   0.00000  Uiso   1.00
H1617  H     0.15000   0.66798   0.66598   0.00000  Uiso   1.00
H1618  H     0.30054   0.66810   0.22021   0.00000  Uiso   1.00
H1619  H     0.31477   0.59894   0.93936   0.00000  Uiso   1.00
H1620  H     0.27423   0.62756   0.22905   0.00000  Uiso   1.00
H1621  H     0.25962   0.67057   0.24824   0.00000  Uiso   1.00
H1622  H     0.29029   0.63016   0.30033   0.00000  Uiso   1.00
H1623  H     0.30760   0.67373   0.29332   0.00000  Uiso   1.00
H1624  H     0.13014   0.90231   0.65149   0.00000  Uiso   1.00
H1625  H     0.16288   0.93278   0.67250   0.00000  Uiso   1.00
H1626  H     0.17476   0.90647   0.63055   0.00000  Uiso   1.00
H1627  H     0.20270   0.87579   0.68768   0.00000  Uiso   1.00
H1628  H     0.16790   0.85009   0.66591   0.00000  Uiso   1.00
H1629  H     0.16816   0.69949   0.22038   0.00000  Uiso   1.00
H1630  H     0.26645   0.59123   0.94025   0.00000  Uiso   1.00
H1631  H     0.12763   0.72581   0.22918   0.00000  Uiso   1.00
H1632  H     0.17061   0.74038   0.24846   0.00000  Uiso   1.00
H1633  H     0.13010   0.70967   0.30044   0.00000  Uiso   1.00
H1634  H     0.17367   0.69237   0.29350   0.00000  Uiso   1.00
H1635  H     0.40241   0.86992   0.65151   0.00000  Uiso   1.00
H1636  H     0.43285   0.83715   0.67252   0.00000  Uiso   1.00
H1637  H     0.40656   0.82531   0.63053   0.00000  Uiso   1.00
H1638  H     0.37583   0.79734   0.68762   0.00000  Uiso   1.00
H1639  H     0.35016   0.83216   0.66585   0.00000  Uiso   1.00
H1640  H     0.19944   0.83182   0.22041   0.00000  Uiso   1.00
H1641  H     0.25996   0.63669   0.99391   0.00000  Uiso   1.00
H1642  H     0.22579   0.87234   0.22920   0.00000  Uiso   1.00
H1643  H     0.24033   0.82935   0.24849   0.00000  Uiso   1.00
H1644  H     0.20966   0.86991   0.30046   0.00000  Uiso   1.00
H1645  H     0.19233   0.82634   0.29354   0.00000  Uiso   1.00
H1646  H     0.36989   0.59765   0.65150   0.00000  Uiso   1.00
H1647  H     0.33714   0.56719   0.67252   0.00000  Uiso   1.00
H1648  H     0.32527   0.59349   0.63054   0.00000  Uiso   1.00
H1649  H     0.29732   0.62419   0.68765   0.00000  Uiso   1.00
H1650  H     0.33213   0.64988   0.66589   0.00000  Uiso   1.00
H1651  H     0.28009   0.65603   0.95084   0.00000  Uiso   1.00
H1652  H     0.48295   0.69413   0.09771   0.00000  Uiso   1.00
H1653  H     0.30827   0.64516   0.99206   0.00000  Uiso   1.00
H1654  H     0.44216   0.66547   0.98699   0.00000  Uiso   1.00
H1655  H     0.43627   0.71235   0.99613   0.00000  Uiso   1.00
H1656  H     0.42747   0.65125   0.05741   0.00000  Uiso   1.00
H1657  H     0.41708   0.69859   0.06471   0.00000  Uiso   1.00
H1658  H     0.36945   0.69494   0.01272   0.00000  Uiso   1.00
H1659  H     0.36121   0.66351   0.05192   0.00000  Uiso   1.00
H1660  H     0.37943   0.64721   0.00653   0.00000  Uiso   1.00
H1661  H     0.41996   0.81771   0.01001   0.00000  Uiso   1.00
H1662  H     0.43123   0.77112   0.00949   0.00000  Uiso   1.00
H1663  H     0.46920   0.79952   0.90173   0.00000  Uiso   1.00
H1664  H     0.40102   0.81471   0.93935   0.00000  Uiso   1.00
H1665  H     0.40877   0.76640   0.94028   0.00000  Uiso   1.00
H1666  H     0.36331   0.75992   0.99395   0.00000  Uiso   1.00
H1667  H     0.34396   0.78000   0.95087   0.00000  Uiso   1.00
H1668  H     0.35481   0.80821   0.99206   0.00000  Uiso   1.00
H1669  H     0.33452   0.94215   0.98698   0.00000  Uiso   1.00
H1670  H     0.28763   0.93628   0.99609   0.00000  Uiso   1.00
H1671  H     0.34870   0.92743   0.05740   0.00000  Uiso   1.00
H1672  H     0.30135   0.91705   0.06466   0.00000  Uiso   1.00
H1673  H     0.30503   0.86944   0.01264   0.00000  Uiso   1.00
H1674  H     0.30587   0.98294   0.09771   0.00000  Uiso   1.00
H1675  H     0.33642   0.86118   0.05186   0.00000  Uiso   1.00
H1676  H     0.35276   0.87941   0.00650   0.00000  Uiso   1.00
H1677  H     0.18228   0.91995   0.00999   0.00000  Uiso   1.00
H1678  H     0.22887   0.93122   0.00949   0.00000  Uiso   1.00
H1679  H     0.18531   0.90103   0.93932   0.00000  Uiso   1.00
H1680  H     0.23362   0.90876   0.94029   0.00000  Uiso   1.00
H1681  H     0.24005   0.86330   0.99396   0.00000  Uiso   1.00
H1682  H     0.22000   0.84396   0.95085   0.00000  Uiso   1.00
H1683  H     0.19175   0.85481   0.99201   0.00000  Uiso   1.00
H1684  H     0.05781   0.83453   0.98697   0.00000  Uiso   1.00
H1685  H     0.20048   0.96920   0.90173   0.00000  Uiso   1.00
H1686  H     0.06368   0.78764   0.99605   0.00000  Uiso   1.00
H1687  H     0.07257   0.84868   0.05739   0.00000  Uiso   1.00
H1688  H     0.08295   0.80132   0.06462   0.00000  Uiso   1.00
H1689  H     0.13053   0.80502   0.01257   0.00000  Uiso   1.00
H1690  H     0.13881   0.83639   0.05181   0.00000  Uiso   1.00
H1691  H     0.12056   0.85276   0.00647   0.00000  Uiso   1.00
H1692  H     0.08003   0.68229   0.01000   0.00000  Uiso   1.00
H1693  H     0.06876   0.72888   0.00949   0.00000  Uiso   1.00
H1694  H     0.09894   0.68530   0.93932   0.00000  Uiso   1.00
H1695  H     0.09122   0.73362   0.94029   0.00000  Uiso   1.00
H1696  H     0.01705   0.80587   0.09771   0.00000  Uiso   1.00
H1697  H     0.13669   0.74003   0.99396   0.00000  Uiso   1.00
H1698  H     0.15602   0.71999   0.95085   0.00000  Uiso   1.00
H1699  H     0.14517   0.69174   0.99200   0.00000  Uiso   1.00
H1700  H     0.41545   0.80778   0.48696   0.00000  Uiso   1.00
H1701  H     0.46235   0.81364   0.49602   0.00000  Uiso   1.00
H1702  H     0.40134   0.82257   0.55739   0.00000  Uiso   1.00
H1703  H     0.44870   0.83294   0.56459   0.00000  Uiso   1.00
H1704  H     0.44499   0.88050   0.51253   0.00000  Uiso   1.00
H1705  H     0.41363   0.88881   0.55178   0.00000  Uiso   1.00
H1706  H     0.39724   0.87054   0.50645   0.00000  Uiso   1.00
H1707  H     0.03080   0.70048   0.90173   0.00000  Uiso   1.00
H1708  H     0.06770   0.82999   0.51004   0.00000  Uiso   1.00
H1709  H     0.02110   0.81875   0.50946   0.00000  Uiso   1.00
H1710  H     0.06480   0.84892   0.43937   0.00000  Uiso   1.00
H1711  H     0.01648   0.84121   0.44025   0.00000  Uiso   1.00
H1712  H     0.00997   0.88668   0.49390   0.00000  Uiso   1.00
H1713  H     0.03012   0.90601   0.45084   0.00000  Uiso   1.00
H1714  H     0.05828   0.89514   0.49207   0.00000  Uiso   1.00
H1715  H     0.19220   0.91546   0.48697   0.00000  Uiso   1.00
H1716  H     0.18633   0.96235   0.49606   0.00000  Uiso   1.00
H1717  H     0.17746   0.90131   0.55740   0.00000  Uiso   1.00
H1718  H     0.44413   0.76706   0.59771   0.00000  Uiso   1.00
H1719  H     0.16707   0.94866   0.56463   0.00000  Uiso   1.00
H1720  H     0.11948   0.94495   0.51259   0.00000  Uiso   1.00
H1721  H     0.11121   0.91358   0.55183   0.00000  Uiso   1.00
H1722  H     0.12947   0.89721   0.50648   0.00000  Uiso   1.00
H1723  H     0.16997   0.56770   0.51003   0.00000  Uiso   1.00
H1724  H     0.18124   0.52110   0.50949   0.00000  Uiso   1.00
H1725  H     0.15104   0.56473   0.43936   0.00000  Uiso   1.00
H1726  H     0.15877   0.51641   0.44028   0.00000  Uiso   1.00
H1727  H     0.11332   0.50993   0.49395   0.00000  Uiso   1.00
H1728  H     0.09397   0.53002   0.45087   0.00000  Uiso   1.00
O1729  O     0.25000   0.50000   0.25000   0.00000  Uiso   1.00
O1730  O     0.25000   0.96964   0.66317   0.00000  Uiso   1.00
O1731  O     0.46964   0.75000   0.33683   0.00000  Uiso   1.00
O1732  O     0.03036   0.75000   0.66317   0.00000  Uiso   1.00
O1733  O     0.00000   0.71964   0.83683   0.00000  Uiso   1.00
O1734  O     0.00000   0.78036   0.16317   0.00000  Uiso   1.00
O1735  O     0.28036   0.50000   0.83683   0.00000  Uiso   1.00
O1736  O     0.21964   0.50000   0.16317   0.00000  Uiso   1.00
O1737  O     0.00000   0.78036   0.83683   0.00000  Uiso   1.00
O1738  O     0.00000   0.71964   0.16317   0.00000  Uiso   1.00
O1739  O     0.21964   0.50000   0.83683   0.00000  Uiso   1.00
O1740  O     0.25000   0.50000   0.75000   0.00000  Uiso   1.00
O1741  O     0.28036   0.50000   0.16317   0.00000  Uiso   1.00
O1742  O     0.20726   0.57307   0.27282   0.00000  Uiso   1.00
O1743  O     0.29275   0.92693   0.72718   0.00000  Uiso   1.00
O1744  O     0.42693   0.70726   0.27282   0.00000  Uiso   1.00
O1745  O     0.07307   0.79275   0.72718   0.00000  Uiso   1.00
O1746  O     0.29275   0.92693   0.27282   0.00000  Uiso   1.00
O1747  O     0.20726   0.57307   0.72718   0.00000  Uiso   1.00
O1748  O     0.07307   0.79275   0.27282   0.00000  Uiso   1.00
O1749  O     0.42693   0.70726   0.72718   0.00000  Uiso   1.00
O1750  O     0.20726   0.92693   0.72718   0.00000  Uiso   1.00
O1751  O     0.00000   0.75000   0.25000   0.00000  Uiso   1.00
O1752  O     0.29275   0.57307   0.27282   0.00000  Uiso   1.00
O1753  O     0.42693   0.79275   0.72718   0.00000  Uiso   1.00
O1754  O     0.07307   0.70726   0.27282   0.00000  Uiso   1.00
O1755  O     0.29275   0.57307   0.72718   0.00000  Uiso   1.00
O1756  O     0.20726   0.92693   0.27282   0.00000  Uiso   1.00
O1757  O     0.07307   0.70726   0.72718   0.00000  Uiso   1.00
O1758  O     0.42693   0.79275   0.27282   0.00000  Uiso   1.00
O1759  O     0.45726   0.82307   0.77282   0.00000  Uiso   1.00
O1760  O     0.04275   0.67693   0.22718   0.00000  Uiso   1.00
O1761  O     0.17693   0.95726   0.77282   0.00000  Uiso   1.00
O1762  O     0.00000   0.75000   0.75000   0.00000  Uiso   1.00
O1763  O     0.32307   0.54275   0.22718   0.00000  Uiso   1.00
O1764  O     0.04275   0.67693   0.77282   0.00000  Uiso   1.00
O1765  O     0.45726   0.82307   0.22718   0.00000  Uiso   1.00
O1766  O     0.32307   0.54275   0.77282   0.00000  Uiso   1.00
O1767  O     0.17693   0.95726   0.22718   0.00000  Uiso   1.00
O1768  O     0.45726   0.67693   0.22718   0.00000  Uiso   1.00
O1769  O     0.04275   0.82307   0.77282   0.00000  Uiso   1.00
O1770  O     0.17693   0.54275   0.22718   0.00000  Uiso   1.00
O1771  O     0.32307   0.95726   0.77282   0.00000  Uiso   1.00
O1772  O     0.04275   0.82307   0.22718   0.00000  Uiso   1.00
O1773  O     0.25000   0.96964   0.33683   0.00000  Uiso   1.00
O1774  O     0.45726   0.67693   0.77282   0.00000  Uiso   1.00
O1775  O     0.32307   0.95726   0.22718   0.00000  Uiso   1.00
O1776  O     0.17693   0.54275   0.77282   0.00000  Uiso   1.00
O1777  O     0.18635   0.51947   0.02330   0.00000  Uiso   1.00
O1778  O     0.30607   0.53629   0.97600   0.00000  Uiso   1.00
O1779  O     0.48051   0.68635   0.02330   0.00000  Uiso   1.00
O1780  O     0.46369   0.80607   0.97599   0.00000  Uiso   1.00
O1781  O     0.31364   0.98050   0.02330   0.00000  Uiso   1.00
O1782  O     0.19393   0.96368   0.97599   0.00000  Uiso   1.00
O1783  O     0.01948   0.81364   0.02330   0.00000  Uiso   1.00
O1784  O     0.25000   0.53036   0.66317   0.00000  Uiso   1.00
O1785  O     0.03630   0.69393   0.97599   0.00000  Uiso   1.00
O1786  O     0.43635   0.76946   0.52330   0.00000  Uiso   1.00
O1787  O     0.05607   0.78627   0.47601   0.00000  Uiso   1.00
O1788  O     0.23053   0.93635   0.52330   0.00000  Uiso   1.00
O1789  O     0.21370   0.55607   0.47600   0.00000  Uiso   1.00
O1790  O     0.06362   0.73045   0.52329   0.00000  Uiso   1.00
O1791  O     0.44392   0.71367   0.47597   0.00000  Uiso   1.00
O1792  O     0.26949   0.56365   0.52330   0.00000  Uiso   1.00
O1793  O     0.28632   0.94393   0.47599   0.00000  Uiso   1.00
O1794  O     0.03036   0.75000   0.33683   0.00000  Uiso   1.00
O1795  O     0.46964   0.75000   0.66317   0.00000  Uiso   1.00
O1796  O     0.25000   0.53036   0.33683   0.00000  Uiso   1.00
Zn1797 Zn    0.20660   0.50000   0.21760   0.00000  Uiso   1.00
Zn1798 Zn    0.04340   0.75000   0.28240   0.00000  Uiso   1.00
Zn1799 Zn    0.25000   0.95660   0.71760   0.00000  Uiso   1.00
Zn1800 Zn    0.25000   0.54340   0.28240   0.00000  Uiso   1.00
Zn1801 Zn    0.04340   0.75000   0.71760   0.00000  Uiso   1.00
Zn1802 Zn    0.45660   0.75000   0.28240   0.00000  Uiso   1.00
Zn1803 Zn    0.25000   0.54340   0.71760   0.00000  Uiso   1.00
Zn1804 Zn    0.25000   0.95660   0.28240   0.00000  Uiso   1.00
Zn1805 Zn    0.29340   0.50000   0.78240   0.00000  Uiso   1.00
Zn1806 Zn    0.00000   0.70660   0.21760   0.00000  Uiso   1.00
Zn1807 Zn    0.00000   0.79340   0.78240   0.00000  Uiso   1.00
Zn1808 Zn    0.29340   0.50000   0.21760   0.00000  Uiso   1.00
Zn1809 Zn    0.20660   0.50000   0.78240   0.00000  Uiso   1.00
Zn1810 Zn    0.00000   0.79340   0.21760   0.00000  Uiso   1.00
Zn1811 Zn    0.00000   0.70660   0.78240   0.00000  Uiso   1.00
Zn1812 Zn    0.45660   0.75000   0.71760   0.00000  Uiso   1.00
C1813  C     0.71865   0.51115   0.04186   0.00000  Uiso   1.00
C1814  C     0.52732   0.76903   0.45774   0.00000  Uiso   1.00
C1815  C     0.84804   0.90167   0.75023   0.00000  Uiso   1.00
C1816  C     0.90191   0.65171   0.24993   0.00000  Uiso   1.00
C1817  C     0.59834   0.84804   0.75024   0.00000  Uiso   1.00
C1818  C     0.84828   0.90190   0.24992   0.00000  Uiso   1.00
C1819  C     0.65197   0.59834   0.75024   0.00000  Uiso   1.00
C1820  C     0.59828   0.65189   0.74992   0.00000  Uiso   1.00
C1821  C     0.90197   0.84834   0.25024   0.00000  Uiso   1.00
C1822  C     0.65189   0.90173   0.74991   0.00000  Uiso   1.00
C1823  C     0.84835   0.59802   0.25026   0.00000  Uiso   1.00
C1824  C     0.90174   0.84812   0.74990   0.00000  Uiso   1.00
C1825  C     0.73885   0.96865   0.54186   0.00000  Uiso   1.00
C1826  C     0.59804   0.65167   0.25023   0.00000  Uiso   1.00
C1827  C     0.84811   0.59827   0.74991   0.00000  Uiso   1.00
C1828  C     0.65166   0.90196   0.25024   0.00000  Uiso   1.00
C1829  C     0.75000   0.50000   0.10251   0.00000  Uiso   1.00
C1830  C     0.75000   0.50000   0.89723   0.00000  Uiso   1.00
C1831  C     0.50000   0.75000   0.10251   0.00000  Uiso   1.00
C1832  C     0.50000   0.75000   0.89723   0.00000  Uiso   1.00
C1833  C     0.50000   0.74999   0.60251   0.00000  Uiso   1.00
C1834  C     0.50000   0.74999   0.39723   0.00000  Uiso   1.00
C1835  C     0.75001   0.50000   0.60251   0.00000  Uiso   1.00
C1836  C     0.73094   0.52731   0.45774   0.00000  Uiso   1.00
C1837  C     0.75000   0.50000   0.39723   0.00000  Uiso   1.00
C1838  C     0.68643   0.55575   0.01004   0.00000  Uiso   1.00
C1839  C     0.67648   0.58210   0.04283   0.00000  Uiso   1.00
C1840  C     0.67023   0.62035   0.02732   0.00000  Uiso   1.00
C1841  C     0.79549   0.57050   0.99075   0.00000  Uiso   1.00
C1842  C     0.79034   0.59859   0.95827   0.00000  Uiso   1.00
C1843  C     0.78430   0.63645   0.97492   0.00000  Uiso   1.00
C1844  C     0.94421   0.68642   0.01008   0.00000  Uiso   1.00
C1845  C     0.91791   0.67641   0.04289   0.00000  Uiso   1.00
C1846  C     0.87965   0.67017   0.02743   0.00000  Uiso   1.00
C1847  C     0.53134   0.73881   0.54186   0.00000  Uiso   1.00
C1848  C     0.92949   0.79549   0.99076   0.00000  Uiso   1.00
C1849  C     0.90139   0.79030   0.95828   0.00000  Uiso   1.00
C1850  C     0.86354   0.78424   0.97494   0.00000  Uiso   1.00
C1851  C     0.81356   0.94421   0.01006   0.00000  Uiso   1.00
C1852  C     0.82355   0.91788   0.04286   0.00000  Uiso   1.00
C1853  C     0.82979   0.87963   0.02737   0.00000  Uiso   1.00
C1854  C     0.70451   0.92948   0.99075   0.00000  Uiso   1.00
C1855  C     0.70971   0.90139   0.95827   0.00000  Uiso   1.00
C1856  C     0.71575   0.86354   0.97492   0.00000  Uiso   1.00
C1857  C     0.55576   0.81356   0.01004   0.00000  Uiso   1.00
C1858  C     0.97268   0.73091   0.45773   0.00000  Uiso   1.00
C1859  C     0.58210   0.82353   0.04283   0.00000  Uiso   1.00
C1860  C     0.62035   0.82978   0.02733   0.00000  Uiso   1.00
C1861  C     0.57050   0.70451   0.99075   0.00000  Uiso   1.00
C1862  C     0.59859   0.70971   0.95827   0.00000  Uiso   1.00
C1863  C     0.63645   0.71573   0.97492   0.00000  Uiso   1.00
C1864  C     0.93643   0.80574   0.51003   0.00000  Uiso   1.00
C1865  C     0.92648   0.83210   0.54281   0.00000  Uiso   1.00
C1866  C     0.92023   0.87034   0.52730   0.00000  Uiso   1.00
C1867  C     0.54550   0.82047   0.49076   0.00000  Uiso   1.00
C1868  C     0.54036   0.84857   0.45827   0.00000  Uiso   1.00
C1869  C     0.76117   0.53135   0.54186   0.00000  Uiso   1.00
C1870  C     0.53432   0.88643   0.47492   0.00000  Uiso   1.00
C1871  C     0.69425   0.93642   0.51005   0.00000  Uiso   1.00
C1872  C     0.66791   0.92645   0.54284   0.00000  Uiso   1.00
C1873  C     0.62967   0.92020   0.52735   0.00000  Uiso   1.00
C1874  C     0.67950   0.54548   0.49076   0.00000  Uiso   1.00
C1875  C     0.65141   0.54030   0.45828   0.00000  Uiso   1.00
C1876  C     0.61355   0.53425   0.47495   0.00000  Uiso   1.00
C1877  C     0.56353   0.69415   0.51011   0.00000  Uiso   1.00
C1878  C     0.57365   0.66788   0.54291   0.00000  Uiso   1.00
C1879  C     0.57988   0.62961   0.52747   0.00000  Uiso   1.00
C1880  C     0.76907   0.97269   0.45773   0.00000  Uiso   1.00
C1881  C     0.95450   0.67948   0.49078   0.00000  Uiso   1.00
C1882  C     0.95993   0.65141   0.45832   0.00000  Uiso   1.00
C1883  C     0.96590   0.61355   0.47501   0.00000  Uiso   1.00
C1884  C     0.80577   0.56358   0.51004   0.00000  Uiso   1.00
C1885  C     0.83212   0.57350   0.54283   0.00000  Uiso   1.00
C1886  C     0.87037   0.57976   0.52732   0.00000  Uiso   1.00
C1887  C     0.82053   0.95451   0.49073   0.00000  Uiso   1.00
C1888  C     0.84862   0.95963   0.45824   0.00000  Uiso   1.00
C1889  C     0.88647   0.96569   0.47488   0.00000  Uiso   1.00
C1890  C     0.60305   0.94527   0.22078   0.00000  Uiso   1.00
C1891  C     0.71866   0.50975   0.08223   0.00000  Uiso   1.00
C1892  C     0.59854   0.96896   0.25700   0.00000  Uiso   1.00
C1893  C     0.87306   0.57950   0.81734   0.00000  Uiso   1.00
C1894  C     0.88596   0.54001   0.81921   0.00000  Uiso   1.00
C1895  C     0.55474   0.60305   0.22078   0.00000  Uiso   1.00
C1896  C     0.53105   0.59854   0.25699   0.00000  Uiso   1.00
C1897  C     0.92051   0.87307   0.81733   0.00000  Uiso   1.00
C1898  C     0.96001   0.88597   0.81919   0.00000  Uiso   1.00
C1899  C     0.89701   0.55462   0.22109   0.00000  Uiso   1.00
C1900  C     0.90137   0.53101   0.25738   0.00000  Uiso   1.00
C1901  C     0.62690   0.92054   0.81732   0.00000  Uiso   1.00
C1902  C     0.77782   0.51737   0.91738   0.00000  Uiso   1.00
C1903  C     0.61401   0.96003   0.81915   0.00000  Uiso   1.00
C1904  C     0.94531   0.89697   0.22089   0.00000  Uiso   1.00
C1905  C     0.96898   0.90143   0.25714   0.00000  Uiso   1.00
C1906  C     0.57946   0.62689   0.81731   0.00000  Uiso   1.00
C1907  C     0.53997   0.61400   0.81914   0.00000  Uiso   1.00
C1908  C     0.60307   0.55541   0.77929   0.00000  Uiso   1.00
C1909  C     0.59649   0.53367   0.74204   0.00000  Uiso   1.00
C1910  C     0.87532   0.92298   0.18363   0.00000  Uiso   1.00
C1911  C     0.84402   0.90943   0.15824   0.00000  Uiso   1.00
C1912  C     0.55542   0.89693   0.77933   0.00000  Uiso   1.00
C1913  C     0.99025   0.71866   0.08224   0.00000  Uiso   1.00
C1914  C     0.53366   0.90353   0.74210   0.00000  Uiso   1.00
C1915  C     0.92310   0.62454   0.18374   0.00000  Uiso   1.00
C1916  C     0.90959   0.65577   0.15823   0.00000  Uiso   1.00
C1917  C     0.89692   0.94458   0.77936   0.00000  Uiso   1.00
C1918  C     0.90354   0.96634   0.74214   0.00000  Uiso   1.00
C1919  C     0.62477   0.57710   0.18356   0.00000  Uiso   1.00
C1920  C     0.65611   0.59065   0.15823   0.00000  Uiso   1.00
C1921  C     0.94457   0.60308   0.77936   0.00000  Uiso   1.00
C1922  C     0.96631   0.59645   0.74212   0.00000  Uiso   1.00
C1923  C     0.57710   0.87524   0.18357   0.00000  Uiso   1.00
C1924  C     0.77732   0.51905   0.95774   0.00000  Uiso   1.00
C1925  C     0.98262   0.77782   0.91738   0.00000  Uiso   1.00
C1926  C     0.59065   0.84390   0.15824   0.00000  Uiso   1.00
C1927  C     0.85306   0.69526   0.72076   0.00000  Uiso   1.00
C1928  C     0.84854   0.71896   0.75697   0.00000  Uiso   1.00
C1929  C     0.62308   0.82948   0.31733   0.00000  Uiso   1.00
C1930  C     0.63598   0.78999   0.31917   0.00000  Uiso   1.00
C1931  C     0.80476   0.85307   0.72072   0.00000  Uiso   1.00
C1932  C     0.78105   0.84852   0.75691   0.00000  Uiso   1.00
C1933  C     0.67057   0.62313   0.31729   0.00000  Uiso   1.00
C1934  C     0.71006   0.63603   0.31909   0.00000  Uiso   1.00
C1935  C     0.64695   0.80473   0.72079   0.00000  Uiso   1.00
C1936  C     0.78134   0.99024   0.08224   0.00000  Uiso   1.00
C1937  C     0.65146   0.78104   0.75700   0.00000  Uiso   1.00
C1938  C     0.87681   0.67060   0.31726   0.00000  Uiso   1.00
C1939  C     0.86392   0.71010   0.31902   0.00000  Uiso   1.00
C1940  C     0.69530   0.64697   0.72088   0.00000  Uiso   1.00
C1941  C     0.71897   0.65143   0.75712   0.00000  Uiso   1.00
C1942  C     0.82945   0.87688   0.31730   0.00000  Uiso   1.00
C1943  C     0.78996   0.86398   0.31912   0.00000  Uiso   1.00
C1944  C     0.85305   0.80541   0.27924   0.00000  Uiso   1.00
C1945  C     0.84648   0.78370   0.24196   0.00000  Uiso   1.00
C1946  C     0.62531   0.67296   0.68362   0.00000  Uiso   1.00
C1947  C     0.72218   0.98261   0.91738   0.00000  Uiso   1.00
C1948  C     0.59401   0.65942   0.65823   0.00000  Uiso   1.00
C1949  C     0.80538   0.64696   0.27917   0.00000  Uiso   1.00
C1950  C     0.78366   0.65347   0.24189   0.00000  Uiso   1.00
C1951  C     0.67291   0.87476   0.68357   0.00000  Uiso   1.00
C1952  C     0.65936   0.90609   0.65824   0.00000  Uiso   1.00
C1953  C     0.64693   0.69460   0.27930   0.00000  Uiso   1.00
C1954  C     0.65351   0.71635   0.24206   0.00000  Uiso   1.00
C1955  C     0.87481   0.82714   0.68353   0.00000  Uiso   1.00
C1956  C     0.90617   0.84070   0.65824   0.00000  Uiso   1.00
C1957  C     0.69458   0.85307   0.27933   0.00000  Uiso   1.00
C1958  C     0.50975   0.78134   0.08223   0.00000  Uiso   1.00
C1959  C     0.71632   0.84646   0.24208   0.00000  Uiso   1.00
C1960  C     0.82711   0.62522   0.68356   0.00000  Uiso   1.00
C1961  C     0.84067   0.59388   0.65824   0.00000  Uiso   1.00
C1962  C     0.51737   0.72218   0.91738   0.00000  Uiso   1.00
C1963  C     0.96866   0.75975   0.58223   0.00000  Uiso   1.00
C1964  C     0.52782   0.76736   0.41739   0.00000  Uiso   1.00
C1965  C     0.74026   0.96866   0.58223   0.00000  Uiso   1.00
C1966  C     0.73262   0.52782   0.41738   0.00000  Uiso   1.00
C1967  C     0.53134   0.74022   0.58224   0.00000  Uiso   1.00
C1968  C     0.98883   0.71865   0.04186   0.00000  Uiso   1.00
C1969  C     0.97218   0.73261   0.41737   0.00000  Uiso   1.00
C1970  C     0.75976   0.53134   0.58224   0.00000  Uiso   1.00
C1971  C     0.76739   0.97218   0.41738   0.00000  Uiso   1.00
C1972  C     0.75000   0.99999   0.02121   0.00000  Uiso   1.00
C1973  C     0.75000   0.99999   0.97846   0.00000  Uiso   1.00
C1974  C     0.99999   0.75000   0.02121   0.00000  Uiso   1.00
C1975  C     0.99999   0.75000   0.97846   0.00000  Uiso   1.00
C1976  C     0.99999   0.74997   0.52121   0.00000  Uiso   1.00
C1977  C     0.50000   0.74997   0.47846   0.00000  Uiso   1.00
C1978  C     0.75001   0.50000   0.52121   0.00000  Uiso   1.00
C1979  C     0.98093   0.77731   0.95774   0.00000  Uiso   1.00
C1980  C     0.75001   0.50000   0.47846   0.00000  Uiso   1.00
C1981  C     0.75000   0.50000   0.35504   0.00000  Uiso   1.00
C1982  C     0.75000   0.50000   0.64487   0.00000  Uiso   1.00
C1983  C     0.50000   0.75000   0.35504   0.00000  Uiso   1.00
C1984  C     0.50000   0.75000   0.64487   0.00000  Uiso   1.00
C1985  C     0.50000   0.75000   0.85504   0.00000  Uiso   1.00
C1986  C     0.50000   0.75000   0.14487   0.00000  Uiso   1.00
C1987  C     0.75000   0.50000   0.85504   0.00000  Uiso   1.00
C1988  C     0.75000   0.50000   0.14487   0.00000  Uiso   1.00
C1989  C     0.67983   0.56997   0.25009   0.00000  Uiso   1.00
C1990  C     0.78135   0.98883   0.04186   0.00000  Uiso   1.00
C1991  C     0.82008   0.92994   0.75000   0.00000  Uiso   1.00
C1992  C     0.93003   0.67983   0.25010   0.00000  Uiso   1.00
C1993  C     0.57006   0.82007   0.75000   0.00000  Uiso   1.00
C1994  C     0.82017   0.93003   0.25010   0.00000  Uiso   1.00
C1995  C     0.67993   0.57006   0.75000   0.00000  Uiso   1.00
C1996  C     0.56997   0.82017   0.25010   0.00000  Uiso   1.00
C1997  C     0.92994   0.67993   0.75000   0.00000  Uiso   1.00
C1998  C     0.68003   0.92983   0.75010   0.00000  Uiso   1.00
C1999  C     0.82006   0.57007   0.25000   0.00000  Uiso   1.00
C2000  C     0.92983   0.81997   0.75010   0.00000  Uiso   1.00
C2001  C     0.72268   0.98093   0.95773   0.00000  Uiso   1.00
C2002  C     0.57007   0.67994   0.25000   0.00000  Uiso   1.00
C2003  C     0.81997   0.57017   0.75010   0.00000  Uiso   1.00
C2004  C     0.67994   0.92993   0.25000   0.00000  Uiso   1.00
C2005  C     0.57017   0.68003   0.75010   0.00000  Uiso   1.00
C2006  C     0.92993   0.82006   0.25000   0.00000  Uiso   1.00
C2007  C     0.61824   0.90775   0.23062   0.00000  Uiso   1.00
C2008  C     0.87684   0.59700   0.77731   0.00000  Uiso   1.00
C2009  C     0.59226   0.61824   0.23062   0.00000  Uiso   1.00
C2010  C     0.90300   0.87685   0.77730   0.00000  Uiso   1.00
C2011  C     0.88181   0.59218   0.23077   0.00000  Uiso   1.00
C2012  C     0.51116   0.78135   0.04186   0.00000  Uiso   1.00
C2013  C     0.62314   0.90301   0.77729   0.00000  Uiso   1.00
C2014  C     0.90778   0.88178   0.23068   0.00000  Uiso   1.00
C2015  C     0.59699   0.62314   0.77728   0.00000  Uiso   1.00
C2016  C     0.61856   0.59274   0.76995   0.00000  Uiso   1.00
C2017  C     0.87710   0.90281   0.22243   0.00000  Uiso   1.00
C2018  C     0.59274   0.88144   0.76997   0.00000  Uiso   1.00
C2019  C     0.90287   0.62284   0.22250   0.00000  Uiso   1.00
C2020  C     0.88143   0.90726   0.76998   0.00000  Uiso   1.00
C2021  C     0.62295   0.59722   0.22239   0.00000  Uiso   1.00
C2022  C     0.90725   0.61857   0.76999   0.00000  Uiso   1.00
C2023  C     0.51905   0.72268   0.95774   0.00000  Uiso   1.00
C2024  C     0.59722   0.87706   0.22239   0.00000  Uiso   1.00
C2025  C     0.86824   0.65774   0.73062   0.00000  Uiso   1.00
C2026  C     0.62685   0.84700   0.27730   0.00000  Uiso   1.00
C2027  C     0.84227   0.86825   0.73059   0.00000  Uiso   1.00
C2028  C     0.65302   0.62687   0.27727   0.00000  Uiso   1.00
C2029  C     0.63176   0.84226   0.73063   0.00000  Uiso   1.00
C2030  C     0.87311   0.65304   0.27725   0.00000  Uiso   1.00
C2031  C     0.65777   0.63178   0.73067   0.00000  Uiso   1.00
C2032  C     0.84698   0.87314   0.27728   0.00000  Uiso   1.00
C2033  C     0.86856   0.84274   0.26994   0.00000  Uiso   1.00
C2034  C     0.96865   0.76114   0.54186   0.00000  Uiso   1.00
C2035  C     0.62709   0.65281   0.72243   0.00000  Uiso   1.00
C2036  C     0.84272   0.63146   0.26990   0.00000  Uiso   1.00
C2037  C     0.65278   0.87294   0.72239   0.00000  Uiso   1.00
C2038  C     0.63145   0.65727   0.26995   0.00000  Uiso   1.00
C2039  C     0.87297   0.84724   0.72237   0.00000  Uiso   1.00
C2040  C     0.65726   0.86856   0.26997   0.00000  Uiso   1.00
C2041  C     0.84723   0.62705   0.72239   0.00000  Uiso   1.00
C2042  C     0.59811   0.84827   0.24991   0.00000  Uiso   1.00
C2043  C     0.90166   0.65197   0.75024   0.00000  Uiso   1.00
C2044  C     0.65174   0.59812   0.24990   0.00000  Uiso   1.00
H2045  H     0.69413   0.51705   0.09771   0.00000  Uiso   1.00
H2046  H     0.54952   0.78078   0.40174   0.00000  Uiso   1.00
H2047  H     0.60483   0.55823   0.49206   0.00000  Uiso   1.00
H2048  H     0.58441   0.69208   0.48695   0.00000  Uiso   1.00
H2049  H     0.53756   0.68617   0.49626   0.00000  Uiso   1.00
H2050  H     0.59885   0.67747   0.55734   0.00000  Uiso   1.00
H2051  H     0.55153   0.66707   0.56481   0.00000  Uiso   1.00
H2052  H     0.55506   0.61937   0.51288   0.00000  Uiso   1.00
H2053  H     0.58663   0.61121   0.55197   0.00000  Uiso   1.00
H2054  H     0.60276   0.62939   0.50649   0.00000  Uiso   1.00
H2055  H     0.93220   0.66989   0.50989   0.00000  Uiso   1.00
H2056  H     0.97877   0.68127   0.50966   0.00000  Uiso   1.00
H2057  H     0.73296   0.94413   0.59771   0.00000  Uiso   1.00
H2058  H     0.93564   0.65102   0.43920   0.00000  Uiso   1.00
H2059  H     0.98394   0.65880   0.44052   0.00000  Uiso   1.00
H2060  H     0.99005   0.61334   0.49426   0.00000  Uiso   1.00
H2061  H     0.97037   0.59399   0.45096   0.00000  Uiso   1.00
H2062  H     0.94178   0.60477   0.49188   0.00000  Uiso   1.00
H2063  H     0.80782   0.58456   0.48699   0.00000  Uiso   1.00
H2064  H     0.81367   0.53766   0.49602   0.00000  Uiso   1.00
H2065  H     0.82260   0.59864   0.55742   0.00000  Uiso   1.00
H2066  H     0.83297   0.55127   0.56459   0.00000  Uiso   1.00
H2067  H     0.88053   0.55501   0.51253   0.00000  Uiso   1.00
H2068  H     0.71920   0.54952   0.40173   0.00000  Uiso   1.00
H2069  H     0.88884   0.58634   0.55180   0.00000  Uiso   1.00
H2070  H     0.87057   0.60276   0.50649   0.00000  Uiso   1.00
H2071  H     0.83004   0.93231   0.51002   0.00000  Uiso   1.00
H2072  H     0.81881   0.97892   0.50942   0.00000  Uiso   1.00
H2073  H     0.84897   0.93518   0.43935   0.00000  Uiso   1.00
H2074  H     0.84126   0.98351   0.44020   0.00000  Uiso   1.00
H2075  H     0.88673   0.99005   0.49384   0.00000  Uiso   1.00
H2076  H     0.90606   0.96986   0.45079   0.00000  Uiso   1.00
H2077  H     0.89519   0.94174   0.49205   0.00000  Uiso   1.00
H2078  H     0.58033   0.95533   0.27816   0.00000  Uiso   1.00
H2079  H     0.55586   0.73292   0.59771   0.00000  Uiso   1.00
H2080  H     0.62481   0.97465   0.27137   0.00000  Uiso   1.00
H2081  H     0.58620   0.99531   0.24864   0.00000  Uiso   1.00
H2082  H     0.61949   0.95911   0.19827   0.00000  Uiso   1.00
H2083  H     0.57535   0.94315   0.20839   0.00000  Uiso   1.00
H2084  H     0.86608   0.52338   0.83565   0.00000  Uiso   1.00
H2085  H     0.88899   0.52843   0.78973   0.00000  Uiso   1.00
H2086  H     0.91237   0.53802   0.83453   0.00000  Uiso   1.00
H2087  H     0.88854   0.59557   0.83910   0.00000  Uiso   1.00
H2088  H     0.84442   0.58139   0.82721   0.00000  Uiso   1.00
H2089  H     0.54468   0.58033   0.27815   0.00000  Uiso   1.00
H2090  H     0.95048   0.71919   0.40172   0.00000  Uiso   1.00
H2091  H     0.52537   0.62480   0.27137   0.00000  Uiso   1.00
H2092  H     0.50470   0.58620   0.24863   0.00000  Uiso   1.00
H2093  H     0.54089   0.61949   0.19827   0.00000  Uiso   1.00
H2094  H     0.55685   0.57535   0.20838   0.00000  Uiso   1.00
H2095  H     0.97664   0.86609   0.83564   0.00000  Uiso   1.00
H2096  H     0.97158   0.88899   0.78970   0.00000  Uiso   1.00
H2097  H     0.96200   0.91239   0.83450   0.00000  Uiso   1.00
H2098  H     0.90445   0.88856   0.83909   0.00000  Uiso   1.00
H2099  H     0.91862   0.84444   0.82720   0.00000  Uiso   1.00
H2100  H     0.91948   0.54469   0.27861   0.00000  Uiso   1.00
H2101  H     0.76706   0.55587   0.59771   0.00000  Uiso   1.00
H2102  H     0.87504   0.52534   0.27163   0.00000  Uiso   1.00
H2103  H     0.91376   0.50465   0.24915   0.00000  Uiso   1.00
H2104  H     0.88065   0.54073   0.19855   0.00000  Uiso   1.00
H2105  H     0.92476   0.55669   0.20881   0.00000  Uiso   1.00
H2106  H     0.63388   0.97667   0.83560   0.00000  Uiso   1.00
H2107  H     0.61100   0.97159   0.78966   0.00000  Uiso   1.00
H2108  H     0.58759   0.96203   0.83445   0.00000  Uiso   1.00
H2109  H     0.61141   0.90448   0.83907   0.00000  Uiso   1.00
H2110  H     0.65554   0.91864   0.82720   0.00000  Uiso   1.00
H2111  H     0.95533   0.91960   0.27832   0.00000  Uiso   1.00
H2112  H     0.78081   0.95048   0.40172   0.00000  Uiso   1.00
H2113  H     0.97465   0.87514   0.27146   0.00000  Uiso   1.00
H2114  H     0.99533   0.91379   0.24882   0.00000  Uiso   1.00
H2115  H     0.95917   0.88056   0.19837   0.00000  Uiso   1.00
H2116  H     0.94322   0.92469   0.20854   0.00000  Uiso   1.00
H2117  H     0.52334   0.63385   0.83562   0.00000  Uiso   1.00
H2118  H     0.52840   0.61103   0.78965   0.00000  Uiso   1.00
H2119  H     0.53797   0.58756   0.83440   0.00000  Uiso   1.00
H2120  H     0.59552   0.61139   0.83906   0.00000  Uiso   1.00
H2121  H     0.58135   0.65552   0.82720   0.00000  Uiso   1.00
H2122  H     0.58184   0.55054   0.72037   0.00000  Uiso   1.00
H2123  H     0.66546   0.55780   0.98698   0.00000  Uiso   1.00
H2124  H     0.62237   0.52421   0.72916   0.00000  Uiso   1.00
H2125  H     0.57938   0.50964   0.74844   0.00000  Uiso   1.00
H2126  H     0.61989   0.54033   0.80043   0.00000  Uiso   1.00
H2127  H     0.57632   0.55765   0.79348   0.00000  Uiso   1.00
H2128  H     0.84784   0.88023   0.15145   0.00000  Uiso   1.00
H2129  H     0.81732   0.91291   0.17248   0.00000  Uiso   1.00
H2130  H     0.84367   0.92488   0.13057   0.00000  Uiso   1.00
H2131  H     0.87427   0.95276   0.18777   0.00000  Uiso   1.00
H2132  H     0.90001   0.91800   0.16600   0.00000  Uiso   1.00
H2133  H     0.55052   0.91818   0.72043   0.00000  Uiso   1.00
H2134  H     0.71235   0.56366   0.99604   0.00000  Uiso   1.00
H2135  H     0.52420   0.87765   0.72921   0.00000  Uiso   1.00
H2136  H     0.50964   0.92063   0.74851   0.00000  Uiso   1.00
H2137  H     0.54034   0.88009   0.80047   0.00000  Uiso   1.00
H2138  H     0.55766   0.92366   0.79354   0.00000  Uiso   1.00
H2139  H     0.88041   0.65190   0.15136   0.00000  Uiso   1.00
H2140  H     0.91298   0.68251   0.17242   0.00000  Uiso   1.00
H2141  H     0.92510   0.65609   0.13061   0.00000  Uiso   1.00
H2142  H     0.95288   0.62561   0.18794   0.00000  Uiso   1.00
H2143  H     0.91817   0.59980   0.16616   0.00000  Uiso   1.00
H2144  H     0.91820   0.94948   0.72047   0.00000  Uiso   1.00
H2145  H     0.65134   0.57257   0.05741   0.00000  Uiso   1.00
H2146  H     0.87767   0.97581   0.72924   0.00000  Uiso   1.00
H2147  H     0.92064   0.99036   0.74857   0.00000  Uiso   1.00
H2148  H     0.88007   0.95965   0.80050   0.00000  Uiso   1.00
H2149  H     0.92365   0.94233   0.79359   0.00000  Uiso   1.00
H2150  H     0.65233   0.61986   0.15149   0.00000  Uiso   1.00
H2151  H     0.68279   0.58712   0.17250   0.00000  Uiso   1.00
H2152  H     0.65648   0.57525   0.13054   0.00000  Uiso   1.00
H2153  H     0.62580   0.54731   0.18767   0.00000  Uiso   1.00
H2154  H     0.60010   0.58211   0.16590   0.00000  Uiso   1.00
H2155  H     0.94944   0.58180   0.72046   0.00000  Uiso   1.00
H2156  H     0.79952   0.53079   0.90173   0.00000  Uiso   1.00
H2157  H     0.69870   0.58295   0.06461   0.00000  Uiso   1.00
H2158  H     0.97579   0.62232   0.72923   0.00000  Uiso   1.00
H2159  H     0.99032   0.57933   0.74854   0.00000  Uiso   1.00
H2160  H     0.95964   0.61992   0.80049   0.00000  Uiso   1.00
H2161  H     0.94232   0.57635   0.79359   0.00000  Uiso   1.00
H2162  H     0.61987   0.84768   0.15150   0.00000  Uiso   1.00
H2163  H     0.58712   0.81721   0.17251   0.00000  Uiso   1.00
H2164  H     0.57525   0.84352   0.13054   0.00000  Uiso   1.00
H2165  H     0.54731   0.87420   0.18767   0.00000  Uiso   1.00
H2166  H     0.58211   0.89990   0.16590   0.00000  Uiso   1.00
H2167  H     0.83032   0.70533   0.77813   0.00000  Uiso   1.00
H2168  H     0.69498   0.63052   0.01255   0.00000  Uiso   1.00
H2169  H     0.87479   0.72465   0.77135   0.00000  Uiso   1.00
H2170  H     0.83620   0.74531   0.74860   0.00000  Uiso   1.00
H2171  H     0.86950   0.70910   0.69825   0.00000  Uiso   1.00
H2172  H     0.82536   0.69314   0.70836   0.00000  Uiso   1.00
H2173  H     0.61611   0.77336   0.33563   0.00000  Uiso   1.00
H2174  H     0.63899   0.77842   0.28969   0.00000  Uiso   1.00
H2175  H     0.66240   0.78800   0.33447   0.00000  Uiso   1.00
H2176  H     0.63857   0.84554   0.33908   0.00000  Uiso   1.00
H2177  H     0.59445   0.83137   0.32720   0.00000  Uiso   1.00
H2178  H     0.79467   0.83029   0.77807   0.00000  Uiso   1.00
H2179  H     0.66363   0.63882   0.05181   0.00000  Uiso   1.00
H2180  H     0.77536   0.87477   0.77131   0.00000  Uiso   1.00
H2181  H     0.75471   0.83619   0.74853   0.00000  Uiso   1.00
H2182  H     0.79092   0.86951   0.69821   0.00000  Uiso   1.00
H2183  H     0.80688   0.82537   0.70830   0.00000  Uiso   1.00
H2184  H     0.72671   0.61616   0.33553   0.00000  Uiso   1.00
H2185  H     0.72160   0.63903   0.28959   0.00000  Uiso   1.00
H2186  H     0.71207   0.66245   0.33438   0.00000  Uiso   1.00
H2187  H     0.65452   0.63864   0.33905   0.00000  Uiso   1.00
H2188  H     0.66867   0.59451   0.32720   0.00000  Uiso   1.00
H2189  H     0.66966   0.79468   0.77817   0.00000  Uiso   1.00
H2190  H     0.64723   0.62055   0.00648   0.00000  Uiso   1.00
H2191  H     0.62519   0.77536   0.77137   0.00000  Uiso   1.00
H2192  H     0.66380   0.75469   0.74865   0.00000  Uiso   1.00
H2193  H     0.63052   0.79088   0.69828   0.00000  Uiso   1.00
H2194  H     0.67465   0.80684   0.70840   0.00000  Uiso   1.00
H2195  H     0.88376   0.72674   0.33552   0.00000  Uiso   1.00
H2196  H     0.86099   0.72164   0.28951   0.00000  Uiso   1.00
H2197  H     0.83746   0.71211   0.33424   0.00000  Uiso   1.00
H2198  H     0.86128   0.65457   0.33901   0.00000  Uiso   1.00
H2199  H     0.90543   0.66871   0.32720   0.00000  Uiso   1.00
H2200  H     0.70532   0.66961   0.77830   0.00000  Uiso   1.00
H2201  H     0.81770   0.58002   0.01003   0.00000  Uiso   1.00
H2202  H     0.72465   0.62515   0.77145   0.00000  Uiso   1.00
H2203  H     0.74532   0.66379   0.74880   0.00000  Uiso   1.00
H2204  H     0.70916   0.63056   0.69836   0.00000  Uiso   1.00
H2205  H     0.69320   0.67469   0.70852   0.00000  Uiso   1.00
H2206  H     0.77333   0.88383   0.33562   0.00000  Uiso   1.00
H2207  H     0.77839   0.86103   0.28963   0.00000  Uiso   1.00
H2208  H     0.78797   0.83753   0.33437   0.00000  Uiso   1.00
H2209  H     0.84551   0.86137   0.33905   0.00000  Uiso   1.00
H2210  H     0.83134   0.90551   0.32720   0.00000  Uiso   1.00
H2211  H     0.83187   0.80059   0.22029   0.00000  Uiso   1.00
H2212  H     0.77110   0.56877   0.00946   0.00000  Uiso   1.00
H2213  H     0.87237   0.77423   0.22911   0.00000  Uiso   1.00
H2214  H     0.82935   0.75968   0.24832   0.00000  Uiso   1.00
H2215  H     0.86987   0.79031   0.30037   0.00000  Uiso   1.00
H2216  H     0.82630   0.80764   0.29342   0.00000  Uiso   1.00
H2217  H     0.59781   0.63022   0.65145   0.00000  Uiso   1.00
H2218  H     0.56730   0.66292   0.67247   0.00000  Uiso   1.00
H2219  H     0.59365   0.67486   0.63056   0.00000  Uiso   1.00
H2220  H     0.62426   0.70275   0.68776   0.00000  Uiso   1.00
H2221  H     0.65000   0.66798   0.66598   0.00000  Uiso   1.00
H2222  H     0.80054   0.66810   0.22021   0.00000  Uiso   1.00
H2223  H     0.81477   0.59894   0.93936   0.00000  Uiso   1.00
H2224  H     0.77423   0.62756   0.22905   0.00000  Uiso   1.00
H2225  H     0.75962   0.67057   0.24824   0.00000  Uiso   1.00
H2226  H     0.79029   0.63016   0.30033   0.00000  Uiso   1.00
H2227  H     0.80760   0.67373   0.29332   0.00000  Uiso   1.00
H2228  H     0.63014   0.90231   0.65149   0.00000  Uiso   1.00
H2229  H     0.66288   0.93278   0.67250   0.00000  Uiso   1.00
H2230  H     0.67476   0.90647   0.63055   0.00000  Uiso   1.00
H2231  H     0.70270   0.87579   0.68768   0.00000  Uiso   1.00
H2232  H     0.66790   0.85009   0.66591   0.00000  Uiso   1.00
H2233  H     0.66816   0.69949   0.22038   0.00000  Uiso   1.00
H2234  H     0.76645   0.59123   0.94025   0.00000  Uiso   1.00
H2235  H     0.62763   0.72581   0.22918   0.00000  Uiso   1.00
H2236  H     0.67061   0.74038   0.24846   0.00000  Uiso   1.00
H2237  H     0.63010   0.70967   0.30044   0.00000  Uiso   1.00
H2238  H     0.67367   0.69237   0.29350   0.00000  Uiso   1.00
H2239  H     0.90241   0.86992   0.65151   0.00000  Uiso   1.00
H2240  H     0.93285   0.83715   0.67252   0.00000  Uiso   1.00
H2241  H     0.90656   0.82531   0.63053   0.00000  Uiso   1.00
H2242  H     0.87583   0.79734   0.68762   0.00000  Uiso   1.00
H2243  H     0.85016   0.83216   0.66585   0.00000  Uiso   1.00
H2244  H     0.69944   0.83182   0.22041   0.00000  Uiso   1.00
H2245  H     0.75996   0.63669   0.99391   0.00000  Uiso   1.00
H2246  H     0.72579   0.87234   0.22920   0.00000  Uiso   1.00
H2247  H     0.74033   0.82935   0.24849   0.00000  Uiso   1.00
H2248  H     0.70966   0.86991   0.30046   0.00000  Uiso   1.00
H2249  H     0.69233   0.82634   0.29354   0.00000  Uiso   1.00
H2250  H     0.86989   0.59765   0.65150   0.00000  Uiso   1.00
H2251  H     0.83714   0.56719   0.67252   0.00000  Uiso   1.00
H2252  H     0.82527   0.59349   0.63054   0.00000  Uiso   1.00
H2253  H     0.79732   0.62419   0.68765   0.00000  Uiso   1.00
H2254  H     0.83213   0.64988   0.66589   0.00000  Uiso   1.00
H2255  H     0.78009   0.65603   0.95084   0.00000  Uiso   1.00
H2256  H     0.98295   0.69413   0.09771   0.00000  Uiso   1.00
H2257  H     0.80827   0.64516   0.99206   0.00000  Uiso   1.00
H2258  H     0.94216   0.66547   0.98699   0.00000  Uiso   1.00
H2259  H     0.93627   0.71235   0.99613   0.00000  Uiso   1.00
H2260  H     0.92747   0.65125   0.05741   0.00000  Uiso   1.00
H2261  H     0.91708   0.69859   0.06471   0.00000  Uiso   1.00
H2262  H     0.86945   0.69494   0.01272   0.00000  Uiso   1.00
H2263  H     0.86121   0.66351   0.05192   0.00000  Uiso   1.00
H2264  H     0.87943   0.64721   0.00653   0.00000  Uiso   1.00
H2265  H     0.91996   0.81771   0.01001   0.00000  Uiso   1.00
H2266  H     0.93123   0.77112   0.00949   0.00000  Uiso   1.00
H2267  H     0.96920   0.79952   0.90173   0.00000  Uiso   1.00
H2268  H     0.90102   0.81471   0.93935   0.00000  Uiso   1.00
H2269  H     0.90877   0.76640   0.94028   0.00000  Uiso   1.00
H2270  H     0.86331   0.75992   0.99395   0.00000  Uiso   1.00
H2271  H     0.84396   0.78000   0.95087   0.00000  Uiso   1.00
H2272  H     0.85481   0.80821   0.99206   0.00000  Uiso   1.00
H2273  H     0.83452   0.94215   0.98698   0.00000  Uiso   1.00
H2274  H     0.78763   0.93628   0.99609   0.00000  Uiso   1.00
H2275  H     0.84870   0.92743   0.05740   0.00000  Uiso   1.00
H2276  H     0.80135   0.91705   0.06466   0.00000  Uiso   1.00
H2277  H     0.80503   0.86944   0.01264   0.00000  Uiso   1.00
H2278  H     0.80587   0.98294   0.09771   0.00000  Uiso   1.00
H2279  H     0.83642   0.86118   0.05186   0.00000  Uiso   1.00
H2280  H     0.85276   0.87941   0.00650   0.00000  Uiso   1.00
H2281  H     0.68228   0.91995   0.00999   0.00000  Uiso   1.00
H2282  H     0.72887   0.93122   0.00949   0.00000  Uiso   1.00
H2283  H     0.68531   0.90103   0.93932   0.00000  Uiso   1.00
H2284  H     0.73362   0.90876   0.94029   0.00000  Uiso   1.00
H2285  H     0.74005   0.86330   0.99396   0.00000  Uiso   1.00
H2286  H     0.72000   0.84396   0.95085   0.00000  Uiso   1.00
H2287  H     0.69175   0.85481   0.99201   0.00000  Uiso   1.00
H2288  H     0.55781   0.83453   0.98697   0.00000  Uiso   1.00
H2289  H     0.70048   0.96920   0.90173   0.00000  Uiso   1.00
H2290  H     0.56368   0.78764   0.99605   0.00000  Uiso   1.00
H2291  H     0.57257   0.84868   0.05739   0.00000  Uiso   1.00
H2292  H     0.58295   0.80132   0.06462   0.00000  Uiso   1.00
H2293  H     0.63053   0.80502   0.01257   0.00000  Uiso   1.00
H2294  H     0.63881   0.83639   0.05181   0.00000  Uiso   1.00
H2295  H     0.62056   0.85276   0.00647   0.00000  Uiso   1.00
H2296  H     0.58003   0.68229   0.01000   0.00000  Uiso   1.00
H2297  H     0.56876   0.72888   0.00949   0.00000  Uiso   1.00
H2298  H     0.59894   0.68530   0.93932   0.00000  Uiso   1.00
H2299  H     0.59122   0.73362   0.94029   0.00000  Uiso   1.00
H2300  H     0.51705   0.80587   0.09771   0.00000  Uiso   1.00
H2301  H     0.63669   0.74003   0.99396   0.00000  Uiso   1.00
H2302  H     0.65602   0.71999   0.95085   0.00000  Uiso   1.00
H2303  H     0.64517   0.69174   0.99200   0.00000  Uiso   1.00
H2304  H     0.91545   0.80778   0.48696   0.00000  Uiso   1.00
H2305  H     0.96235   0.81364   0.49602   0.00000  Uiso   1.00
H2306  H     0.90134   0.82257   0.55739   0.00000  Uiso   1.00
H2307  H     0.94870   0.83294   0.56459   0.00000  Uiso   1.00
H2308  H     0.94499   0.88050   0.51253   0.00000  Uiso   1.00
H2309  H     0.91363   0.88881   0.55178   0.00000  Uiso   1.00
H2310  H     0.89724   0.87054   0.50645   0.00000  Uiso   1.00
H2311  H     0.53080   0.70048   0.90173   0.00000  Uiso   1.00
H2312  H     0.56770   0.82999   0.51004   0.00000  Uiso   1.00
H2313  H     0.52110   0.81875   0.50946   0.00000  Uiso   1.00
H2314  H     0.56480   0.84892   0.43937   0.00000  Uiso   1.00
H2315  H     0.51648   0.84121   0.44025   0.00000  Uiso   1.00
H2316  H     0.50997   0.88668   0.49390   0.00000  Uiso   1.00
H2317  H     0.53012   0.90601   0.45084   0.00000  Uiso   1.00
H2318  H     0.55828   0.89514   0.49207   0.00000  Uiso   1.00
H2319  H     0.69220   0.91546   0.48697   0.00000  Uiso   1.00
H2320  H     0.68633   0.96235   0.49606   0.00000  Uiso   1.00
H2321  H     0.67746   0.90131   0.55740   0.00000  Uiso   1.00
H2322  H     0.94413   0.76706   0.59771   0.00000  Uiso   1.00
H2323  H     0.66707   0.94866   0.56463   0.00000  Uiso   1.00
H2324  H     0.61948   0.94495   0.51259   0.00000  Uiso   1.00
H2325  H     0.61121   0.91358   0.55183   0.00000  Uiso   1.00
H2326  H     0.62947   0.89721   0.50648   0.00000  Uiso   1.00
H2327  H     0.66997   0.56770   0.51003   0.00000  Uiso   1.00
H2328  H     0.68124   0.52110   0.50949   0.00000  Uiso   1.00
H2329  H     0.65104   0.56473   0.43936   0.00000  Uiso   1.00
H2330  H     0.65877   0.51641   0.44028   0.00000  Uiso   1.00
H2331  H     0.61332   0.50993   0.49395   0.00000  Uiso   1.00
H2332  H     0.59397   0.53002   0.45087   0.00000  Uiso   1.00
O2333  O     0.75000   0.50000   0.25000   0.00000  Uiso   1.00
O2334  O     0.75000   0.96964   0.66317   0.00000  Uiso   1.00
O2335  O     0.96964   0.75000   0.33683   0.00000  Uiso   1.00
O2336  O     0.53036   0.75000   0.66317   0.00000  Uiso   1.00
O2337  O     0.50000   0.71964   0.83683   0.00000  Uiso   1.00
O2338  O     0.50000   0.78036   0.16317   0.00000  Uiso   1.00
O2339  O     0.78036   0.50000   0.83683   0.00000  Uiso   1.00
O2340  O     0.71964   0.50000   0.16317   0.00000  Uiso   1.00
O2341  O     0.50000   0.78036   0.83683   0.00000  Uiso   1.00
O2342  O     0.50000   0.71964   0.16317   0.00000  Uiso   1.00
O2343  O     0.71964   0.50000   0.83683   0.00000  Uiso   1.00
O2344  O     0.75000   0.50000   0.75000   0.00000  Uiso   1.00
O2345  O     0.78036   0.50000   0.16317   0.00000  Uiso   1.00
O2346  O     0.70726   0.57307   0.27282   0.00000  Uiso   1.00
O2347  O     0.79275   0.92693   0.72718   0.00000  Uiso   1.00
O2348  O     0.92693   0.70726   0.27282   0.00000  Uiso   1.00
O2349  O     0.57307   0.79275   0.72718   0.00000  Uiso   1.00
O2350  O     0.79275   0.92693   0.27282   0.00000  Uiso   1.00
O2351  O     0.70726   0.57307   0.72718   0.00000  Uiso   1.00
O2352  O     0.57307   0.79275   0.27282   0.00000  Uiso   1.00
O2353  O     0.92693   0.70726   0.72718   0.00000  Uiso   1.00
O2354  O     0.70726   0.92693   0.72718   0.00000  Uiso   1.00
O2355  O     0.50000   0.75000   0.25000   0.00000  Uiso   1.00
O2356  O     0.79275   0.57307   0.27282   0.00000  Uiso   1.00
O2357  O     0.92693   0.79275   0.72718   0.00000  Uiso   1.00
O2358  O     0.57307   0.70726   0.27282   0.00000  Uiso   1.00
O2359  O     0.79275   0.57307   0.72718   0.00000  Uiso   1.00
O2360  O     0.70726   0.92693   0.27282   0.00000  Uiso   1.00
O2361  O     0.57307   0.70726   0.72718   0.00000  Uiso   1.00
O2362  O     0.92693   0.79275   0.27282   0.00000  Uiso   1.00
O2363  O     0.95726   0.82307   0.77282   0.00000  Uiso   1.00
O2364  O     0.54275   0.67693   0.22718   0.00000  Uiso   1.00
O2365  O     0.67693   0.95726   0.77282   0.00000  Uiso   1.00
O2366  O     0.50000   0.75000   0.75000   0.00000  Uiso   1.00
O2367  O     0.82307   0.54275   0.22718   0.00000  Uiso   1.00
O2368  O     0.54275   0.67693   0.77282   0.00000  Uiso   1.00
O2369  O     0.95726   0.82307   0.22718   0.00000  Uiso   1.00
O2370  O     0.82307   0.54275   0.77282   0.00000  Uiso   1.00
O2371  O     0.67693   0.95726   0.22718   0.00000  Uiso   1.00
O2372  O     0.95726   0.67693   0.22718   0.00000  Uiso   1.00
O2373  O     0.54275   0.82307   0.77282   0.00000  Uiso   1.00
O2374  O     0.67693   0.54275   0.22718   0.00000  Uiso   1.00
O2375  O     0.82307   0.95726   0.77282   0.00000  Uiso   1.00
O2376  O     0.54275   0.82307   0.22718   0.00000  Uiso   1.00
O2377  O     0.75000   0.96964   0.33683   0.00000  Uiso   1.00
O2378  O     0.95726   0.67693   0.77282   0.00000  Uiso   1.00
O2379  O     0.82307   0.95726   0.22718   0.00000  Uiso   1.00
O2380  O     0.67693   0.54275   0.77282   0.00000  Uiso   1.00
O2381  O     0.68635   0.51947   0.02330   0.00000  Uiso   1.00
O2382  O     0.80607   0.53629   0.97600   0.00000  Uiso   1.00
O2383  O     0.98051   0.68635   0.02330   0.00000  Uiso   1.00
O2384  O     0.96369   0.80607   0.97599   0.00000  Uiso   1.00
O2385  O     0.81364   0.98050   0.02330   0.00000  Uiso   1.00
O2386  O     0.69393   0.96368   0.97599   0.00000  Uiso   1.00
O2387  O     0.51948   0.81364   0.02330   0.00000  Uiso   1.00
O2388  O     0.75000   0.53036   0.66317   0.00000  Uiso   1.00
O2389  O     0.53630   0.69393   0.97599   0.00000  Uiso   1.00
O2390  O     0.93635   0.76946   0.52330   0.00000  Uiso   1.00
O2391  O     0.55607   0.78627   0.47601   0.00000  Uiso   1.00
O2392  O     0.73053   0.93635   0.52330   0.00000  Uiso   1.00
O2393  O     0.71370   0.55607   0.47600   0.00000  Uiso   1.00
O2394  O     0.56362   0.73045   0.52329   0.00000  Uiso   1.00
O2395  O     0.94392   0.71367   0.47597   0.00000  Uiso   1.00
O2396  O     0.76949   0.56365   0.52330   0.00000  Uiso   1.00
O2397  O     0.78632   0.94393   0.47599   0.00000  Uiso   1.00
O2398  O     0.53036   0.75000   0.33683   0.00000  Uiso   1.00
O2399  O     0.96964   0.75000   0.66317   0.00000  Uiso   1.00
O2400  O     0.75000   0.53036   0.33683   0.00000  Uiso   1.00
Zn2401 Zn    0.70660   0.50000   0.21760   0.00000  Uiso   1.00
Zn2402 Zn    0.54340   0.75000   0.28240   0.00000  Uiso   1.00
Zn2403 Zn    0.75000   0.95660   0.71760   0.00000  Uiso   1.00
Zn2404 Zn    0.75000   0.54340   0.28240   0.00000  Uiso   1.00
Zn2405 Zn    0.54340   0.75000   0.71760   0.00000  Uiso   1.00
Zn2406 Zn    0.95660   0.75000   0.28240   0.00000  Uiso   1.00
Zn2407 Zn    0.75000   0.54340   0.71760   0.00000  Uiso   1.00
Zn2408 Zn    0.75000   0.95660   0.28240   0.00000  Uiso   1.00
Zn2409 Zn    0.79340   0.50000   0.78240   0.00000  Uiso   1.00
Zn2410 Zn    0.50000   0.70660   0.21760   0.00000  Uiso   1.00
Zn2411 Zn    0.50000   0.79340   0.78240   0.00000  Uiso   1.00
Zn2412 Zn    0.79340   0.50000   0.21760   0.00000  Uiso   1.00
Zn2413 Zn    0.70660   0.50000   0.78240   0.00000  Uiso   1.00
Zn2414 Zn    0.50000   0.79340   0.21760   0.00000  Uiso   1.00
Zn2415 Zn    0.50000   0.70660   0.78240   0.00000  Uiso   1.00
Zn2416 Zn    0.95660   0.75000   0.71760   0.00000  Uiso   1.00
loop_
_geom_bond_atom_site_label_1
_geom_bond_atom_site_label_2
_geom_bond_distance
_geom_bond_site_symmetry_2
_ccdc_geom_bond_type
C1     C79     1.390   .     A
C1     O569    1.386   .     S
C1     C1368   1.418   1_545 S
C2     C152    1.390   .     A
C2     O579    1.387   .     S
C2     C165    1.420   .     S
C3     C215    1.421   .     A
C3     C208    1.422   .     A
C3     C179    1.467   .     S
C4     C218    1.419   .     A
C4     C180    1.467   .     S
C4     C207    1.423   .     A
C5     C217    1.421   .     A
C5     C206    1.422   .     A
C5     C181    1.467   .     S
C6     C205    1.423   .     A
C6     C182    1.467   .     S
C6     C220    1.419   .     A
C7     C183    1.467   .     S
C7     C204    1.422   .     A
C7     C219    1.421   .     A
C8     C193    1.467   .     S
C8     C223    1.423   .     A
C8     C203    1.419   .     A
C9     C202    1.421   .     A
C9     C194    1.467   .     S
C9     C221    1.422   .     A
C10    C201    1.419   .     A
C10    C186    1.467   .     S
C10    C225    1.423   .     A
C11    C224    1.422   .     A
C11    C199    1.421   .     A
C11    C187    1.466   .     S
C12    C227    1.423   .     A
C12    C198    1.419   .     A
C12    C188    1.467   .     S
C13    C1374   1.418   .     A
C13    C153    1.390   .     A
C13    O580    1.386   .     S
C14    C197    1.421   .     A
C14    C190    1.467   .     S
C14    C226    1.422   .     A
C15    C191    1.467   .     S
C15    C196    1.419   .     A
C15    C229    1.423   .     A
C16    C228    1.422   .     A
C16    C195    1.421   .     A
C16    C192    1.467   .     S
C17    C1332   1.397   1_545 A
C17    C176    1.458   .     S
C17    C79     1.397   .     S
C18    C175    1.452   .     S
C18    C1343   1.395   1_545 A
C18    C90     1.395   .     S
C19    C146    1.397   .     A
C19    C174    1.458   .     S
C19    C705    1.397   1_455 S
C20    C717    1.395   1_455 A
C20    C173    1.452   .     S
C20    C150    1.395   .     S
C21    C172    1.458   .     S
C21    C755    1.397   1_455 A
C21    C155    1.397   .     S
C22    C761    1.395   1_455 A
C22    C171    1.452   .     S
C22    C152    1.395   .     S
C23    C1361   1.397   1_545 A
C23    C170    1.458   .     S
C23    C158    1.397   .     S
C24    C154    1.390   .     A
C24    O581    1.387   .     S
C24    C168    1.420   .     A
C25    C154    1.395   .     A
C25    C169    1.452   .     S
C25    C1367   1.395   1_545 S
C26    O569    1.414   .     S
C26    C27     1.534   .     S
C26    H311    1.111   1_554 S
C26    H322    1.110   1_554 S
C27    H345    1.111   .     S
C27    H333    1.111   .     S
C27    C28     1.526   .     S
C28    H356    1.110   .     S
C28    H367    1.110   .     S
C28    H378    1.111   .     S
C29    C30     1.536   .     S
C29    O570    1.415   .     S
C29    H389    1.111   1_556 S
C29    H400    1.108   1_556 S
C30    C31     1.526   .     S
C30    H422    1.111   .     S
C30    H411    1.112   .     S
C31    H445    1.110   .     S
C31    H433    1.110   .     S
C31    H443    1.110   .     S
C32    C33     1.534   .     S
C32    O571    1.414   .     S
C32    H446    1.111   1_554 S
C32    H447    1.110   1_554 S
C33    C34     1.526   .     S
C33    H449    1.111   .     S
C33    H448    1.111   .     S
C34    H452    1.111   .     S
C34    H450    1.110   .     S
C34    H451    1.110   .     S
C35    O582    1.386   .     S
C35    C155    1.390   .     A
C35    C768    1.418   1_455 S
C36    C37     1.536   .     S
C36    O572    1.415   .     S
C36    H453    1.111   1_556 S
C36    H454    1.108   1_556 S
C37    C38     1.526   .     S
C37    H456    1.112   .     S
C37    H457    1.111   .     S
C38    H459    1.110   .     S
C38    H460    1.110   .     S
C38    H458    1.110   .     S
C39    C40     1.534   .     S
C39    O573    1.414   .     S
C39    H461    1.111   1_554 S
C39    H462    1.110   1_554 S
C40    H463    1.111   .     S
C40    H464    1.111   .     S
C40    C41     1.526   .     S
C41    H468    1.111   .     S
C41    H465    1.110   .     S
C41    H467    1.110   .     S
C42    O574    1.415   .     S
C42    C43     1.536   .     S
C42    H469    1.111   1_556 S
C42    H470    1.108   1_556 S
C43    C44     1.526   .     S
C43    H471    1.112   .     S
C43    H472    1.111   .     S
C44    H473    1.110   .     S
C44    H475    1.110   .     S
C44    H474    1.110   .     S
C45    C47     1.534   .     S
C45    O575    1.414   .     S
C45    H476    1.111   1_554 S
C45    H478    1.110   1_554 S
C46    C769    1.420   .     A
C46    O583    1.387   .     S
C46    C157    1.390   .     A
C47    H480    1.111   .     S
C47    C48     1.526   .     S
C47    H479    1.111   .     S
C48    H481    1.110   .     S
C48    H483    1.111   .     S
C48    H482    1.110   .     S
C49    O577    1.415   .     S
C49    C50     1.536   .     S
C49    H484    1.111   1_556 S
C49    H485    1.108   1_556 S
C50    H487    1.111   .     S
C50    C51     1.526   .     S
C50    H486    1.112   .     S
C51    H490    1.110   .     S
C51    H491    1.110   .     S
C51    H489    1.110   .     S
C52    H492    1.111   .     S
C52    H493    1.110   .     S
C52    O578    1.414   .     S
C52    C53     1.534   .     S
C53    C54     1.526   .     S
C53    H494    1.111   .     S
C53    H495    1.111   .     S
C54    H497    1.110   .     S
C54    H496    1.110   .     S
C54    H498    1.111   .     S
C55    C56     1.536   .     S
C55    H501    1.108   .     S
C55    O579    1.415   .     S
C55    H500    1.111   .     S
C56    H503    1.111   .     S
C56    C58     1.526   .     S
C56    H502    1.112   .     S
C57    C158    1.390   .     A
C57    O584    1.386   .     S
C57    C166    1.418   .     S
C58    H506    1.110   .     S
C58    H504    1.110   .     S
C58    H505    1.110   .     S
C59    C60     1.534   .     S
C59    H508    1.110   .     S
C59    O580    1.414   .     S
C59    H507    1.111   .     S
C60    H509    1.111   .     S
C60    H511    1.111   .     S
C60    C61     1.526   .     S
C61    H512    1.110   .     S
C61    H514    1.111   .     S
C61    H513    1.110   .     S
C62    O581    1.415   .     S
C62    H516    1.108   .     S
C62    H515    1.111   .     S
C62    C63     1.536   .     S
C63    H518    1.111   .     S
C63    H517    1.112   .     S
C63    C64     1.526   .     S
C64    H235    1.110   .     S
C64    H519    1.110   .     S
C64    H520    1.110   .     S
C65    H236    1.111   .     S
C65    O582    1.414   .     S
C65    H237    1.110   .     S
C65    C66     1.534   .     S
C66    C67     1.526   .     S
C66    H238    1.111   .     S
C66    H239    1.111   .     S
C67    H240    1.110   .     S
C67    H242    1.111   .     S
C67    H241    1.110   .     S
C68    O585    1.387   .     S
C68    C159    1.390   .     A
C68    C1376   1.420   .     S
C69    O583    1.415   .     S
C69    H244    1.108   .     S
C69    C70     1.536   .     S
C69    H243    1.111   .     S
C70    H247    1.111   .     S
C70    C71     1.526   .     S
C70    H246    1.112   .     S
C71    H249    1.110   .     S
C71    H248    1.110   .     S
C71    H250    1.110   .     S
C72    C73     1.534   .     S
C72    H252    1.110   .     S
C72    H251    1.111   .     S
C72    O584    1.414   .     S
C73    H254    1.111   .     S
C73    C74     1.526   .     S
C73    H253    1.111   .     S
C74    H258    1.111   .     S
C74    H255    1.110   .     S
C74    H257    1.110   .     S
C75    H259    1.111   .     S
C75    O585    1.415   .     S
C75    C76     1.536   .     S
C75    H260    1.108   .     S
C76    C77     1.526   .     S
C76    H262    1.111   .     S
C76    H261    1.112   .     S
C77    H263    1.110   .     S
C77    H265    1.110   .     S
C77    H264    1.110   .     S
C78    H271    1.110   .     S
C78    C80     1.531   .     S
C78    H270    1.108   .     S
C78    C195    1.531   .     S
C79    H233    1.084   .     S
C80    H266    1.111   .     S
C80    H268    1.108   .     S
C80    H269    1.111   .     S
C81    H276    1.112   .     S
C81    C82     1.533   .     S
C81    H275    1.113   .     S
C81    C196    1.528   .     S
C82    H274    1.110   .     S
C82    H273    1.106   .     S
C82    H272    1.111   .     S
C83    C197    1.531   .     S
C83    C84     1.531   .     S
C83    H282    1.110   .     S
C83    H281    1.108   .     S
C84    H279    1.108   .     S
C84    H277    1.111   .     S
C84    H280    1.111   .     S
C85    C198    1.528   .     S
C85    H286    1.113   .     S
C85    H287    1.112   .     S
C85    C86     1.533   .     S
C86    H284    1.106   .     S
C86    H285    1.110   .     S
C86    H283    1.111   .     S
C87    H292    1.108   .     S
C87    H293    1.110   .     S
C87    C199    1.531   .     S
C87    C88     1.531   .     S
C88    H290    1.108   .     S
C88    H288    1.111   .     S
C88    H291    1.111   .     S
C89    H297    1.113   .     S
C89    C91     1.533   .     S
C89    H298    1.112   .     S
C89    C201    1.528   .     S
C90    H344    1.084   .     S
C90    C112    1.390   .     A
C91    H296    1.110   .     S
C91    H294    1.111   .     S
C91    H295    1.106   .     S
C92    H304    1.110   .     S
C92    C202    1.531   .     S
C92    H303    1.108   .     S
C92    C93     1.531   .     S
C93    H299    1.111   .     S
C93    H302    1.111   .     S
C93    H301    1.108   .     S
C94    C95     1.533   .     S
C94    H308    1.113   .     S
C94    H309    1.112   .     S
C94    C203    1.528   .     S
C95    H307    1.110   .     S
C95    H305    1.111   .     S
C95    H306    1.106   .     S
C96    H315    1.104   .     S
C96    C204    1.525   .     S
C96    H314    1.106   .     S
C96    C97     1.531   .     S
C97    H310    1.111   .     S
C97    H312    1.109   .     S
C97    H313    1.110   .     S
C98    C99     1.532   .     S
C98    H320    1.110   .     S
C98    C205    1.530   .     S
C98    H319    1.108   .     S
C99    H316    1.111   .     S
C99    H317    1.108   .     S
C99    H318    1.110   .     S
C100   H325    1.106   .     S
C100   H326    1.104   .     S
C100   C206    1.525   .     S
C100   C102    1.531   .     S
C101   H444    1.084   .     S
C101   C156    1.390   .     A
C101   C623    1.397   .     S
C102   H323    1.109   .     S
C102   H324    1.110   .     S
C102   H321    1.111   .     S
C103   H331    1.110   .     S
C103   C207    1.530   .     S
C103   C104    1.532   .     S
C103   H330    1.108   .     S
C104   H328    1.108   .     S
C104   H329    1.110   .     S
C104   H327    1.111   .     S
C105   H336    1.106   .     S
C105   H337    1.104   .     S
C105   C208    1.525   .     S
C105   C106    1.531   .     S
C106   H334    1.109   .     S
C106   H332    1.111   .     S
C106   H335    1.110   .     S
C107   C209    1.530   .     S
C107   C108    1.531   .     S
C107   H342    1.110   .     S
C107   H341    1.108   .     S
C108   H339    1.108   .     S
C108   H338    1.111   .     S
C108   H340    1.110   .     S
C109   C210    1.525   .     S
C109   C110    1.531   .     S
C109   H349    1.104   .     S
C109   H348    1.106   .     S
C110   H343    1.111   .     S
C110   H346    1.109   .     S
C110   H347    1.110   .     S
C111   H354    1.110   .     S
C111   H353    1.108   .     S
C111   C212    1.530   .     S
C111   C114    1.531   .     S
C112   O570    1.387   .     S
C112   C1369   1.420   1_545 S
C113   C624    1.395   .     A
C113   C167    1.390   .     A
C113   H455    1.084   .     S
C114   H352    1.110   .     S
C114   H350    1.111   .     S
C114   H351    1.108   .     S
C115   H359    1.108   .     S
C115   C116    1.531   .     S
C115   C213    1.531   .     S
C115   H360    1.110   .     S
C116   H355    1.111   .     S
C116   H357    1.108   .     S
C116   H358    1.111   .     S
C117   C118    1.533   .     S
C117   H365    1.112   .     S
C117   H364    1.113   .     S
C117   C214    1.528   .     S
C118   H361    1.111   .     S
C118   H362    1.106   .     S
C118   H363    1.110   .     S
C119   H371    1.110   .     S
C119   C120    1.531   .     S
C119   C215    1.531   .     S
C119   H370    1.108   .     S
C120   H369    1.111   .     S
C120   H366    1.111   .     S
C120   H368    1.108   .     S
C121   H376    1.112   .     S
C121   H375    1.113   .     S
C121   C122    1.533   .     S
C121   C216    1.528   .     S
C122   H373    1.106   .     S
C122   H374    1.110   .     S
C122   H372    1.111   .     S
C123   H381    1.108   .     S
C123   C125    1.531   .     S
C123   C217    1.531   .     S
C123   H382    1.110   .     S
C124   H466    1.084   .     S
C124   C1225   1.397   .     A
C124   C178    1.391   .     A
C125   H380    1.111   .     S
C125   H377    1.111   .     S
C125   H379    1.108   .     S
C126   C127    1.533   .     S
C126   C218    1.528   .     S
C126   H387    1.112   .     S
C126   H386    1.113   .     S
C127   H384    1.106   .     S
C127   H383    1.111   .     S
C127   H385    1.110   .     S
C128   H393    1.110   .     S
C128   C129    1.531   .     S
C128   C219    1.531   .     S
C128   H392    1.108   .     S
C129   H388    1.111   .     S
C129   H390    1.108   .     S
C129   H391    1.111   .     S
C130   C220    1.528   .     S
C130   C131    1.533   .     S
C130   H397    1.113   .     S
C130   H398    1.112   .     S
C131   H396    1.110   .     S
C131   H394    1.111   .     S
C131   H395    1.106   .     S
C132   C221    1.525   .     S
C132   H404    1.104   .     S
C132   H403    1.106   .     S
C132   C133    1.531   .     S
C133   H399    1.111   .     S
C133   H401    1.109   .     S
C133   H402    1.110   .     S
C134   H408    1.108   .     S
C134   C223    1.530   .     S
C134   C136    1.531   .     S
C134   H409    1.110   .     S
C135   C189    1.390   .     A
C135   C1226   1.395   .     A
C135   H477    1.084   .     S
C136   H407    1.110   .     S
C136   H406    1.108   .     S
C136   H405    1.111   .     S
C137   H415    1.104   .     S
C137   C224    1.525   .     S
C137   H414    1.106   .     S
C137   C138    1.531   .     S
C138   H413    1.110   .     S
C138   H410    1.111   .     S
C138   H412    1.109   .     S
C139   C140    1.532   .     S
C139   H420    1.110   .     S
C139   C225    1.530   .     S
C139   H419    1.108   .     S
C140   H417    1.108   .     S
C140   H418    1.110   .     S
C140   H416    1.111   .     S
C141   C226    1.525   .     S
C141   H425    1.106   .     S
C141   H426    1.104   .     S
C141   C142    1.531   .     S
C142   H424    1.110   .     S
C142   H423    1.109   .     S
C142   H421    1.111   .     S
C143   C144    1.531   .     S
C143   C227    1.530   .     S
C143   H430    1.108   .     S
C143   H431    1.110   .     S
C144   H427    1.111   .     S
C144   H429    1.110   .     S
C144   H428    1.108   .     S
C145   H436    1.106   .     S
C145   C147    1.531   .     S
C145   C228    1.525   .     S
C145   H437    1.104   .     S
C146   C200    1.390   .     A
C146   H488    1.084   .     S
C147   H434    1.109   .     S
C147   H432    1.111   .     S
C147   H435    1.110   .     S
C148   H442    1.110   .     S
C148   C149    1.532   .     S
C148   C229    1.530   .     S
C148   H441    1.108   .     S
C149   H439    1.108   .     S
C149   H438    1.111   .     S
C149   H440    1.110   .     S
C150   C211    1.390   .     A
C150   H499    1.084   .     S
C151   C222    1.390   .     A
C151   C625    1.397   .     A
C151   H510    1.084   .     S
C152   H234    1.084   .     S
C153   C1231   1.397   .     A
C153   H245    1.084   .     S
C154   H256    1.084   .     S
C155   H267    1.084   .     S
C156   O571    1.386   .     S
C156   C162    1.418   .     A
C157   C626    1.395   .     A
C157   H278    1.084   .     S
C158   H289    1.084   .     S
C159   H300    1.084   .     S
C159   C1233   1.395   .     S
C160   C178    1.418   .     A
C160   C1209   1.418   .     S
C160   C161    1.472   1_554 S
C161   C189    1.420   .     A
C161   C160    1.472   1_556 S
C161   C1320   1.420   .     S
C162   C163    1.472   1_554 S
C162   C804    1.418   .     S
C163   C167    1.420   .     A
C163   C162    1.472   1_556 S
C163   C815    1.420   .     S
C164   C769    1.472   .     S
C164   C222    1.418   .     A
C164   C639    1.418   .     S
C165   C650    1.420   1_455 A
C165   C768    1.472   1_455 S
C166   C1221   1.418   1_545 A
C166   C168    1.472   .     S
C167   O572    1.387   .     S
C168   C1276   1.420   1_545 S
C169   O588    1.283   .     A
C169   O1773   1.283   1_545 S
C170   O1730   1.285   1_545 A
C170   O576    1.285   .     S
C171   O1127   1.283   1_455 A
C171   O586    1.283   .     S
C172   O1191   1.285   1_455 A
C172   O524    1.285   .     S
C173   O525    1.283   .     S
C173   O529    1.283   .     S
C174   O526    1.285   .     S
C174   O530    1.285   .     S
C175   O527    1.283   .     S
C175   O531    1.283   .     S
C176   O528    1.285   .     S
C176   O533    1.285   .     S
C177   O562    1.281   .     A
C177   C232    1.467   .     S
C177   O534    1.284   .     A
C178   O573    1.386   .     S
C179   O563    1.282   .     A
C179   O535    1.283   .     A
C180   O560    1.281   .     A
C180   O536    1.284   .     A
C181   O561    1.282   .     A
C181   O537    1.283   .     A
C182   O538    1.284   .     A
C182   O567    1.281   .     A
C183   O539    1.283   .     A
C183   O568    1.282   .     A
C184   O540    1.284   .     A
C184   O564    1.281   .     A
C184   C230    1.467   .     S
C185   C231    1.467   .     S
C185   O541    1.283   .     A
C185   O566    1.282   .     A
C186   O542    1.281   .     A
C186   O553    1.284   .     A
C187   O544    1.282   .     A
C187   O555    1.283   .     A
C188   O551    1.284   .     A
C188   O545    1.281   .     A
C189   O574    1.387   .     S
C190   O546    1.282   .     A
C190   O552    1.283   .     A
C191   O558    1.284   .     A
C191   O547    1.281   .     A
C192   O559    1.283   .     A
C192   O548    1.282   .     A
C193   O556    1.284   .     A
C193   O549    1.281   .     A
C194   O557    1.283   .     A
C194   O550    1.282   .     A
C195   C212    1.401   .     A
C196   C210    1.398   .     A
C197   C209    1.401   .     A
C198   C208    1.398   .     A
C199   C207    1.401   .     A
C200   O575    1.386   .     S
C200   C766    1.418   1_455 S
C201   C206    1.398   .     A
C202   C205    1.401   .     A
C203   C204    1.398   .     A
C209   C232    1.423   .     A
C210   C231    1.422   .     A
C211   O577    1.387   .     S
C211   C767    1.420   1_455 S
C212   C230    1.423   .     A
C213   C229    1.401   .     A
C213   C231    1.421   .     A
C214   C230    1.419   .     A
C214   C228    1.398   .     A
C215   C227    1.401   .     A
C216   C226    1.398   .     A
C216   C232    1.419   .     A
C217   C225    1.401   .     A
C218   C224    1.398   .     A
C219   C223    1.401   .     A
C220   C221    1.398   .     A
C222   O578    1.386   .     S
H311   C26     1.111   1_556 S
H322   C26     1.110   1_556 S
H389   C29     1.111   1_554 S
H400   C29     1.108   1_554 S
H446   C32     1.111   1_556 S
H447   C32     1.110   1_556 S
H453   C36     1.111   1_554 S
H454   C36     1.108   1_554 S
H461   C39     1.111   1_556 S
H462   C39     1.110   1_556 S
H469   C42     1.111   1_554 S
H470   C42     1.108   1_554 S
H476   C45     1.111   1_556 S
H478   C45     1.110   1_556 S
H484   C49     1.111   1_554 S
H485   C49     1.108   1_554 S
O521   Zn592   1.951   .     S
O521   Zn600   1.951   .     S
O521   Zn589   1.951   .     S
O521   Zn1804  1.951   1_545 S
O522   Zn591   1.934   .     S
O522   C1378   1.285   .     A
O523   Zn594   1.934   .     S
O523   C775    1.283   .     A
O524   Zn593   1.934   .     S
O525   Zn603   1.934   .     S
O526   Zn602   1.934   .     S
O527   Zn597   1.934   .     S
O528   Zn589   1.934   .     S
O529   Zn599   1.934   .     S
O530   Zn598   1.934   .     S
O531   Zn601   1.934   .     S
O532   Zn601   1.951   .     S
O532   Zn597   1.951   .     S
O532   Zn595   1.951   .     S
O532   Zn1799  1.951   1_545 S
O533   Zn600   1.934   .     S
O534   Zn592   1.947   .     S
O535   Zn591   1.947   .     S
O536   Zn594   1.947   .     S
O537   Zn593   1.947   .     S
O538   Zn596   1.947   .     S
O539   Zn595   1.947   .     S
O540   Zn590   1.947   .     S
O541   Zn604   1.947   .     S
O542   Zn591   1.947   .     S
O543   Zn1198  1.951   1_455 S
O543   Zn598   1.951   .     S
O543   Zn590   1.951   .     S
O543   Zn602   1.951   .     S
O544   Zn592   1.947   .     S
O545   Zn604   1.947   .     S
O546   Zn590   1.947   .     S
O547   Zn595   1.947   .     S
O548   Zn596   1.947   .     S
O549   Zn593   1.947   .     S
O550   Zn594   1.947   .     S
O551   Zn1203  1.947   .     S
O552   Zn598   1.947   .     S
O553   Zn1809  1.947   .     S
O554   Zn1208  1.951   1_455 S
O554   Zn593   1.951   .     S
O554   Zn599   1.951   .     S
O554   Zn603   1.951   .     S
O555   Zn600   1.947   .     S
O556   Zn603   1.947   .     S
O557   Zn1206  1.947   .     S
O558   Zn597   1.947   .     S
O559   Zn1797  1.947   .     S
O560   Zn1202  1.947   .     S
O561   Zn599   1.947   .     S
O562   Zn589   1.947   .     S
O563   Zn1805  1.947   .     S
O564   Zn602   1.947   .     S
O565   Zn596   1.934   .     S
O565   C1377   1.283   .     S
O566   Zn1207  1.947   .     S
O567   Zn1808  1.947   .     S
O568   Zn601   1.947   .     S
O576   Zn595   1.934   .     S
O586   Zn590   1.934   .     S
O587   C776    1.285   .     A
O587   Zn604   1.934   .     S
O588   Zn592   1.934   .     S
Zn589  O1767   1.947   1_545 S
Zn591  O1740   1.951   .     S
Zn594  O1147   1.951   .     S
Zn596  O1729   1.951   .     S
Zn597  O1771   1.947   1_545 S
Zn598  O1164   1.947   1_455 S
Zn599  O1155   1.947   1_455 S
Zn600  O1775   1.947   1_545 S
Zn601  O1761   1.947   1_545 S
Zn602  O1161   1.947   1_455 S
Zn603  O1170   1.947   1_455 S
Zn604  O1158   1.951   .     S
C605   C683    1.390   .     A
C605   O1173   1.386   .     S
C605   C1972   1.418   1_545 S
C606   C756    1.390   .     A
C606   O1183   1.387   .     S
C606   C769    1.420   .     S
C607   C819    1.421   .     A
C607   C812    1.422   .     A
C607   C783    1.467   .     S
C608   C822    1.419   .     A
C608   C784    1.467   .     S
C608   C811    1.423   .     A
C609   C821    1.421   .     A
C609   C810    1.422   .     A
C609   C785    1.467   .     S
C610   C809    1.423   .     A
C610   C786    1.467   .     S
C610   C824    1.419   .     A
C611   C787    1.467   .     S
C611   C808    1.422   .     A
C611   C823    1.421   .     A
C612   C797    1.467   .     S
C612   C827    1.423   .     A
C612   C807    1.419   .     A
C613   C806    1.421   .     A
C613   C798    1.467   .     S
C613   C825    1.422   .     A
C614   C805    1.419   .     A
C614   C790    1.467   .     S
C614   C829    1.423   .     A
C615   C828    1.422   .     A
C615   C803    1.421   .     A
C615   C791    1.466   .     S
C616   C831    1.423   .     A
C616   C802    1.419   .     A
C616   C792    1.467   .     S
C617   C1978   1.418   .     A
C617   C757    1.390   .     A
C617   O1184   1.386   .     S
C618   C801    1.421   .     A
C618   C794    1.467   .     S
C618   C830    1.422   .     A
C619   C795    1.467   .     S
C619   C800    1.419   .     A
C619   C833    1.423   .     A
C620   C832    1.422   .     A
C620   C799    1.421   .     A
C620   C796    1.467   .     S
C621   C1936   1.397   1_545 A
C621   C780    1.458   .     S
C621   C683    1.397   .     S
C622   C779    1.452   .     S
C622   C1947   1.395   1_545 A
C622   C694    1.395   .     S
C623   C750    1.397   .     A
C623   C778    1.458   .     S
C624   C777    1.452   .     S
C624   C754    1.395   .     S
C625   C776    1.458   .     S
C625   C759    1.397   .     S
C626   C775    1.452   .     S
C626   C756    1.395   .     S
C627   C1965   1.397   1_545 A
C627   C774    1.458   .     S
C627   C762    1.397   .     S
C628   C758    1.390   .     A
C628   O1185   1.387   .     S
C628   C772    1.420   .     A
C629   C758    1.395   .     A
C629   C773    1.452   .     S
C629   C1971   1.395   1_545 S
C630   O1173   1.414   .     S
C630   C631    1.534   .     S
C630   H915    1.111   1_554 S
C630   H926    1.110   1_554 S
C631   H949    1.111   .     S
C631   H937    1.111   .     S
C631   C632    1.526   .     S
C632   H960    1.110   .     S
C632   H971    1.110   .     S
C632   H982    1.111   .     S
C633   C634    1.536   .     S
C633   O1174   1.415   .     S
C633   H993    1.111   1_556 S
C633   H1004   1.108   1_556 S
C634   C635    1.526   .     S
C634   H1026   1.111   .     S
C634   H1015   1.112   .     S
C635   H1049   1.110   .     S
C635   H1037   1.110   .     S
C635   H1047   1.110   .     S
C636   C637    1.534   .     S
C636   O1175   1.414   .     S
C636   H1050   1.111   1_554 S
C636   H1051   1.110   1_554 S
C637   C638    1.526   .     S
C637   H1053   1.111   .     S
C637   H1052   1.111   .     S
C638   H1056   1.111   .     S
C638   H1054   1.110   .     S
C638   H1055   1.110   .     S
C639   O1186   1.386   .     S
C639   C759    1.390   .     A
C640   C641    1.536   .     S
C640   O1176   1.415   .     S
C640   H1057   1.111   1_556 S
C640   H1058   1.108   1_556 S
C641   C642    1.526   .     S
C641   H1060   1.112   .     S
C641   H1061   1.111   .     S
C642   H1063   1.110   .     S
C642   H1064   1.110   .     S
C642   H1062   1.110   .     S
C643   C644    1.534   .     S
C643   O1177   1.414   .     S
C643   H1065   1.111   1_554 S
C643   H1066   1.110   1_554 S
C644   H1067   1.111   .     S
C644   H1068   1.111   .     S
C644   C645    1.526   .     S
C645   H1072   1.111   .     S
C645   H1069   1.110   .     S
C645   H1071   1.110   .     S
C646   O1178   1.415   .     S
C646   C647    1.536   .     S
C646   H1073   1.111   1_556 S
C646   H1074   1.108   1_556 S
C647   C648    1.526   .     S
C647   H1075   1.112   .     S
C647   H1076   1.111   .     S
C648   H1077   1.110   .     S
C648   H1079   1.110   .     S
C648   H1078   1.110   .     S
C649   C651    1.534   .     S
C649   O1179   1.414   .     S
C649   H1080   1.111   1_554 S
C649   H1082   1.110   1_554 S
C650   C165    1.420   1_655 A
C650   O1187   1.387   .     S
C650   C761    1.390   .     A
C651   H1084   1.111   .     S
C651   C652    1.526   .     S
C651   H1083   1.111   .     S
C652   H1085   1.110   .     S
C652   H1087   1.111   .     S
C652   H1086   1.110   .     S
C653   O1181   1.415   .     S
C653   C654    1.536   .     S
C653   H1088   1.111   1_556 S
C653   H1089   1.108   1_556 S
C654   H1091   1.111   .     S
C654   C655    1.526   .     S
C654   H1090   1.112   .     S
C655   H1094   1.110   .     S
C655   H1095   1.110   .     S
C655   H1093   1.110   .     S
C656   H1096   1.111   .     S
C656   H1097   1.110   .     S
C656   O1182   1.414   .     S
C656   C657    1.534   .     S
C657   C658    1.526   .     S
C657   H1098   1.111   .     S
C657   H1099   1.111   .     S
C658   H1101   1.110   .     S
C658   H1100   1.110   .     S
C658   H1102   1.111   .     S
C659   C660    1.536   .     S
C659   H1105   1.108   .     S
C659   O1183   1.415   .     S
C659   H1104   1.111   .     S
C660   H1107   1.111   .     S
C660   C662    1.526   .     S
C660   H1106   1.112   .     S
C661   C762    1.390   .     A
C661   O1188   1.386   .     S
C661   C770    1.418   .     S
C662   H1110   1.110   .     S
C662   H1108   1.110   .     S
C662   H1109   1.110   .     S
C663   C664    1.534   .     S
C663   H1112   1.110   .     S
C663   O1184   1.414   .     S
C663   H1111   1.111   .     S
C664   H1113   1.111   .     S
C664   H1115   1.111   .     S
C664   C665    1.526   .     S
C665   H1116   1.110   .     S
C665   H1118   1.111   .     S
C665   H1117   1.110   .     S
C666   O1185   1.415   .     S
C666   H1120   1.108   .     S
C666   H1119   1.111   .     S
C666   C667    1.536   .     S
C667   H1122   1.111   .     S
C667   H1121   1.112   .     S
C667   C668    1.526   .     S
C668   H839    1.110   .     S
C668   H1123   1.110   .     S
C668   H1124   1.110   .     S
C669   H840    1.111   .     S
C669   O1186   1.414   .     S
C669   H841    1.110   .     S
C669   C670    1.534   .     S
C670   C671    1.526   .     S
C670   H842    1.111   .     S
C670   H843    1.111   .     S
C671   H844    1.110   .     S
C671   H846    1.111   .     S
C671   H845    1.110   .     S
C672   O1189   1.387   .     S
C672   C763    1.390   .     A
C672   C1980   1.420   .     S
C673   O1187   1.415   .     S
C673   H848    1.108   .     S
C673   C674    1.536   .     S
C673   H847    1.111   .     S
C674   H851    1.111   .     S
C674   C675    1.526   .     S
C674   H850    1.112   .     S
C675   H853    1.110   .     S
C675   H852    1.110   .     S
C675   H854    1.110   .     S
C676   C677    1.534   .     S
C676   H856    1.110   .     S
C676   H855    1.111   .     S
C676   O1188   1.414   .     S
C677   H858    1.111   .     S
C677   C678    1.526   .     S
C677   H857    1.111   .     S
C678   H862    1.111   .     S
C678   H859    1.110   .     S
C678   H861    1.110   .     S
C679   H863    1.111   .     S
C679   O1189   1.415   .     S
C679   C680    1.536   .     S
C679   H864    1.108   .     S
C680   C681    1.526   .     S
C680   H866    1.111   .     S
C680   H865    1.112   .     S
C681   H867    1.110   .     S
C681   H869    1.110   .     S
C681   H868    1.110   .     S
C682   H875    1.110   .     S
C682   C684    1.531   .     S
C682   H874    1.108   .     S
C682   C799    1.531   .     S
C683   H837    1.084   .     S
C684   H870    1.111   .     S
C684   H872    1.108   .     S
C684   H873    1.111   .     S
C685   H880    1.112   .     S
C685   C686    1.533   .     S
C685   H879    1.113   .     S
C685   C800    1.528   .     S
C686   H878    1.110   .     S
C686   H877    1.106   .     S
C686   H876    1.111   .     S
C687   C801    1.531   .     S
C687   C688    1.531   .     S
C687   H886    1.110   .     S
C687   H885    1.108   .     S
C688   H883    1.108   .     S
C688   H881    1.111   .     S
C688   H884    1.111   .     S
C689   C802    1.528   .     S
C689   H890    1.113   .     S
C689   H891    1.112   .     S
C689   C690    1.533   .     S
C690   H888    1.106   .     S
C690   H889    1.110   .     S
C690   H887    1.111   .     S
C691   H896    1.108   .     S
C691   H897    1.110   .     S
C691   C803    1.531   .     S
C691   C692    1.531   .     S
C692   H894    1.108   .     S
C692   H892    1.111   .     S
C692   H895    1.111   .     S
C693   H901    1.113   .     S
C693   C695    1.533   .     S
C693   H902    1.112   .     S
C693   C805    1.528   .     S
C694   H948    1.084   .     S
C694   C716    1.390   .     A
C695   H900    1.110   .     S
C695   H898    1.111   .     S
C695   H899    1.106   .     S
C696   H908    1.110   .     S
C696   C806    1.531   .     S
C696   H907    1.108   .     S
C696   C697    1.531   .     S
C697   H903    1.111   .     S
C697   H906    1.111   .     S
C697   H905    1.108   .     S
C698   C699    1.533   .     S
C698   H912    1.113   .     S
C698   H913    1.112   .     S
C698   C807    1.528   .     S
C699   H911    1.110   .     S
C699   H909    1.111   .     S
C699   H910    1.106   .     S
C700   H919    1.104   .     S
C700   C808    1.525   .     S
C700   H918    1.106   .     S
C700   C701    1.531   .     S
C701   H914    1.111   .     S
C701   H916    1.109   .     S
C701   H917    1.110   .     S
C702   C703    1.532   .     S
C702   H924    1.110   .     S
C702   C809    1.530   .     S
C702   H923    1.108   .     S
C703   H920    1.111   .     S
C703   H921    1.108   .     S
C703   H922    1.110   .     S
C704   H929    1.106   .     S
C704   H930    1.104   .     S
C704   C810    1.525   .     S
C704   C706    1.531   .     S
C705   H1048   1.084   .     S
C705   C760    1.390   .     A
C705   C19     1.397   1_655 S
C706   H927    1.109   .     S
C706   H928    1.110   .     S
C706   H925    1.111   .     S
C707   H935    1.110   .     S
C707   C811    1.530   .     S
C707   C708    1.532   .     S
C707   H934    1.108   .     S
C708   H932    1.108   .     S
C708   H933    1.110   .     S
C708   H931    1.111   .     S
C709   H940    1.106   .     S
C709   H941    1.104   .     S
C709   C812    1.525   .     S
C709   C710    1.531   .     S
C710   H938    1.109   .     S
C710   H936    1.111   .     S
C710   H939    1.110   .     S
C711   C813    1.530   .     S
C711   C712    1.531   .     S
C711   H946    1.110   .     S
C711   H945    1.108   .     S
C712   H943    1.108   .     S
C712   H942    1.111   .     S
C712   H944    1.110   .     S
C713   C814    1.525   .     S
C713   C714    1.531   .     S
C713   H953    1.104   .     S
C713   H952    1.106   .     S
C714   H947    1.111   .     S
C714   H950    1.109   .     S
C714   H951    1.110   .     S
C715   H958    1.110   .     S
C715   H957    1.108   .     S
C715   C816    1.530   .     S
C715   C718    1.531   .     S
C716   O1174   1.387   .     S
C716   C1973   1.420   1_545 S
C717   C20     1.395   1_655 A
C717   C771    1.390   .     A
C717   H1059   1.084   .     S
C718   H956    1.110   .     S
C718   H954    1.111   .     S
C718   H955    1.108   .     S
C719   H963    1.108   .     S
C719   C720    1.531   .     S
C719   C817    1.531   .     S
C719   H964    1.110   .     S
C720   H959    1.111   .     S
C720   H961    1.108   .     S
C720   H962    1.111   .     S
C721   C722    1.533   .     S
C721   H969    1.112   .     S
C721   H968    1.113   .     S
C721   C818    1.528   .     S
C722   H965    1.111   .     S
C722   H966    1.106   .     S
C722   H967    1.110   .     S
C723   H975    1.110   .     S
C723   C724    1.531   .     S
C723   C819    1.531   .     S
C723   H974    1.108   .     S
C724   H973    1.111   .     S
C724   H970    1.111   .     S
C724   H972    1.108   .     S
C725   H980    1.112   .     S
C725   H979    1.113   .     S
C725   C726    1.533   .     S
C725   C820    1.528   .     S
C726   H977    1.106   .     S
C726   H978    1.110   .     S
C726   H976    1.111   .     S
C727   H985    1.108   .     S
C727   C729    1.531   .     S
C727   C821    1.531   .     S
C727   H986    1.110   .     S
C728   H1070   1.084   .     S
C728   C1829   1.397   .     A
C728   C782    1.391   .     A
C729   H984    1.111   .     S
C729   H981    1.111   .     S
C729   H983    1.108   .     S
C730   C731    1.533   .     S
C730   C822    1.528   .     S
C730   H991    1.112   .     S
C730   H990    1.113   .     S
C731   H988    1.106   .     S
C731   H987    1.111   .     S
C731   H989    1.110   .     S
C732   H997    1.110   .     S
C732   C733    1.531   .     S
C732   C823    1.531   .     S
C732   H996    1.108   .     S
C733   H992    1.111   .     S
C733   H994    1.108   .     S
C733   H995    1.111   .     S
C734   C824    1.528   .     S
C734   C735    1.533   .     S
C734   H1001   1.113   .     S
C734   H1002   1.112   .     S
C735   H1000   1.110   .     S
C735   H998    1.111   .     S
C735   H999    1.106   .     S
C736   C825    1.525   .     S
C736   H1008   1.104   .     S
C736   H1007   1.106   .     S
C736   C737    1.531   .     S
C737   H1003   1.111   .     S
C737   H1005   1.109   .     S
C737   H1006   1.110   .     S
C738   H1012   1.108   .     S
C738   C827    1.530   .     S
C738   C740    1.531   .     S
C738   H1013   1.110   .     S
C739   C793    1.390   .     A
C739   C1830   1.395   .     A
C739   H1081   1.084   .     S
C740   H1011   1.110   .     S
C740   H1010   1.108   .     S
C740   H1009   1.111   .     S
C741   H1019   1.104   .     S
C741   C828    1.525   .     S
C741   H1018   1.106   .     S
C741   C742    1.531   .     S
C742   H1017   1.110   .     S
C742   H1014   1.111   .     S
C742   H1016   1.109   .     S
C743   C744    1.532   .     S
C743   H1024   1.110   .     S
C743   C829    1.530   .     S
C743   H1023   1.108   .     S
C744   H1021   1.108   .     S
C744   H1022   1.110   .     S
C744   H1020   1.111   .     S
C745   C830    1.525   .     S
C745   H1029   1.106   .     S
C745   H1030   1.104   .     S
C745   C746    1.531   .     S
C746   H1028   1.110   .     S
C746   H1027   1.109   .     S
C746   H1025   1.111   .     S
C747   C748    1.531   .     S
C747   C831    1.530   .     S
C747   H1034   1.108   .     S
C747   H1035   1.110   .     S
C748   H1031   1.111   .     S
C748   H1033   1.110   .     S
C748   H1032   1.108   .     S
C749   H1040   1.106   .     S
C749   C751    1.531   .     S
C749   C832    1.525   .     S
C749   H1041   1.104   .     S
C750   C804    1.390   .     A
C750   H1092   1.084   .     S
C751   H1038   1.109   .     S
C751   H1036   1.111   .     S
C751   H1039   1.110   .     S
C752   H1046   1.110   .     S
C752   C753    1.532   .     S
C752   C833    1.530   .     S
C752   H1045   1.108   .     S
C753   H1043   1.108   .     S
C753   H1042   1.111   .     S
C753   H1044   1.110   .     S
C754   C815    1.390   .     A
C754   H1103   1.084   .     S
C755   C826    1.390   .     A
C755   C21     1.397   1_655 A
C755   H1114   1.084   .     S
C756   H838    1.084   .     S
C757   C1835   1.397   .     A
C757   H849    1.084   .     S
C758   H860    1.084   .     S
C759   H871    1.084   .     S
C760   O1175   1.386   .     S
C760   C766    1.418   .     A
C761   C22     1.395   1_655 A
C761   H882    1.084   .     S
C762   H893    1.084   .     S
C763   H904    1.084   .     S
C763   C1837   1.395   .     S
C764   C782    1.418   .     A
C764   C1813   1.418   .     S
C764   C765    1.472   1_554 S
C765   C793    1.420   .     A
C765   C764    1.472   1_556 S
C765   C1924   1.420   .     S
C766   C767    1.472   1_554 S
C766   C200    1.418   1_655 S
C767   C771    1.420   .     A
C767   C766    1.472   1_556 S
C767   C211    1.420   1_655 S
C768   C165    1.472   1_655 S
C768   C826    1.418   .     A
C768   C35     1.418   1_655 S
C770   C1825   1.418   1_545 A
C770   C772    1.472   .     S
C771   O1176   1.387   .     S
C772   C1880   1.420   1_545 S
C773   O1192   1.283   .     A
C773   O2377   1.283   1_545 S
C774   O2334   1.285   1_545 A
C774   O1180   1.285   .     S
C775   O1190   1.283   .     S
C776   O1128   1.285   .     S
C777   O1129   1.283   .     S
C777   O1133   1.283   .     S
C778   O1130   1.285   .     S
C778   O1134   1.285   .     S
C779   O1131   1.283   .     S
C779   O1135   1.283   .     S
C780   O1132   1.285   .     S
C780   O1137   1.285   .     S
C781   O1166   1.281   .     A
C781   C836    1.467   .     S
C781   O1138   1.284   .     A
C782   O1177   1.386   .     S
C783   O1167   1.282   .     A
C783   O1139   1.283   .     A
C784   O1164   1.281   .     A
C784   O1140   1.284   .     A
C785   O1165   1.282   .     A
C785   O1141   1.283   .     A
C786   O1142   1.284   .     A
C786   O1171   1.281   .     A
C787   O1143   1.283   .     A
C787   O1172   1.282   .     A
C788   O1144   1.284   .     A
C788   O1168   1.281   .     A
C788   C834    1.467   .     S
C789   C835    1.467   .     S
C789   O1145   1.283   .     A
C789   O1170   1.282   .     A
C790   O1146   1.281   .     A
C790   O1157   1.284   .     A
C791   O1148   1.282   .     A
C791   O1159   1.283   .     A
C792   O1155   1.284   .     A
C792   O1149   1.281   .     A
C793   O1178   1.387   .     S
C794   O1150   1.282   .     A
C794   O1156   1.283   .     A
C795   O1162   1.284   .     A
C795   O1151   1.281   .     A
C796   O1163   1.283   .     A
C796   O1152   1.282   .     A
C797   O1160   1.284   .     A
C797   O1153   1.281   .     A
C798   O1161   1.283   .     A
C798   O1154   1.282   .     A
C799   C816    1.401   .     A
C800   C814    1.398   .     A
C801   C813    1.401   .     A
C802   C812    1.398   .     A
C803   C811    1.401   .     A
C804   O1179   1.386   .     S
C805   C810    1.398   .     A
C806   C809    1.401   .     A
C807   C808    1.398   .     A
C813   C836    1.423   .     A
C814   C835    1.422   .     A
C815   O1181   1.387   .     S
C816   C834    1.423   .     A
C817   C833    1.401   .     A
C817   C835    1.421   .     A
C818   C834    1.419   .     A
C818   C832    1.398   .     A
C819   C831    1.401   .     A
C820   C830    1.398   .     A
C820   C836    1.419   .     A
C821   C829    1.401   .     A
C822   C828    1.398   .     A
C823   C827    1.401   .     A
C824   C825    1.398   .     A
C826   O1182   1.386   .     S
H915   C630    1.111   1_556 S
H926   C630    1.110   1_556 S
H993   C633    1.111   1_554 S
H1004  C633    1.108   1_554 S
H1050  C636    1.111   1_556 S
H1051  C636    1.110   1_556 S
H1057  C640    1.111   1_554 S
H1058  C640    1.108   1_554 S
H1065  C643    1.111   1_556 S
H1066  C643    1.110   1_556 S
H1073  C646    1.111   1_554 S
H1074  C646    1.108   1_554 S
H1080  C649    1.111   1_556 S
H1082  C649    1.110   1_556 S
H1088  C653    1.111   1_554 S
H1089  C653    1.108   1_554 S
O1125  Zn1196  1.951   .     S
O1125  Zn1204  1.951   .     S
O1125  Zn1193  1.951   .     S
O1125  Zn2408  1.951   1_545 S
O1126  Zn1195  1.934   .     S
O1126  C1982   1.285   .     A
O1127  Zn1198  1.934   .     S
O1127  C171    1.283   1_655 A
O1128  Zn1197  1.934   .     S
O1129  Zn1207  1.934   .     S
O1130  Zn1206  1.934   .     S
O1131  Zn1201  1.934   .     S
O1132  Zn1193  1.934   .     S
O1133  Zn1203  1.934   .     S
O1134  Zn1202  1.934   .     S
O1135  Zn1205  1.934   .     S
O1136  Zn1205  1.951   .     S
O1136  Zn1201  1.951   .     S
O1136  Zn1199  1.951   .     S
O1136  Zn2403  1.951   1_545 S
O1137  Zn1204  1.934   .     S
O1138  Zn1196  1.947   .     S
O1139  Zn1195  1.947   .     S
O1140  Zn1198  1.947   .     S
O1141  Zn1197  1.947   .     S
O1142  Zn1200  1.947   .     S
O1143  Zn1199  1.947   .     S
O1144  Zn1194  1.947   .     S
O1145  Zn1208  1.947   .     S
O1146  Zn1195  1.947   .     S
O1147  Zn1202  1.951   .     S
O1147  Zn1194  1.951   .     S
O1147  Zn1206  1.951   .     S
O1148  Zn1196  1.947   .     S
O1149  Zn1208  1.947   .     S
O1150  Zn1194  1.947   .     S
O1151  Zn1199  1.947   .     S
O1152  Zn1200  1.947   .     S
O1153  Zn1197  1.947   .     S
O1154  Zn1198  1.947   .     S
O1155  Zn599   1.947   1_655 S
O1156  Zn1202  1.947   .     S
O1157  Zn2413  1.947   .     S
O1158  Zn1197  1.951   .     S
O1158  Zn1203  1.951   .     S
O1158  Zn1207  1.951   .     S
O1159  Zn1204  1.947   .     S
O1160  Zn1207  1.947   .     S
O1161  Zn602   1.947   1_655 S
O1162  Zn1201  1.947   .     S
O1163  Zn2401  1.947   .     S
O1164  Zn598   1.947   1_655 S
O1165  Zn1203  1.947   .     S
O1166  Zn1193  1.947   .     S
O1167  Zn2409  1.947   .     S
O1168  Zn1206  1.947   .     S
O1169  Zn1200  1.934   .     S
O1169  C1981   1.283   .     S
O1170  Zn603   1.947   1_655 S
O1171  Zn2412  1.947   .     S
O1172  Zn1205  1.947   .     S
O1180  Zn1199  1.934   .     S
O1190  Zn1194  1.934   .     S
O1191  C172    1.285   1_655 A
O1191  Zn1208  1.934   .     S
O1192  Zn1196  1.934   .     S
Zn1193 O2371   1.947   1_545 S
Zn1195 O2344   1.951   .     S
Zn1198 O543    1.951   1_655 S
Zn1200 O2333   1.951   .     S
Zn1201 O2375   1.947   1_545 S
Zn1204 O2379   1.947   1_545 S
Zn1205 O2365   1.947   1_545 S
Zn1208 O554    1.951   1_655 S
C1209  C1287   1.390   .     A
C1209  O1777   1.386   .     S
C1210  C1360   1.390   .     A
C1210  O1787   1.387   .     S
C1210  C1373   1.420   .     S
C1211  C1423   1.421   .     A
C1211  C1416   1.422   .     A
C1211  C1387   1.467   .     S
C1212  C1426   1.419   .     A
C1212  C1388   1.467   .     S
C1212  C1415   1.423   .     A
C1213  C1425   1.421   .     A
C1213  C1414   1.422   .     A
C1213  C1389   1.467   .     S
C1214  C1413   1.423   .     A
C1214  C1390   1.467   .     S
C1214  C1428   1.419   .     A
C1215  C1391   1.467   .     S
C1215  C1412   1.422   .     A
C1215  C1427   1.421   .     A
C1216  C1401   1.467   .     S
C1216  C1431   1.423   .     A
C1216  C1411   1.419   .     A
C1217  C1410   1.421   .     A
C1217  C1402   1.467   .     S
C1217  C1429   1.422   .     A
C1218  C1409   1.419   .     A
C1218  C1394   1.467   .     S
C1218  C1433   1.423   .     A
C1219  C1432   1.422   .     A
C1219  C1407   1.421   .     A
C1219  C1395   1.466   .     S
C1220  C1435   1.423   .     A
C1220  C1406   1.419   .     A
C1220  C1396   1.467   .     S
C1221  C166    1.418   1_565 A
C1221  C1361   1.390   .     A
C1221  O1788   1.386   .     S
C1222  C1405   1.421   .     A
C1222  C1398   1.467   .     S
C1222  C1434   1.422   .     A
C1223  C1399   1.467   .     S
C1223  C1404   1.419   .     A
C1223  C1437   1.423   .     A
C1224  C1436   1.422   .     A
C1224  C1403   1.421   .     A
C1224  C1400   1.467   .     S
C1225  C1384   1.458   .     S
C1225  C1287   1.397   .     S
C1226  C1383   1.452   .     S
C1226  C1298   1.395   .     S
C1227  C1354   1.397   .     A
C1227  C1382   1.458   .     S
C1227  C1913   1.397   1_455 S
C1228  C1925   1.395   1_455 A
C1228  C1381   1.452   .     S
C1228  C1358   1.395   .     S
C1229  C1380   1.458   .     S
C1229  C1963   1.397   1_455 A
C1229  C1363   1.397   .     S
C1230  C1969   1.395   1_455 A
C1230  C1379   1.452   .     S
C1230  C1360   1.395   .     S
C1231  C1378   1.458   .     S
C1231  C1366   1.397   .     S
C1232  C1362   1.390   .     A
C1232  O1789   1.387   .     S
C1232  C1376   1.420   .     A
C1233  C1362   1.395   .     A
C1233  C1377   1.452   .     S
C1234  O1777   1.414   .     S
C1234  C1235   1.534   .     S
C1234  H1519   1.111   1_554 S
C1234  H1530   1.110   1_554 S
C1235  H1553   1.111   .     S
C1235  H1541   1.111   .     S
C1235  C1236   1.526   .     S
C1236  H1564   1.110   .     S
C1236  H1575   1.110   .     S
C1236  H1586   1.111   .     S
C1237  C1238   1.536   .     S
C1237  O1778   1.415   .     S
C1237  H1597   1.111   1_556 S
C1237  H1608   1.108   1_556 S
C1238  C1239   1.526   .     S
C1238  H1630   1.111   .     S
C1238  H1619   1.112   .     S
C1239  H1653   1.110   .     S
C1239  H1641   1.110   .     S
C1239  H1651   1.110   .     S
C1240  C1241   1.534   .     S
C1240  O1779   1.414   .     S
C1240  H1654   1.111   1_554 S
C1240  H1655   1.110   1_554 S
C1241  C1242   1.526   .     S
C1241  H1657   1.111   .     S
C1241  H1656   1.111   .     S
C1242  H1660   1.111   .     S
C1242  H1658   1.110   .     S
C1242  H1659   1.110   .     S
C1243  O1790   1.386   .     S
C1243  C1363   1.390   .     A
C1243  C1976   1.418   1_455 S
C1244  C1245   1.536   .     S
C1244  O1780   1.415   .     S
C1244  H1661   1.111   1_556 S
C1244  H1662   1.108   1_556 S
C1245  C1246   1.526   .     S
C1245  H1664   1.112   .     S
C1245  H1665   1.111   .     S
C1246  H1667   1.110   .     S
C1246  H1668   1.110   .     S
C1246  H1666   1.110   .     S
C1247  C1248   1.534   .     S
C1247  O1781   1.414   .     S
C1247  H1669   1.111   1_554 S
C1247  H1670   1.110   1_554 S
C1248  H1671   1.111   .     S
C1248  H1672   1.111   .     S
C1248  C1249   1.526   .     S
C1249  H1676   1.111   .     S
C1249  H1673   1.110   .     S
C1249  H1675   1.110   .     S
C1250  O1782   1.415   .     S
C1250  C1251   1.536   .     S
C1250  H1677   1.111   1_556 S
C1250  H1678   1.108   1_556 S
C1251  C1252   1.526   .     S
C1251  H1679   1.112   .     S
C1251  H1680   1.111   .     S
C1252  H1681   1.110   .     S
C1252  H1683   1.110   .     S
C1252  H1682   1.110   .     S
C1253  C1255   1.534   .     S
C1253  O1783   1.414   .     S
C1253  H1684   1.111   1_554 S
C1253  H1686   1.110   1_554 S
C1254  C1977   1.420   .     A
C1254  O1791   1.387   .     S
C1254  C1365   1.390   .     A
C1255  H1688   1.111   .     S
C1255  C1256   1.526   .     S
C1255  H1687   1.111   .     S
C1256  H1689   1.110   .     S
C1256  H1691   1.111   .     S
C1256  H1690   1.110   .     S
C1257  O1785   1.415   .     S
C1257  C1258   1.536   .     S
C1257  H1692   1.111   1_556 S
C1257  H1693   1.108   1_556 S
C1258  H1695   1.111   .     S
C1258  C1259   1.526   .     S
C1258  H1694   1.112   .     S
C1259  H1698   1.110   .     S
C1259  H1699   1.110   .     S
C1259  H1697   1.110   .     S
C1260  H1700   1.111   .     S
C1260  H1701   1.110   .     S
C1260  O1786   1.414   .     S
C1260  C1261   1.534   .     S
C1261  C1262   1.526   .     S
C1261  H1702   1.111   .     S
C1261  H1703   1.111   .     S
C1262  H1705   1.110   .     S
C1262  H1704   1.110   .     S
C1262  H1706   1.111   .     S
C1263  C1264   1.536   .     S
C1263  H1709   1.108   .     S
C1263  O1787   1.415   .     S
C1263  H1708   1.111   .     S
C1264  H1711   1.111   .     S
C1264  C1266   1.526   .     S
C1264  H1710   1.112   .     S
C1265  C1366   1.390   .     A
C1265  O1792   1.386   .     S
C1265  C1374   1.418   .     S
C1266  H1714   1.110   .     S
C1266  H1712   1.110   .     S
C1266  H1713   1.110   .     S
C1267  C1268   1.534   .     S
C1267  H1716   1.110   .     S
C1267  O1788   1.414   .     S
C1267  H1715   1.111   .     S
C1268  H1717   1.111   .     S
C1268  H1719   1.111   .     S
C1268  C1269   1.526   .     S
C1269  H1720   1.110   .     S
C1269  H1722   1.111   .     S
C1269  H1721   1.110   .     S
C1270  O1789   1.415   .     S
C1270  H1724   1.108   .     S
C1270  H1723   1.111   .     S
C1270  C1271   1.536   .     S
C1271  H1726   1.111   .     S
C1271  H1725   1.112   .     S
C1271  C1272   1.526   .     S
C1272  H1443   1.110   .     S
C1272  H1727   1.110   .     S
C1272  H1728   1.110   .     S
C1273  H1444   1.111   .     S
C1273  O1790   1.414   .     S
C1273  H1445   1.110   .     S
C1273  C1274   1.534   .     S
C1274  C1275   1.526   .     S
C1274  H1446   1.111   .     S
C1274  H1447   1.111   .     S
C1275  H1448   1.110   .     S
C1275  H1450   1.111   .     S
C1275  H1449   1.110   .     S
C1276  O1793   1.387   .     S
C1276  C1367   1.390   .     A
C1276  C168    1.420   1_565 S
C1277  O1791   1.415   .     S
C1277  H1452   1.108   .     S
C1277  C1278   1.536   .     S
C1277  H1451   1.111   .     S
C1278  H1455   1.111   .     S
C1278  C1279   1.526   .     S
C1278  H1454   1.112   .     S
C1279  H1457   1.110   .     S
C1279  H1456   1.110   .     S
C1279  H1458   1.110   .     S
C1280  C1281   1.534   .     S
C1280  H1460   1.110   .     S
C1280  H1459   1.111   .     S
C1280  O1792   1.414   .     S
C1281  H1462   1.111   .     S
C1281  C1282   1.526   .     S
C1281  H1461   1.111   .     S
C1282  H1466   1.111   .     S
C1282  H1463   1.110   .     S
C1282  H1465   1.110   .     S
C1283  H1467   1.111   .     S
C1283  O1793   1.415   .     S
C1283  C1284   1.536   .     S
C1283  H1468   1.108   .     S
C1284  C1285   1.526   .     S
C1284  H1470   1.111   .     S
C1284  H1469   1.112   .     S
C1285  H1471   1.110   .     S
C1285  H1473   1.110   .     S
C1285  H1472   1.110   .     S
C1286  H1479   1.110   .     S
C1286  C1288   1.531   .     S
C1286  H1478   1.108   .     S
C1286  C1403   1.531   .     S
C1287  H1441   1.084   .     S
C1288  H1474   1.111   .     S
C1288  H1476   1.108   .     S
C1288  H1477   1.111   .     S
C1289  H1484   1.112   .     S
C1289  C1290   1.533   .     S
C1289  H1483   1.113   .     S
C1289  C1404   1.528   .     S
C1290  H1482   1.110   .     S
C1290  H1481   1.106   .     S
C1290  H1480   1.111   .     S
C1291  C1405   1.531   .     S
C1291  C1292   1.531   .     S
C1291  H1490   1.110   .     S
C1291  H1489   1.108   .     S
C1292  H1487   1.108   .     S
C1292  H1485   1.111   .     S
C1292  H1488   1.111   .     S
C1293  C1406   1.528   .     S
C1293  H1494   1.113   .     S
C1293  H1495   1.112   .     S
C1293  C1294   1.533   .     S
C1294  H1492   1.106   .     S
C1294  H1493   1.110   .     S
C1294  H1491   1.111   .     S
C1295  H1500   1.108   .     S
C1295  H1501   1.110   .     S
C1295  C1407   1.531   .     S
C1295  C1296   1.531   .     S
C1296  H1498   1.108   .     S
C1296  H1496   1.111   .     S
C1296  H1499   1.111   .     S
C1297  H1505   1.113   .     S
C1297  C1299   1.533   .     S
C1297  H1506   1.112   .     S
C1297  C1409   1.528   .     S
C1298  H1552   1.084   .     S
C1298  C1320   1.390   .     A
C1299  H1504   1.110   .     S
C1299  H1502   1.111   .     S
C1299  H1503   1.106   .     S
C1300  H1512   1.110   .     S
C1300  C1410   1.531   .     S
C1300  H1511   1.108   .     S
C1300  C1301   1.531   .     S
C1301  H1507   1.111   .     S
C1301  H1510   1.111   .     S
C1301  H1509   1.108   .     S
C1302  C1303   1.533   .     S
C1302  H1516   1.113   .     S
C1302  H1517   1.112   .     S
C1302  C1411   1.528   .     S
C1303  H1515   1.110   .     S
C1303  H1513   1.111   .     S
C1303  H1514   1.106   .     S
C1304  H1523   1.104   .     S
C1304  C1412   1.525   .     S
C1304  H1522   1.106   .     S
C1304  C1305   1.531   .     S
C1305  H1518   1.111   .     S
C1305  H1520   1.109   .     S
C1305  H1521   1.110   .     S
C1306  C1307   1.532   .     S
C1306  H1528   1.110   .     S
C1306  C1413   1.530   .     S
C1306  H1527   1.108   .     S
C1307  H1524   1.111   .     S
C1307  H1525   1.108   .     S
C1307  H1526   1.110   .     S
C1308  H1533   1.106   .     S
C1308  H1534   1.104   .     S
C1308  C1414   1.525   .     S
C1308  C1310   1.531   .     S
C1309  H1652   1.084   .     S
C1309  C1364   1.390   .     A
C1309  C1831   1.397   .     S
C1310  H1531   1.109   .     S
C1310  H1532   1.110   .     S
C1310  H1529   1.111   .     S
C1311  H1539   1.110   .     S
C1311  C1415   1.530   .     S
C1311  C1312   1.532   .     S
C1311  H1538   1.108   .     S
C1312  H1536   1.108   .     S
C1312  H1537   1.110   .     S
C1312  H1535   1.111   .     S
C1313  H1544   1.106   .     S
C1313  H1545   1.104   .     S
C1313  C1416   1.525   .     S
C1313  C1314   1.531   .     S
C1314  H1542   1.109   .     S
C1314  H1540   1.111   .     S
C1314  H1543   1.110   .     S
C1315  C1417   1.530   .     S
C1315  C1316   1.531   .     S
C1315  H1550   1.110   .     S
C1315  H1549   1.108   .     S
C1316  H1547   1.108   .     S
C1316  H1546   1.111   .     S
C1316  H1548   1.110   .     S
C1317  C1418   1.525   .     S
C1317  C1318   1.531   .     S
C1317  H1557   1.104   .     S
C1317  H1556   1.106   .     S
C1318  H1551   1.111   .     S
C1318  H1554   1.109   .     S
C1318  H1555   1.110   .     S
C1319  H1562   1.110   .     S
C1319  H1561   1.108   .     S
C1319  C1420   1.530   .     S
C1319  C1322   1.531   .     S
C1320  O1778   1.387   .     S
C1321  C1832   1.395   .     A
C1321  C1375   1.390   .     A
C1321  H1663   1.084   .     S
C1322  H1560   1.110   .     S
C1322  H1558   1.111   .     S
C1322  H1559   1.108   .     S
C1323  H1567   1.108   .     S
C1323  C1324   1.531   .     S
C1323  C1421   1.531   .     S
C1323  H1568   1.110   .     S
C1324  H1563   1.111   .     S
C1324  H1565   1.108   .     S
C1324  H1566   1.111   .     S
C1325  C1326   1.533   .     S
C1325  H1573   1.112   .     S
C1325  H1572   1.113   .     S
C1325  C1422   1.528   .     S
C1326  H1569   1.111   .     S
C1326  H1570   1.106   .     S
C1326  H1571   1.110   .     S
C1327  H1579   1.110   .     S
C1327  C1328   1.531   .     S
C1327  C1423   1.531   .     S
C1327  H1578   1.108   .     S
C1328  H1577   1.111   .     S
C1328  H1574   1.111   .     S
C1328  H1576   1.108   .     S
C1329  H1584   1.112   .     S
C1329  H1583   1.113   .     S
C1329  C1330   1.533   .     S
C1329  C1424   1.528   .     S
C1330  H1581   1.106   .     S
C1330  H1582   1.110   .     S
C1330  H1580   1.111   .     S
C1331  H1589   1.108   .     S
C1331  C1333   1.531   .     S
C1331  C1425   1.531   .     S
C1331  H1590   1.110   .     S
C1332  H1674   1.084   .     S
C1332  C17     1.397   1_565 A
C1332  C1386   1.391   .     A
C1333  H1588   1.111   .     S
C1333  H1585   1.111   .     S
C1333  H1587   1.108   .     S
C1334  C1335   1.533   .     S
C1334  C1426   1.528   .     S
C1334  H1595   1.112   .     S
C1334  H1594   1.113   .     S
C1335  H1592   1.106   .     S
C1335  H1591   1.111   .     S
C1335  H1593   1.110   .     S
C1336  H1601   1.110   .     S
C1336  C1337   1.531   .     S
C1336  C1427   1.531   .     S
C1336  H1600   1.108   .     S
C1337  H1596   1.111   .     S
C1337  H1598   1.108   .     S
C1337  H1599   1.111   .     S
C1338  C1428   1.528   .     S
C1338  C1339   1.533   .     S
C1338  H1605   1.113   .     S
C1338  H1606   1.112   .     S
C1339  H1604   1.110   .     S
C1339  H1602   1.111   .     S
C1339  H1603   1.106   .     S
C1340  C1429   1.525   .     S
C1340  H1612   1.104   .     S
C1340  H1611   1.106   .     S
C1340  C1341   1.531   .     S
C1341  H1607   1.111   .     S
C1341  H1609   1.109   .     S
C1341  H1610   1.110   .     S
C1342  H1616   1.108   .     S
C1342  C1431   1.530   .     S
C1342  C1344   1.531   .     S
C1342  H1617   1.110   .     S
C1343  C1397   1.390   .     A
C1343  C18     1.395   1_565 A
C1343  H1685   1.084   .     S
C1344  H1615   1.110   .     S
C1344  H1614   1.108   .     S
C1344  H1613   1.111   .     S
C1345  H1623   1.104   .     S
C1345  C1432   1.525   .     S
C1345  H1622   1.106   .     S
C1345  C1346   1.531   .     S
C1346  H1621   1.110   .     S
C1346  H1618   1.111   .     S
C1346  H1620   1.109   .     S
C1347  C1348   1.532   .     S
C1347  H1628   1.110   .     S
C1347  C1433   1.530   .     S
C1347  H1627   1.108   .     S
C1348  H1625   1.108   .     S
C1348  H1626   1.110   .     S
C1348  H1624   1.111   .     S
C1349  C1434   1.525   .     S
C1349  H1633   1.106   .     S
C1349  H1634   1.104   .     S
C1349  C1350   1.531   .     S
C1350  H1632   1.110   .     S
C1350  H1631   1.109   .     S
C1350  H1629   1.111   .     S
C1351  C1352   1.531   .     S
C1351  C1435   1.530   .     S
C1351  H1638   1.108   .     S
C1351  H1639   1.110   .     S
C1352  H1635   1.111   .     S
C1352  H1637   1.110   .     S
C1352  H1636   1.108   .     S
C1353  H1644   1.106   .     S
C1353  C1355   1.531   .     S
C1353  C1436   1.525   .     S
C1353  H1645   1.104   .     S
C1354  C1408   1.390   .     A
C1354  H1696   1.084   .     S
C1355  H1642   1.109   .     S
C1355  H1640   1.111   .     S
C1355  H1643   1.110   .     S
C1356  H1650   1.110   .     S
C1356  C1357   1.532   .     S
C1356  C1437   1.530   .     S
C1356  H1649   1.108   .     S
C1357  H1647   1.108   .     S
C1357  H1646   1.111   .     S
C1357  H1648   1.110   .     S
C1358  C1419   1.390   .     A
C1358  H1707   1.084   .     S
C1359  C1430   1.390   .     A
C1359  C1833   1.397   .     A
C1359  H1718   1.084   .     S
C1360  H1442   1.084   .     S
C1361  C23     1.397   1_565 A
C1361  H1453   1.084   .     S
C1362  H1464   1.084   .     S
C1363  H1475   1.084   .     S
C1364  O1779   1.386   .     S
C1364  C1370   1.418   .     A
C1365  C1834   1.395   .     A
C1365  H1486   1.084   .     S
C1366  H1497   1.084   .     S
C1367  H1508   1.084   .     S
C1367  C25     1.395   1_565 S
C1368  C1386   1.418   .     A
C1368  C1      1.418   1_565 S
C1368  C1369   1.472   1_554 S
C1369  C1397   1.420   .     A
C1369  C1368   1.472   1_556 S
C1369  C112    1.420   1_565 S
C1370  C1371   1.472   1_554 S
C1370  C2012   1.418   .     S
C1371  C1375   1.420   .     A
C1371  C1370   1.472   1_556 S
C1371  C2023   1.420   .     S
C1372  C1977   1.472   .     S
C1372  C1430   1.418   .     A
C1372  C1847   1.418   .     S
C1373  C1858   1.420   1_455 A
C1373  C1976   1.472   1_455 S
C1374  C1376   1.472   .     S
C1375  O1780   1.387   .     S
C1377  O1796   1.283   .     A
C1378  O1784   1.285   .     S
C1379  O2335   1.283   1_455 A
C1379  O1794   1.283   .     S
C1380  O2399   1.285   1_455 A
C1380  O1732   1.285   .     S
C1381  O1733   1.283   .     S
C1381  O1737   1.283   .     S
C1382  O1734   1.285   .     S
C1382  O1738   1.285   .     S
C1383  O1735   1.283   .     S
C1383  O1739   1.283   .     S
C1384  O1736   1.285   .     S
C1384  O1741   1.285   .     S
C1385  O1770   1.281   .     A
C1385  C1440   1.467   .     S
C1385  O1742   1.284   .     A
C1386  O1781   1.386   .     S
C1387  O1771   1.282   .     A
C1387  O1743   1.283   .     A
C1388  O1768   1.281   .     A
C1388  O1744   1.284   .     A
C1389  O1769   1.282   .     A
C1389  O1745   1.283   .     A
C1390  O1746   1.284   .     A
C1390  O1775   1.281   .     A
C1391  O1747   1.283   .     A
C1391  O1776   1.282   .     A
C1392  O1748   1.284   .     A
C1392  O1772   1.281   .     A
C1392  C1438   1.467   .     S
C1393  C1439   1.467   .     S
C1393  O1749   1.283   .     A
C1393  O1774   1.282   .     A
C1394  O1750   1.281   .     A
C1394  O1761   1.284   .     A
C1395  O1752   1.282   .     A
C1395  O1763   1.283   .     A
C1396  O1759   1.284   .     A
C1396  O1753   1.281   .     A
C1397  O1782   1.387   .     S
C1398  O1754   1.282   .     A
C1398  O1760   1.283   .     A
C1399  O1766   1.284   .     A
C1399  O1755   1.281   .     A
C1400  O1767   1.283   .     A
C1400  O1756   1.282   .     A
C1401  O1764   1.284   .     A
C1401  O1757   1.281   .     A
C1402  O1765   1.283   .     A
C1402  O1758   1.282   .     A
C1403  C1420   1.401   .     A
C1404  C1418   1.398   .     A
C1405  C1417   1.401   .     A
C1406  C1416   1.398   .     A
C1407  C1415   1.401   .     A
C1408  O1783   1.386   .     S
C1408  C1974   1.418   1_455 S
C1409  C1414   1.398   .     A
C1410  C1413   1.401   .     A
C1411  C1412   1.398   .     A
C1417  C1440   1.423   .     A
C1418  C1439   1.422   .     A
C1419  O1785   1.387   .     S
C1419  C1975   1.420   1_455 S
C1420  C1438   1.423   .     A
C1421  C1437   1.401   .     A
C1421  C1439   1.421   .     A
C1422  C1438   1.419   .     A
C1422  C1436   1.398   .     A
C1423  C1435   1.401   .     A
C1424  C1434   1.398   .     A
C1424  C1440   1.419   .     A
C1425  C1433   1.401   .     A
C1426  C1432   1.398   .     A
C1427  C1431   1.401   .     A
C1428  C1429   1.398   .     A
C1430  O1786   1.386   .     S
H1519  C1234   1.111   1_556 S
H1530  C1234   1.110   1_556 S
H1597  C1237   1.111   1_554 S
H1608  C1237   1.108   1_554 S
H1654  C1240   1.111   1_556 S
H1655  C1240   1.110   1_556 S
H1661  C1244   1.111   1_554 S
H1662  C1244   1.108   1_554 S
H1669  C1247   1.111   1_556 S
H1670  C1247   1.110   1_556 S
H1677  C1250   1.111   1_554 S
H1678  C1250   1.108   1_554 S
H1684  C1253   1.111   1_556 S
H1686  C1253   1.110   1_556 S
H1692  C1257   1.111   1_554 S
H1693  C1257   1.108   1_554 S
O1729  Zn1800  1.951   .     S
O1729  Zn1808  1.951   .     S
O1729  Zn1797  1.951   .     S
O1730  Zn1799  1.934   .     S
O1730  C170    1.285   1_565 A
O1731  Zn1802  1.934   .     S
O1731  C1983   1.283   .     A
O1732  Zn1801  1.934   .     S
O1733  Zn1811  1.934   .     S
O1734  Zn1810  1.934   .     S
O1735  Zn1805  1.934   .     S
O1736  Zn1797  1.934   .     S
O1737  Zn1807  1.934   .     S
O1738  Zn1806  1.934   .     S
O1739  Zn1809  1.934   .     S
O1740  Zn1809  1.951   .     S
O1740  Zn1805  1.951   .     S
O1740  Zn1803  1.951   .     S
O1741  Zn1808  1.934   .     S
O1742  Zn1800  1.947   .     S
O1743  Zn1799  1.947   .     S
O1744  Zn1802  1.947   .     S
O1745  Zn1801  1.947   .     S
O1746  Zn1804  1.947   .     S
O1747  Zn1803  1.947   .     S
O1748  Zn1798  1.947   .     S
O1749  Zn1812  1.947   .     S
O1750  Zn1799  1.947   .     S
O1751  Zn2406  1.951   1_455 S
O1751  Zn1806  1.951   .     S
O1751  Zn1798  1.951   .     S
O1751  Zn1810  1.951   .     S
O1752  Zn1800  1.947   .     S
O1753  Zn1812  1.947   .     S
O1754  Zn1798  1.947   .     S
O1755  Zn1803  1.947   .     S
O1756  Zn1804  1.947   .     S
O1757  Zn1801  1.947   .     S
O1758  Zn1802  1.947   .     S
O1759  Zn2411  1.947   .     S
O1760  Zn1806  1.947   .     S
O1761  Zn601   1.947   1_565 S
O1762  Zn2416  1.951   1_455 S
O1762  Zn1801  1.951   .     S
O1762  Zn1807  1.951   .     S
O1762  Zn1811  1.951   .     S
O1763  Zn1808  1.947   .     S
O1764  Zn1811  1.947   .     S
O1765  Zn2414  1.947   .     S
O1766  Zn1805  1.947   .     S
O1767  Zn589   1.947   1_565 S
O1768  Zn2410  1.947   .     S
O1769  Zn1807  1.947   .     S
O1770  Zn1797  1.947   .     S
O1771  Zn597   1.947   1_565 S
O1772  Zn1810  1.947   .     S
O1773  Zn1804  1.934   .     S
O1773  C169    1.283   1_565 S
O1774  Zn2415  1.947   .     S
O1775  Zn600   1.947   1_565 S
O1776  Zn1809  1.947   .     S
O1784  Zn1803  1.934   .     S
O1794  Zn1798  1.934   .     S
O1795  C1984   1.285   .     A
O1795  Zn1812  1.934   .     S
O1796  Zn1800  1.934   .     S
Zn1799 O532    1.951   1_565 S
Zn1802 O2355   1.951   .     S
Zn1804 O521    1.951   1_565 S
Zn1806 O2372   1.947   1_455 S
Zn1807 O2363   1.947   1_455 S
Zn1810 O2369   1.947   1_455 S
Zn1811 O2378   1.947   1_455 S
Zn1812 O2366   1.951   .     S
C1813  C1891   1.390   .     A
C1813  O2381   1.386   .     S
C1814  C1964   1.390   .     A
C1814  O2391   1.387   .     S
C1814  C1977   1.420   .     S
C1815  C2027   1.421   .     A
C1815  C2020   1.422   .     A
C1815  C1991   1.467   .     S
C1816  C2030   1.419   .     A
C1816  C1992   1.467   .     S
C1816  C2019   1.423   .     A
C1817  C2029   1.421   .     A
C1817  C2018   1.422   .     A
C1817  C1993   1.467   .     S
C1818  C2017   1.423   .     A
C1818  C1994   1.467   .     S
C1818  C2032   1.419   .     A
C1819  C1995   1.467   .     S
C1819  C2016   1.422   .     A
C1819  C2031   1.421   .     A
C1820  C2005   1.467   .     S
C1820  C2035   1.423   .     A
C1820  C2015   1.419   .     A
C1821  C2014   1.421   .     A
C1821  C2006   1.467   .     S
C1821  C2033   1.422   .     A
C1822  C2013   1.419   .     A
C1822  C1998   1.467   .     S
C1822  C2037   1.423   .     A
C1823  C2036   1.422   .     A
C1823  C2011   1.421   .     A
C1823  C1999   1.466   .     S
C1824  C2039   1.423   .     A
C1824  C2010   1.419   .     A
C1824  C2000   1.467   .     S
C1825  C770    1.418   1_565 A
C1825  C1965   1.390   .     A
C1825  O2392   1.386   .     S
C1826  C2009   1.421   .     A
C1826  C2002   1.467   .     S
C1826  C2038   1.422   .     A
C1827  C2003   1.467   .     S
C1827  C2008   1.419   .     A
C1827  C2041   1.423   .     A
C1828  C2040   1.422   .     A
C1828  C2007   1.421   .     A
C1828  C2004   1.467   .     S
C1829  C1988   1.458   .     S
C1829  C1891   1.397   .     S
C1830  C1987   1.452   .     S
C1830  C1902   1.395   .     S
C1831  C1958   1.397   .     A
C1831  C1986   1.458   .     S
C1832  C1985   1.452   .     S
C1832  C1962   1.395   .     S
C1833  C1984   1.458   .     S
C1833  C1967   1.397   .     S
C1834  C1983   1.452   .     S
C1834  C1964   1.395   .     S
C1835  C1982   1.458   .     S
C1835  C1970   1.397   .     S
C1836  C1966   1.390   .     A
C1836  O2393   1.387   .     S
C1836  C1980   1.420   .     A
C1837  C1966   1.395   .     A
C1837  C1981   1.452   .     S
C1838  O2381   1.414   .     S
C1838  C1839   1.534   .     S
C1838  H2123   1.111   1_554 S
C1838  H2134   1.110   1_554 S
C1839  H2157   1.111   .     S
C1839  H2145   1.111   .     S
C1839  C1840   1.526   .     S
C1840  H2168   1.110   .     S
C1840  H2179   1.110   .     S
C1840  H2190   1.111   .     S
C1841  C1842   1.536   .     S
C1841  O2382   1.415   .     S
C1841  H2201   1.111   1_556 S
C1841  H2212   1.108   1_556 S
C1842  C1843   1.526   .     S
C1842  H2234   1.111   .     S
C1842  H2223   1.112   .     S
C1843  H2257   1.110   .     S
C1843  H2245   1.110   .     S
C1843  H2255   1.110   .     S
C1844  C1845   1.534   .     S
C1844  O2383   1.414   .     S
C1844  H2258   1.111   1_554 S
C1844  H2259   1.110   1_554 S
C1845  C1846   1.526   .     S
C1845  H2261   1.111   .     S
C1845  H2260   1.111   .     S
C1846  H2264   1.111   .     S
C1846  H2262   1.110   .     S
C1846  H2263   1.110   .     S
C1847  O2394   1.386   .     S
C1847  C1967   1.390   .     A
C1848  C1849   1.536   .     S
C1848  O2384   1.415   .     S
C1848  H2265   1.111   1_556 S
C1848  H2266   1.108   1_556 S
C1849  C1850   1.526   .     S
C1849  H2268   1.112   .     S
C1849  H2269   1.111   .     S
C1850  H2271   1.110   .     S
C1850  H2272   1.110   .     S
C1850  H2270   1.110   .     S
C1851  C1852   1.534   .     S
C1851  O2385   1.414   .     S
C1851  H2273   1.111   1_554 S
C1851  H2274   1.110   1_554 S
C1852  H2275   1.111   .     S
C1852  H2276   1.111   .     S
C1852  C1853   1.526   .     S
C1853  H2280   1.111   .     S
C1853  H2277   1.110   .     S
C1853  H2279   1.110   .     S
C1854  O2386   1.415   .     S
C1854  C1855   1.536   .     S
C1854  H2281   1.111   1_556 S
C1854  H2282   1.108   1_556 S
C1855  C1856   1.526   .     S
C1855  H2283   1.112   .     S
C1855  H2284   1.111   .     S
C1856  H2285   1.110   .     S
C1856  H2287   1.110   .     S
C1856  H2286   1.110   .     S
C1857  C1859   1.534   .     S
C1857  O2387   1.414   .     S
C1857  H2288   1.111   1_554 S
C1857  H2290   1.110   1_554 S
C1858  C1373   1.420   1_655 A
C1858  O2395   1.387   .     S
C1858  C1969   1.390   .     A
C1859  H2292   1.111   .     S
C1859  C1860   1.526   .     S
C1859  H2291   1.111   .     S
C1860  H2293   1.110   .     S
C1860  H2295   1.111   .     S
C1860  H2294   1.110   .     S
C1861  O2389   1.415   .     S
C1861  C1862   1.536   .     S
C1861  H2296   1.111   1_556 S
C1861  H2297   1.108   1_556 S
C1862  H2299   1.111   .     S
C1862  C1863   1.526   .     S
C1862  H2298   1.112   .     S
C1863  H2302   1.110   .     S
C1863  H2303   1.110   .     S
C1863  H2301   1.110   .     S
C1864  H2304   1.111   .     S
C1864  H2305   1.110   .     S
C1864  O2390   1.414   .     S
C1864  C1865   1.534   .     S
C1865  C1866   1.526   .     S
C1865  H2306   1.111   .     S
C1865  H2307   1.111   .     S
C1866  H2309   1.110   .     S
C1866  H2308   1.110   .     S
C1866  H2310   1.111   .     S
C1867  C1868   1.536   .     S
C1867  H2313   1.108   .     S
C1867  O2391   1.415   .     S
C1867  H2312   1.111   .     S
C1868  H2315   1.111   .     S
C1868  C1870   1.526   .     S
C1868  H2314   1.112   .     S
C1869  C1970   1.390   .     A
C1869  O2396   1.386   .     S
C1869  C1978   1.418   .     S
C1870  H2318   1.110   .     S
C1870  H2316   1.110   .     S
C1870  H2317   1.110   .     S
C1871  C1872   1.534   .     S
C1871  H2320   1.110   .     S
C1871  O2392   1.414   .     S
C1871  H2319   1.111   .     S
C1872  H2321   1.111   .     S
C1872  H2323   1.111   .     S
C1872  C1873   1.526   .     S
C1873  H2324   1.110   .     S
C1873  H2326   1.111   .     S
C1873  H2325   1.110   .     S
C1874  O2393   1.415   .     S
C1874  H2328   1.108   .     S
C1874  H2327   1.111   .     S
C1874  C1875   1.536   .     S
C1875  H2330   1.111   .     S
C1875  H2329   1.112   .     S
C1875  C1876   1.526   .     S
C1876  H2047   1.110   .     S
C1876  H2331   1.110   .     S
C1876  H2332   1.110   .     S
C1877  H2048   1.111   .     S
C1877  O2394   1.414   .     S
C1877  H2049   1.110   .     S
C1877  C1878   1.534   .     S
C1878  C1879   1.526   .     S
C1878  H2050   1.111   .     S
C1878  H2051   1.111   .     S
C1879  H2052   1.110   .     S
C1879  H2054   1.111   .     S
C1879  H2053   1.110   .     S
C1880  O2397   1.387   .     S
C1880  C1971   1.390   .     A
C1880  C772    1.420   1_565 S
C1881  O2395   1.415   .     S
C1881  H2056   1.108   .     S
C1881  C1882   1.536   .     S
C1881  H2055   1.111   .     S
C1882  H2059   1.111   .     S
C1882  C1883   1.526   .     S
C1882  H2058   1.112   .     S
C1883  H2061   1.110   .     S
C1883  H2060   1.110   .     S
C1883  H2062   1.110   .     S
C1884  C1885   1.534   .     S
C1884  H2064   1.110   .     S
C1884  H2063   1.111   .     S
C1884  O2396   1.414   .     S
C1885  H2066   1.111   .     S
C1885  C1886   1.526   .     S
C1885  H2065   1.111   .     S
C1886  H2070   1.111   .     S
C1886  H2067   1.110   .     S
C1886  H2069   1.110   .     S
C1887  H2071   1.111   .     S
C1887  O2397   1.415   .     S
C1887  C1888   1.536   .     S
C1887  H2072   1.108   .     S
C1888  C1889   1.526   .     S
C1888  H2074   1.111   .     S
C1888  H2073   1.112   .     S
C1889  H2075   1.110   .     S
C1889  H2077   1.110   .     S
C1889  H2076   1.110   .     S
C1890  H2083   1.110   .     S
C1890  C1892   1.531   .     S
C1890  H2082   1.108   .     S
C1890  C2007   1.531   .     S
C1891  H2045   1.084   .     S
C1892  H2078   1.111   .     S
C1892  H2080   1.108   .     S
C1892  H2081   1.111   .     S
C1893  H2088   1.112   .     S
C1893  C1894   1.533   .     S
C1893  H2087   1.113   .     S
C1893  C2008   1.528   .     S
C1894  H2086   1.110   .     S
C1894  H2085   1.106   .     S
C1894  H2084   1.111   .     S
C1895  C2009   1.531   .     S
C1895  C1896   1.531   .     S
C1895  H2094   1.110   .     S
C1895  H2093   1.108   .     S
C1896  H2091   1.108   .     S
C1896  H2089   1.111   .     S
C1896  H2092   1.111   .     S
C1897  C2010   1.528   .     S
C1897  H2098   1.113   .     S
C1897  H2099   1.112   .     S
C1897  C1898   1.533   .     S
C1898  H2096   1.106   .     S
C1898  H2097   1.110   .     S
C1898  H2095   1.111   .     S
C1899  H2104   1.108   .     S
C1899  H2105   1.110   .     S
C1899  C2011   1.531   .     S
C1899  C1900   1.531   .     S
C1900  H2102   1.108   .     S
C1900  H2100   1.111   .     S
C1900  H2103   1.111   .     S
C1901  H2109   1.113   .     S
C1901  C1903   1.533   .     S
C1901  H2110   1.112   .     S
C1901  C2013   1.528   .     S
C1902  H2156   1.084   .     S
C1902  C1924   1.390   .     A
C1903  H2108   1.110   .     S
C1903  H2106   1.111   .     S
C1903  H2107   1.106   .     S
C1904  H2116   1.110   .     S
C1904  C2014   1.531   .     S
C1904  H2115   1.108   .     S
C1904  C1905   1.531   .     S
C1905  H2111   1.111   .     S
C1905  H2114   1.111   .     S
C1905  H2113   1.108   .     S
C1906  C1907   1.533   .     S
C1906  H2120   1.113   .     S
C1906  H2121   1.112   .     S
C1906  C2015   1.528   .     S
C1907  H2119   1.110   .     S
C1907  H2117   1.111   .     S
C1907  H2118   1.106   .     S
C1908  H2127   1.104   .     S
C1908  C2016   1.525   .     S
C1908  H2126   1.106   .     S
C1908  C1909   1.531   .     S
C1909  H2122   1.111   .     S
C1909  H2124   1.109   .     S
C1909  H2125   1.110   .     S
C1910  C1911   1.532   .     S
C1910  H2132   1.110   .     S
C1910  C2017   1.530   .     S
C1910  H2131   1.108   .     S
C1911  H2128   1.111   .     S
C1911  H2129   1.108   .     S
C1911  H2130   1.110   .     S
C1912  H2137   1.106   .     S
C1912  H2138   1.104   .     S
C1912  C2018   1.525   .     S
C1912  C1914   1.531   .     S
C1913  H2256   1.084   .     S
C1913  C1968   1.390   .     A
C1913  C1227   1.397   1_655 S
C1914  H2135   1.109   .     S
C1914  H2136   1.110   .     S
C1914  H2133   1.111   .     S
C1915  H2143   1.110   .     S
C1915  C2019   1.530   .     S
C1915  C1916   1.532   .     S
C1915  H2142   1.108   .     S
C1916  H2140   1.108   .     S
C1916  H2141   1.110   .     S
C1916  H2139   1.111   .     S
C1917  H2148   1.106   .     S
C1917  H2149   1.104   .     S
C1917  C2020   1.525   .     S
C1917  C1918   1.531   .     S
C1918  H2146   1.109   .     S
C1918  H2144   1.111   .     S
C1918  H2147   1.110   .     S
C1919  C2021   1.530   .     S
C1919  C1920   1.531   .     S
C1919  H2154   1.110   .     S
C1919  H2153   1.108   .     S
C1920  H2151   1.108   .     S
C1920  H2150   1.111   .     S
C1920  H2152   1.110   .     S
C1921  C2022   1.525   .     S
C1921  C1922   1.531   .     S
C1921  H2161   1.104   .     S
C1921  H2160   1.106   .     S
C1922  H2155   1.111   .     S
C1922  H2158   1.109   .     S
C1922  H2159   1.110   .     S
C1923  H2166   1.110   .     S
C1923  H2165   1.108   .     S
C1923  C2024   1.530   .     S
C1923  C1926   1.531   .     S
C1924  O2382   1.387   .     S
C1925  C1228   1.395   1_655 A
C1925  C1979   1.390   .     A
C1925  H2267   1.084   .     S
C1926  H2164   1.110   .     S
C1926  H2162   1.111   .     S
C1926  H2163   1.108   .     S
C1927  H2171   1.108   .     S
C1927  C1928   1.531   .     S
C1927  C2025   1.531   .     S
C1927  H2172   1.110   .     S
C1928  H2167   1.111   .     S
C1928  H2169   1.108   .     S
C1928  H2170   1.111   .     S
C1929  C1930   1.533   .     S
C1929  H2177   1.112   .     S
C1929  H2176   1.113   .     S
C1929  C2026   1.528   .     S
C1930  H2173   1.111   .     S
C1930  H2174   1.106   .     S
C1930  H2175   1.110   .     S
C1931  H2183   1.110   .     S
C1931  C1932   1.531   .     S
C1931  C2027   1.531   .     S
C1931  H2182   1.108   .     S
C1932  H2181   1.111   .     S
C1932  H2178   1.111   .     S
C1932  H2180   1.108   .     S
C1933  H2188   1.112   .     S
C1933  H2187   1.113   .     S
C1933  C1934   1.533   .     S
C1933  C2028   1.528   .     S
C1934  H2185   1.106   .     S
C1934  H2186   1.110   .     S
C1934  H2184   1.111   .     S
C1935  H2193   1.108   .     S
C1935  C1937   1.531   .     S
C1935  C2029   1.531   .     S
C1935  H2194   1.110   .     S
C1936  H2278   1.084   .     S
C1936  C621    1.397   1_565 A
C1936  C1990   1.391   .     A
C1937  H2192   1.111   .     S
C1937  H2189   1.111   .     S
C1937  H2191   1.108   .     S
C1938  C1939   1.533   .     S
C1938  C2030   1.528   .     S
C1938  H2199   1.112   .     S
C1938  H2198   1.113   .     S
C1939  H2196   1.106   .     S
C1939  H2195   1.111   .     S
C1939  H2197   1.110   .     S
C1940  H2205   1.110   .     S
C1940  C1941   1.531   .     S
C1940  C2031   1.531   .     S
C1940  H2204   1.108   .     S
C1941  H2200   1.111   .     S
C1941  H2202   1.108   .     S
C1941  H2203   1.111   .     S
C1942  C2032   1.528   .     S
C1942  C1943   1.533   .     S
C1942  H2209   1.113   .     S
C1942  H2210   1.112   .     S
C1943  H2208   1.110   .     S
C1943  H2206   1.111   .     S
C1943  H2207   1.106   .     S
C1944  C2033   1.525   .     S
C1944  H2216   1.104   .     S
C1944  H2215   1.106   .     S
C1944  C1945   1.531   .     S
C1945  H2211   1.111   .     S
C1945  H2213   1.109   .     S
C1945  H2214   1.110   .     S
C1946  H2220   1.108   .     S
C1946  C2035   1.530   .     S
C1946  C1948   1.531   .     S
C1946  H2221   1.110   .     S
C1947  C2001   1.390   .     A
C1947  C622    1.395   1_565 A
C1947  H2289   1.084   .     S
C1948  H2219   1.110   .     S
C1948  H2218   1.108   .     S
C1948  H2217   1.111   .     S
C1949  H2227   1.104   .     S
C1949  C2036   1.525   .     S
C1949  H2226   1.106   .     S
C1949  C1950   1.531   .     S
C1950  H2225   1.110   .     S
C1950  H2222   1.111   .     S
C1950  H2224   1.109   .     S
C1951  C1952   1.532   .     S
C1951  H2232   1.110   .     S
C1951  C2037   1.530   .     S
C1951  H2231   1.108   .     S
C1952  H2229   1.108   .     S
C1952  H2230   1.110   .     S
C1952  H2228   1.111   .     S
C1953  C2038   1.525   .     S
C1953  H2237   1.106   .     S
C1953  H2238   1.104   .     S
C1953  C1954   1.531   .     S
C1954  H2236   1.110   .     S
C1954  H2235   1.109   .     S
C1954  H2233   1.111   .     S
C1955  C1956   1.531   .     S
C1955  C2039   1.530   .     S
C1955  H2242   1.108   .     S
C1955  H2243   1.110   .     S
C1956  H2239   1.111   .     S
C1956  H2241   1.110   .     S
C1956  H2240   1.108   .     S
C1957  H2248   1.106   .     S
C1957  C1959   1.531   .     S
C1957  C2040   1.525   .     S
C1957  H2249   1.104   .     S
C1958  C2012   1.390   .     A
C1958  H2300   1.084   .     S
C1959  H2246   1.109   .     S
C1959  H2244   1.111   .     S
C1959  H2247   1.110   .     S
C1960  H2254   1.110   .     S
C1960  C1961   1.532   .     S
C1960  C2041   1.530   .     S
C1960  H2253   1.108   .     S
C1961  H2251   1.108   .     S
C1961  H2250   1.111   .     S
C1961  H2252   1.110   .     S
C1962  C2023   1.390   .     A
C1962  H2311   1.084   .     S
C1963  C2034   1.390   .     A
C1963  C1229   1.397   1_655 A
C1963  H2322   1.084   .     S
C1964  H2046   1.084   .     S
C1965  C627    1.397   1_565 A
C1965  H2057   1.084   .     S
C1966  H2068   1.084   .     S
C1967  H2079   1.084   .     S
C1968  O2383   1.386   .     S
C1968  C1974   1.418   .     A
C1969  C1230   1.395   1_655 A
C1969  H2090   1.084   .     S
C1970  H2101   1.084   .     S
C1971  H2112   1.084   .     S
C1971  C629    1.395   1_565 S
C1972  C1990   1.418   .     A
C1972  C605    1.418   1_565 S
C1972  C1973   1.472   1_554 S
C1973  C2001   1.420   .     A
C1973  C1972   1.472   1_556 S
C1973  C716    1.420   1_565 S
C1974  C1975   1.472   1_554 S
C1974  C1408   1.418   1_655 S
C1975  C1979   1.420   .     A
C1975  C1974   1.472   1_556 S
C1975  C1419   1.420   1_655 S
C1976  C1373   1.472   1_655 S
C1976  C2034   1.418   .     A
C1976  C1243   1.418   1_655 S
C1978  C1980   1.472   .     S
C1979  O2384   1.387   .     S
C1981  O2400   1.283   .     A
C1982  O2388   1.285   .     S
C1983  O2398   1.283   .     S
C1984  O2336   1.285   .     S
C1985  O2337   1.283   .     S
C1985  O2341   1.283   .     S
C1986  O2338   1.285   .     S
C1986  O2342   1.285   .     S
C1987  O2339   1.283   .     S
C1987  O2343   1.283   .     S
C1988  O2340   1.285   .     S
C1988  O2345   1.285   .     S
C1989  O2374   1.281   .     A
C1989  C2044   1.467   .     S
C1989  O2346   1.284   .     A
C1990  O2385   1.386   .     S
C1991  O2375   1.282   .     A
C1991  O2347   1.283   .     A
C1992  O2372   1.281   .     A
C1992  O2348   1.284   .     A
C1993  O2373   1.282   .     A
C1993  O2349   1.283   .     A
C1994  O2350   1.284   .     A
C1994  O2379   1.281   .     A
C1995  O2351   1.283   .     A
C1995  O2380   1.282   .     A
C1996  O2352   1.284   .     A
C1996  O2376   1.281   .     A
C1996  C2042   1.467   .     S
C1997  C2043   1.467   .     S
C1997  O2353   1.283   .     A
C1997  O2378   1.282   .     A
C1998  O2354   1.281   .     A
C1998  O2365   1.284   .     A
C1999  O2356   1.282   .     A
C1999  O2367   1.283   .     A
C2000  O2363   1.284   .     A
C2000  O2357   1.281   .     A
C2001  O2386   1.387   .     S
C2002  O2358   1.282   .     A
C2002  O2364   1.283   .     A
C2003  O2370   1.284   .     A
C2003  O2359   1.281   .     A
C2004  O2371   1.283   .     A
C2004  O2360   1.282   .     A
C2005  O2368   1.284   .     A
C2005  O2361   1.281   .     A
C2006  O2369   1.283   .     A
C2006  O2362   1.282   .     A
C2007  C2024   1.401   .     A
C2008  C2022   1.398   .     A
C2009  C2021   1.401   .     A
C2010  C2020   1.398   .     A
C2011  C2019   1.401   .     A
C2012  O2387   1.386   .     S
C2013  C2018   1.398   .     A
C2014  C2017   1.401   .     A
C2015  C2016   1.398   .     A
C2021  C2044   1.423   .     A
C2022  C2043   1.422   .     A
C2023  O2389   1.387   .     S
C2024  C2042   1.423   .     A
C2025  C2041   1.401   .     A
C2025  C2043   1.421   .     A
C2026  C2042   1.419   .     A
C2026  C2040   1.398   .     A
C2027  C2039   1.401   .     A
C2028  C2038   1.398   .     A
C2028  C2044   1.419   .     A
C2029  C2037   1.401   .     A
C2030  C2036   1.398   .     A
C2031  C2035   1.401   .     A
C2032  C2033   1.398   .     A
C2034  O2390   1.386   .     S
H2123  C1838   1.111   1_556 S
H2134  C1838   1.110   1_556 S
H2201  C1841   1.111   1_554 S
H2212  C1841   1.108   1_554 S
H2258  C1844   1.111   1_556 S
H2259  C1844   1.110   1_556 S
H2265  C1848   1.111   1_554 S
H2266  C1848   1.108   1_554 S
H2273  C1851   1.111   1_556 S
H2274  C1851   1.110   1_556 S
H2281  C1854   1.111   1_554 S
H2282  C1854   1.108   1_554 S
H2288  C1857   1.111   1_556 S
H2290  C1857   1.110   1_556 S
H2296  C1861   1.111   1_554 S
H2297  C1861   1.108   1_554 S
O2333  Zn2404  1.951   .     S
O2333  Zn2412  1.951   .     S
O2333  Zn2401  1.951   .     S
O2334  Zn2403  1.934   .     S
O2334  C774    1.285   1_565 A
O2335  Zn2406  1.934   .     S
O2335  C1379   1.283   1_655 A
O2336  Zn2405  1.934   .     S
O2337  Zn2415  1.934   .     S
O2338  Zn2414  1.934   .     S
O2339  Zn2409  1.934   .     S
O2340  Zn2401  1.934   .     S
O2341  Zn2411  1.934   .     S
O2342  Zn2410  1.934   .     S
O2343  Zn2413  1.934   .     S
O2344  Zn2413  1.951   .     S
O2344  Zn2409  1.951   .     S
O2344  Zn2407  1.951   .     S
O2345  Zn2412  1.934   .     S
O2346  Zn2404  1.947   .     S
O2347  Zn2403  1.947   .     S
O2348  Zn2406  1.947   .     S
O2349  Zn2405  1.947   .     S
O2350  Zn2408  1.947   .     S
O2351  Zn2407  1.947   .     S
O2352  Zn2402  1.947   .     S
O2353  Zn2416  1.947   .     S
O2354  Zn2403  1.947   .     S
O2355  Zn2410  1.951   .     S
O2355  Zn2402  1.951   .     S
O2355  Zn2414  1.951   .     S
O2356  Zn2404  1.947   .     S
O2357  Zn2416  1.947   .     S
O2358  Zn2402  1.947   .     S
O2359  Zn2407  1.947   .     S
O2360  Zn2408  1.947   .     S
O2361  Zn2405  1.947   .     S
O2362  Zn2406  1.947   .     S
O2363  Zn1807  1.947   1_655 S
O2364  Zn2410  1.947   .     S
O2365  Zn1205  1.947   1_565 S
O2366  Zn2405  1.951   .     S
O2366  Zn2411  1.951   .     S
O2366  Zn2415  1.951   .     S
O2367  Zn2412  1.947   .     S
O2368  Zn2415  1.947   .     S
O2369  Zn1810  1.947   1_655 S
O2370  Zn2409  1.947   .     S
O2371  Zn1193  1.947   1_565 S
O2372  Zn1806  1.947   1_655 S
O2373  Zn2411  1.947   .     S
O2374  Zn2401  1.947   .     S
O2375  Zn1201  1.947   1_565 S
O2376  Zn2414  1.947   .     S
O2377  Zn2408  1.934   .     S
O2377  C773    1.283   1_565 S
O2378  Zn1811  1.947   1_655 S
O2379  Zn1204  1.947   1_565 S
O2380  Zn2413  1.947   .     S
O2388  Zn2407  1.934   .     S
O2398  Zn2402  1.934   .     S
O2399  C1380   1.285   1_655 A
O2399  Zn2416  1.934   .     S
O2400  Zn2404  1.934   .     S
Zn2403 O1136   1.951   1_565 S
Zn2406 O1751   1.951   1_655 S
Zn2408 O1125   1.951   1_565 S
Zn2416 O1762   1.951   1_655 S
