data_str_m2_o1_o18_pcu_sym.54
_audit_creation_date              2020-01-03
_audit_creation_method            'Materials Studio'
_symmetry_space_group_name_H-M    'P1'
_symmetry_Int_Tables_number       1
_symmetry_cell_setting            triclinic
loop_
_symmetry_equiv_pos_as_xyz
  x,y,z
_cell_length_a                    28.8183
_cell_length_b                    32.4248
_cell_length_c                    31.1375
_cell_angle_alpha                 89.4751
_cell_angle_beta                  72.8815
_cell_angle_gamma                 90.2957
loop_
_atom_site_label
_atom_site_type_symbol
_atom_site_fract_x
_atom_site_fract_y
_atom_site_fract_z
_atom_site_U_iso_or_equiv
_atom_site_adp_type
_atom_site_occupancy
C1     C     0.33323   0.08749   0.25002   0.00000  Uiso   1.00
C2     C     0.04215   0.02186   0.22668   0.00000  Uiso   1.00
C3     C     0.00017   0.29049   0.24978   0.00000  Uiso   1.00
C4     C     0.33322   0.04285   0.24984   0.00000  Uiso   1.00
C5     C     0.18298   0.13909   0.27575   0.00000  Uiso   1.00
C6     C     0.15030   0.19431   0.22443   0.00000  Uiso   1.00
C7     C     0.13355   0.13919   0.27591   0.00000  Uiso   1.00
C8     C     0.19961   0.19437   0.22444   0.00000  Uiso   1.00
C9     C     0.30544   0.16632   0.33627   0.00000  Uiso   1.00
C10    C     0.02784   0.16897   0.16408   0.00000  Uiso   1.00
C11    C     0.28946   0.16904   0.38592   0.00000  Uiso   1.00
C12    C     0.00015   0.24585   0.24982   0.00000  Uiso   1.00
C13    C     0.04410   0.18128   0.11637   0.00000  Uiso   1.00
C14    C     0.30892   0.18021   0.45586   0.00000  Uiso   1.00
C15    C     0.03908   0.23033   0.05850   0.00000  Uiso   1.00
C16    C     0.32390   0.17331   0.40977   0.00000  Uiso   1.00
C17    C     0.01945   0.21280   0.10110   0.00000  Uiso   1.00
C18    C     0.23943   0.16989   0.40985   0.00000  Uiso   1.00
C19    C     0.08991   0.16901   0.08902   0.00000  Uiso   1.00
C20    C     0.22476   0.18226   0.45513   0.00000  Uiso   1.00
C21    C     0.11070   0.18912   0.04727   0.00000  Uiso   1.00
C22    C     0.25960   0.18521   0.47868   0.00000  Uiso   1.00
C23    C     0.19516   0.19216   0.04866   0.00000  Uiso   1.00
C24    C     0.08249   0.21565   0.02940   0.00000  Uiso   1.00
C25    C     0.17634   0.19307   0.47793   0.00000  Uiso   1.00
C26    C     0.16049   0.18728   0.02492   0.00000  Uiso   1.00
C27    C     0.27115   0.26178   0.02493   0.00000  Uiso   1.00
C28    C     0.08372   0.29438   0.46309   0.00000  Uiso   1.00
C29    C     0.10702   0.10087   0.08680   0.00000  Uiso   1.00
C30    C     0.18920   0.11824   0.40215   0.00000  Uiso   1.00
C31    C     0.16400   0.24270   0.10074   0.00000  Uiso   1.00
C32    C     0.19626   0.26380   0.41080   0.00000  Uiso   1.00
C33    C     0.14644   0.21630   0.45762   0.00000  Uiso   1.00
C34    C     0.24422   0.19620   0.02423   0.00000  Uiso   1.00
C35    C     0.10050   0.22959   0.48434   0.00000  Uiso   1.00
C36    C     0.29109   0.02086   0.27289   0.00000  Uiso   1.00
C37    C     0.04227   0.31247   0.22664   0.00000  Uiso   1.00
C38    C     0.29118   0.31149   0.27276   0.00000  Uiso   1.00
Cu39   Cu    0.04689   0.16667   0.25000   0.00000  Uiso   1.00
Cu40   Cu    0.28645   0.16666   0.25000   0.00000  Uiso   1.00
F41    F     0.31204   0.22953   0.12892   0.00000  Uiso   1.00
F42    F     0.13569   0.22241   0.19898   0.00000  Uiso   1.00
F43    F     0.10208   0.11164   0.30236   0.00000  Uiso   1.00
F44    F     0.23065   0.22259   0.19885   0.00000  Uiso   1.00
F45    F     0.03894   0.17064   0.38879   0.00000  Uiso   1.00
F46    F     0.00938   0.18155   0.47831   0.00000  Uiso   1.00
F47    F     0.02044   0.26620   0.04911   0.00000  Uiso   1.00
F48    F     0.25035   0.04059   0.29671   0.00000  Uiso   1.00
F49    F     0.08298   0.29271   0.20282   0.00000  Uiso   1.00
F50    F     0.25035   0.29070   0.29604   0.00000  Uiso   1.00
F51    F     0.08286   0.04266   0.20309   0.00000  Uiso   1.00
F52    F     0.19749   0.11113   0.30151   0.00000  Uiso   1.00
H53    H     0.23797   0.26894   0.01479   0.00000  Uiso   1.00
H54    H     0.17412   0.11482   0.43928   0.00000  Uiso   1.00
H55    H     0.21925   0.09603   0.38906   0.00000  Uiso   1.00
H56    H     0.15951   0.11026   0.38767   0.00000  Uiso   1.00
H57    H     0.16347   0.25992   0.06973   0.00000  Uiso   1.00
H58    H     0.18675   0.26040   0.11742   0.00000  Uiso   1.00
H59    H     0.12622   0.24207   0.12334   0.00000  Uiso   1.00
H60    H     0.23405   0.25246   0.40252   0.00000  Uiso   1.00
H61    H     0.18824   0.28272   0.44184   0.00000  Uiso   1.00
H62    H     0.19434   0.28463   0.38295   0.00000  Uiso   1.00
H63    H     0.30317   0.26760   0.49530   0.00000  Uiso   1.00
H64    H     0.27163   0.28403   0.05164   0.00000  Uiso   1.00
H65    H     0.10844   0.30234   0.42939   0.00000  Uiso   1.00
H66    H     0.10014   0.30410   0.48974   0.00000  Uiso   1.00
H67    H     0.05031   0.31277   0.46755   0.00000  Uiso   1.00
H68    H     0.12072   0.10093   0.04942   0.00000  Uiso   1.00
H69    H     0.06776   0.09241   0.09834   0.00000  Uiso   1.00
H70    H     0.12699   0.07674   0.09943   0.00000  Uiso   1.00
N71    N     0.11736   0.16668   0.24999   0.00000  Uiso   1.00
N72    N     0.21597   0.16666   0.25001   0.00000  Uiso   1.00
O73    O     0.03958   0.10655   0.25000   0.00000  Uiso   1.00
O74    O     0.07097   0.25212   0.46502   0.00000  Uiso   1.00
O75    O     0.11558   0.13915   0.10427   0.00000  Uiso   1.00
O76    O     0.20491   0.15897   0.38901   0.00000  Uiso   1.00
O77    O     0.18148   0.20173   0.09400   0.00000  Uiso   1.00
O78    O     0.16323   0.23065   0.41364   0.00000  Uiso   1.00
O79    O     0.29375   0.22678   0.25000   0.00000  Uiso   1.00
O80    O     0.29372   0.10654   0.25000   0.00000  Uiso   1.00
O81    O     0.03961   0.22679   0.25000   0.00000  Uiso   1.00
O82    O     0.01852   0.16668   0.31492   0.00000  Uiso   1.00
O83    O     0.31481   0.16666   0.18508   0.00000  Uiso   1.00
O84    O     0.27267   0.16667   0.31492   0.00000  Uiso   1.00
O85    O     0.06067   0.16667   0.18508   0.00000  Uiso   1.00
O86    O     0.27317   0.22099   0.04152   0.00000  Uiso   1.00
C87    C     0.66657   0.08749   0.25002   0.00000  Uiso   1.00
C88    C     0.37548   0.02186   0.22668   0.00000  Uiso   1.00
C89    C     0.33350   0.29049   0.24978   0.00000  Uiso   1.00
C90    C     0.66655   0.04285   0.24984   0.00000  Uiso   1.00
C91    C     0.51631   0.13909   0.27575   0.00000  Uiso   1.00
C92    C     0.48363   0.19431   0.22443   0.00000  Uiso   1.00
C93    C     0.46689   0.13919   0.27591   0.00000  Uiso   1.00
C94    C     0.53294   0.19437   0.22444   0.00000  Uiso   1.00
C95    C     0.63878   0.16632   0.33627   0.00000  Uiso   1.00
C96    C     0.36117   0.16897   0.16408   0.00000  Uiso   1.00
C97    C     0.62279   0.16904   0.38592   0.00000  Uiso   1.00
C98    C     0.33348   0.24585   0.24982   0.00000  Uiso   1.00
C99    C     0.37743   0.18128   0.11637   0.00000  Uiso   1.00
C100   C     0.64226   0.18021   0.45586   0.00000  Uiso   1.00
C101   C     0.37241   0.23033   0.05850   0.00000  Uiso   1.00
C102   C     0.65723   0.17331   0.40977   0.00000  Uiso   1.00
C103   C     0.35278   0.21280   0.10110   0.00000  Uiso   1.00
C104   C     0.57276   0.16989   0.40985   0.00000  Uiso   1.00
C105   C     0.42324   0.16901   0.08902   0.00000  Uiso   1.00
C106   C     0.55810   0.18226   0.45513   0.00000  Uiso   1.00
C107   C     0.44404   0.18912   0.04727   0.00000  Uiso   1.00
C108   C     0.59293   0.18521   0.47868   0.00000  Uiso   1.00
C109   C     0.52849   0.19216   0.04866   0.00000  Uiso   1.00
C110   C     0.41583   0.21565   0.02940   0.00000  Uiso   1.00
C111   C     0.50968   0.19307   0.47793   0.00000  Uiso   1.00
C112   C     0.49383   0.18728   0.02492   0.00000  Uiso   1.00
C113   C     0.60448   0.26178   0.02493   0.00000  Uiso   1.00
C114   C     0.41705   0.29438   0.46309   0.00000  Uiso   1.00
C115   C     0.44035   0.10087   0.08680   0.00000  Uiso   1.00
C116   C     0.52253   0.11824   0.40215   0.00000  Uiso   1.00
C117   C     0.49733   0.24270   0.10074   0.00000  Uiso   1.00
C118   C     0.52959   0.26380   0.41080   0.00000  Uiso   1.00
C119   C     0.47978   0.21630   0.45762   0.00000  Uiso   1.00
C120   C     0.57756   0.19620   0.02423   0.00000  Uiso   1.00
C121   C     0.43383   0.22959   0.48434   0.00000  Uiso   1.00
C122   C     0.62442   0.02086   0.27289   0.00000  Uiso   1.00
C123   C     0.37561   0.31247   0.22664   0.00000  Uiso   1.00
C124   C     0.62452   0.31149   0.27276   0.00000  Uiso   1.00
Cu125  Cu    0.38022   0.16667   0.25000   0.00000  Uiso   1.00
Cu126  Cu    0.61978   0.16666   0.25000   0.00000  Uiso   1.00
F127   F     0.64538   0.22953   0.12892   0.00000  Uiso   1.00
F128   F     0.46902   0.22241   0.19898   0.00000  Uiso   1.00
F129   F     0.43542   0.11164   0.30236   0.00000  Uiso   1.00
F130   F     0.56399   0.22259   0.19885   0.00000  Uiso   1.00
F131   F     0.37228   0.17064   0.38879   0.00000  Uiso   1.00
F132   F     0.34272   0.18155   0.47831   0.00000  Uiso   1.00
F133   F     0.35377   0.26620   0.04911   0.00000  Uiso   1.00
F134   F     0.58368   0.04059   0.29671   0.00000  Uiso   1.00
F135   F     0.41632   0.29271   0.20282   0.00000  Uiso   1.00
F136   F     0.58369   0.29070   0.29604   0.00000  Uiso   1.00
F137   F     0.41619   0.04266   0.20309   0.00000  Uiso   1.00
F138   F     0.53082   0.11113   0.30151   0.00000  Uiso   1.00
H139   H     0.57130   0.26894   0.01479   0.00000  Uiso   1.00
H140   H     0.50745   0.11482   0.43928   0.00000  Uiso   1.00
H141   H     0.55258   0.09603   0.38906   0.00000  Uiso   1.00
H142   H     0.49284   0.11026   0.38767   0.00000  Uiso   1.00
H143   H     0.49680   0.25992   0.06973   0.00000  Uiso   1.00
H144   H     0.52008   0.26040   0.11742   0.00000  Uiso   1.00
H145   H     0.45955   0.24207   0.12334   0.00000  Uiso   1.00
H146   H     0.56738   0.25246   0.40252   0.00000  Uiso   1.00
H147   H     0.52157   0.28272   0.44184   0.00000  Uiso   1.00
H148   H     0.52767   0.28463   0.38295   0.00000  Uiso   1.00
H149   H     0.63650   0.26760   0.49530   0.00000  Uiso   1.00
H150   H     0.60496   0.28403   0.05164   0.00000  Uiso   1.00
H151   H     0.44177   0.30234   0.42939   0.00000  Uiso   1.00
H152   H     0.43348   0.30410   0.48974   0.00000  Uiso   1.00
H153   H     0.38364   0.31277   0.46755   0.00000  Uiso   1.00
H154   H     0.45406   0.10093   0.04942   0.00000  Uiso   1.00
H155   H     0.40109   0.09241   0.09834   0.00000  Uiso   1.00
H156   H     0.46032   0.07674   0.09943   0.00000  Uiso   1.00
N157   N     0.45069   0.16668   0.24999   0.00000  Uiso   1.00
N158   N     0.54931   0.16666   0.25001   0.00000  Uiso   1.00
O159   O     0.37291   0.10655   0.25000   0.00000  Uiso   1.00
O160   O     0.40430   0.25212   0.46502   0.00000  Uiso   1.00
O161   O     0.44891   0.13915   0.10427   0.00000  Uiso   1.00
O162   O     0.53824   0.15897   0.38901   0.00000  Uiso   1.00
O163   O     0.51481   0.20173   0.09400   0.00000  Uiso   1.00
O164   O     0.49657   0.23065   0.41364   0.00000  Uiso   1.00
O165   O     0.62709   0.22678   0.25000   0.00000  Uiso   1.00
O166   O     0.62706   0.10654   0.25000   0.00000  Uiso   1.00
O167   O     0.37294   0.22679   0.25000   0.00000  Uiso   1.00
O168   O     0.35186   0.16668   0.31492   0.00000  Uiso   1.00
O169   O     0.64814   0.16666   0.18508   0.00000  Uiso   1.00
O170   O     0.60600   0.16667   0.31492   0.00000  Uiso   1.00
O171   O     0.39400   0.16667   0.18508   0.00000  Uiso   1.00
O172   O     0.60650   0.22099   0.04152   0.00000  Uiso   1.00
C173   C     0.99990   0.08749   0.25002   0.00000  Uiso   1.00
C174   C     0.70882   0.02186   0.22668   0.00000  Uiso   1.00
C175   C     0.66684   0.29049   0.24978   0.00000  Uiso   1.00
C176   C     0.99988   0.04285   0.24984   0.00000  Uiso   1.00
C177   C     0.84964   0.13909   0.27575   0.00000  Uiso   1.00
C178   C     0.81696   0.19431   0.22443   0.00000  Uiso   1.00
C179   C     0.80022   0.13919   0.27591   0.00000  Uiso   1.00
C180   C     0.86628   0.19437   0.22444   0.00000  Uiso   1.00
C181   C     0.97211   0.16632   0.33627   0.00000  Uiso   1.00
C182   C     0.69450   0.16897   0.16408   0.00000  Uiso   1.00
C183   C     0.95613   0.16904   0.38592   0.00000  Uiso   1.00
C184   C     0.66681   0.24585   0.24982   0.00000  Uiso   1.00
C185   C     0.71076   0.18128   0.11637   0.00000  Uiso   1.00
C186   C     0.97559   0.18021   0.45586   0.00000  Uiso   1.00
C187   C     0.70575   0.23033   0.05850   0.00000  Uiso   1.00
C188   C     0.99056   0.17331   0.40977   0.00000  Uiso   1.00
C189   C     0.68612   0.21280   0.10110   0.00000  Uiso   1.00
C190   C     0.90610   0.16989   0.40985   0.00000  Uiso   1.00
C191   C     0.75658   0.16901   0.08902   0.00000  Uiso   1.00
C192   C     0.89143   0.18226   0.45513   0.00000  Uiso   1.00
C193   C     0.77737   0.18912   0.04727   0.00000  Uiso   1.00
C194   C     0.92626   0.18521   0.47868   0.00000  Uiso   1.00
C195   C     0.86183   0.19216   0.04866   0.00000  Uiso   1.00
C196   C     0.74916   0.21565   0.02940   0.00000  Uiso   1.00
C197   C     0.84301   0.19307   0.47793   0.00000  Uiso   1.00
C198   C     0.82716   0.18728   0.02492   0.00000  Uiso   1.00
C199   C     0.93782   0.26178   0.02493   0.00000  Uiso   1.00
C200   C     0.75038   0.29438   0.46309   0.00000  Uiso   1.00
C201   C     0.77369   0.10087   0.08680   0.00000  Uiso   1.00
C202   C     0.85586   0.11824   0.40215   0.00000  Uiso   1.00
C203   C     0.83067   0.24270   0.10074   0.00000  Uiso   1.00
C204   C     0.86293   0.26380   0.41080   0.00000  Uiso   1.00
C205   C     0.81311   0.21630   0.45762   0.00000  Uiso   1.00
C206   C     0.91089   0.19620   0.02423   0.00000  Uiso   1.00
C207   C     0.76717   0.22959   0.48434   0.00000  Uiso   1.00
C208   C     0.95775   0.02086   0.27289   0.00000  Uiso   1.00
C209   C     0.70894   0.31247   0.22664   0.00000  Uiso   1.00
C210   C     0.95785   0.31149   0.27276   0.00000  Uiso   1.00
Cu211  Cu    0.71355   0.16667   0.25000   0.00000  Uiso   1.00
Cu212  Cu    0.95311   0.16666   0.25000   0.00000  Uiso   1.00
F213   F     0.97871   0.22953   0.12892   0.00000  Uiso   1.00
F214   F     0.80236   0.22241   0.19898   0.00000  Uiso   1.00
F215   F     0.76875   0.11164   0.30236   0.00000  Uiso   1.00
F216   F     0.89732   0.22259   0.19885   0.00000  Uiso   1.00
F217   F     0.70561   0.17064   0.38879   0.00000  Uiso   1.00
F218   F     0.67605   0.18155   0.47831   0.00000  Uiso   1.00
F219   F     0.68711   0.26620   0.04911   0.00000  Uiso   1.00
F220   F     0.91702   0.04059   0.29671   0.00000  Uiso   1.00
F221   F     0.74965   0.29271   0.20282   0.00000  Uiso   1.00
F222   F     0.91702   0.29070   0.29604   0.00000  Uiso   1.00
F223   F     0.74953   0.04266   0.20309   0.00000  Uiso   1.00
F224   F     0.86416   0.11113   0.30151   0.00000  Uiso   1.00
H225   H     0.90464   0.26894   0.01479   0.00000  Uiso   1.00
H226   H     0.84078   0.11482   0.43928   0.00000  Uiso   1.00
H227   H     0.88592   0.09603   0.38906   0.00000  Uiso   1.00
H228   H     0.82618   0.11026   0.38767   0.00000  Uiso   1.00
H229   H     0.83014   0.25992   0.06973   0.00000  Uiso   1.00
H230   H     0.85341   0.26040   0.11742   0.00000  Uiso   1.00
H231   H     0.79288   0.24207   0.12334   0.00000  Uiso   1.00
H232   H     0.90071   0.25246   0.40252   0.00000  Uiso   1.00
H233   H     0.85491   0.28272   0.44184   0.00000  Uiso   1.00
H234   H     0.86101   0.28463   0.38295   0.00000  Uiso   1.00
H235   H     0.96983   0.26760   0.49530   0.00000  Uiso   1.00
H236   H     0.93830   0.28403   0.05164   0.00000  Uiso   1.00
H237   H     0.77511   0.30234   0.42939   0.00000  Uiso   1.00
H238   H     0.76681   0.30410   0.48974   0.00000  Uiso   1.00
H239   H     0.71697   0.31277   0.46755   0.00000  Uiso   1.00
H240   H     0.78739   0.10093   0.04942   0.00000  Uiso   1.00
H241   H     0.73443   0.09241   0.09834   0.00000  Uiso   1.00
H242   H     0.79365   0.07674   0.09943   0.00000  Uiso   1.00
N243   N     0.78403   0.16668   0.24999   0.00000  Uiso   1.00
N244   N     0.88264   0.16666   0.25001   0.00000  Uiso   1.00
O245   O     0.70625   0.10655   0.25000   0.00000  Uiso   1.00
O246   O     0.73763   0.25212   0.46502   0.00000  Uiso   1.00
O247   O     0.78225   0.13915   0.10427   0.00000  Uiso   1.00
O248   O     0.87157   0.15897   0.38901   0.00000  Uiso   1.00
O249   O     0.84815   0.20173   0.09400   0.00000  Uiso   1.00
O250   O     0.82990   0.23065   0.41364   0.00000  Uiso   1.00
O251   O     0.96042   0.22678   0.25000   0.00000  Uiso   1.00
O252   O     0.96039   0.10654   0.25000   0.00000  Uiso   1.00
O253   O     0.70628   0.22679   0.25000   0.00000  Uiso   1.00
O254   O     0.68519   0.16668   0.31492   0.00000  Uiso   1.00
O255   O     0.98148   0.16666   0.18508   0.00000  Uiso   1.00
O256   O     0.93933   0.16667   0.31492   0.00000  Uiso   1.00
O257   O     0.72733   0.16667   0.18508   0.00000  Uiso   1.00
O258   O     0.93984   0.22099   0.04152   0.00000  Uiso   1.00
C259   C     0.33323   0.42082   0.25002   0.00000  Uiso   1.00
C260   C     0.04215   0.35519   0.22668   0.00000  Uiso   1.00
C261   C     0.00017   0.62382   0.24978   0.00000  Uiso   1.00
C262   C     0.33322   0.37618   0.24984   0.00000  Uiso   1.00
C263   C     0.18298   0.47242   0.27575   0.00000  Uiso   1.00
C264   C     0.15030   0.52765   0.22443   0.00000  Uiso   1.00
C265   C     0.13355   0.47252   0.27591   0.00000  Uiso   1.00
C266   C     0.19961   0.52770   0.22444   0.00000  Uiso   1.00
C267   C     0.30544   0.49965   0.33627   0.00000  Uiso   1.00
C268   C     0.02784   0.50230   0.16408   0.00000  Uiso   1.00
C269   C     0.28946   0.50237   0.38592   0.00000  Uiso   1.00
C270   C     0.00015   0.57918   0.24982   0.00000  Uiso   1.00
C271   C     0.04410   0.51462   0.11637   0.00000  Uiso   1.00
C272   C     0.30892   0.51355   0.45586   0.00000  Uiso   1.00
C273   C     0.03908   0.56366   0.05850   0.00000  Uiso   1.00
C274   C     0.32390   0.50665   0.40977   0.00000  Uiso   1.00
C275   C     0.01945   0.54613   0.10110   0.00000  Uiso   1.00
C276   C     0.23943   0.50322   0.40985   0.00000  Uiso   1.00
C277   C     0.08991   0.50234   0.08902   0.00000  Uiso   1.00
C278   C     0.22476   0.51559   0.45513   0.00000  Uiso   1.00
C279   C     0.11070   0.52246   0.04727   0.00000  Uiso   1.00
C280   C     0.25960   0.51854   0.47868   0.00000  Uiso   1.00
C281   C     0.19516   0.52549   0.04866   0.00000  Uiso   1.00
C282   C     0.08249   0.54899   0.02940   0.00000  Uiso   1.00
C283   C     0.17634   0.52640   0.47793   0.00000  Uiso   1.00
C284   C     0.16049   0.52061   0.02492   0.00000  Uiso   1.00
C285   C     0.27115   0.59511   0.02493   0.00000  Uiso   1.00
C286   C     0.08372   0.62772   0.46309   0.00000  Uiso   1.00
C287   C     0.10702   0.43421   0.08680   0.00000  Uiso   1.00
C288   C     0.18920   0.45158   0.40215   0.00000  Uiso   1.00
C289   C     0.16400   0.57603   0.10074   0.00000  Uiso   1.00
C290   C     0.19626   0.59714   0.41080   0.00000  Uiso   1.00
C291   C     0.14644   0.54963   0.45762   0.00000  Uiso   1.00
C292   C     0.24422   0.52954   0.02423   0.00000  Uiso   1.00
C293   C     0.10050   0.56292   0.48434   0.00000  Uiso   1.00
C294   C     0.29109   0.35419   0.27289   0.00000  Uiso   1.00
C295   C     0.04227   0.64580   0.22664   0.00000  Uiso   1.00
C296   C     0.29118   0.64482   0.27276   0.00000  Uiso   1.00
Cu297  Cu    0.04689   0.50001   0.25000   0.00000  Uiso   1.00
Cu298  Cu    0.28645   0.49999   0.25000   0.00000  Uiso   1.00
F299   F     0.31204   0.56286   0.12892   0.00000  Uiso   1.00
F300   F     0.13569   0.55574   0.19898   0.00000  Uiso   1.00
F301   F     0.10208   0.44498   0.30236   0.00000  Uiso   1.00
F302   F     0.23065   0.55592   0.19885   0.00000  Uiso   1.00
F303   F     0.03894   0.50397   0.38879   0.00000  Uiso   1.00
F304   F     0.00938   0.51488   0.47831   0.00000  Uiso   1.00
F305   F     0.02044   0.59953   0.04911   0.00000  Uiso   1.00
F306   F     0.25035   0.37393   0.29671   0.00000  Uiso   1.00
F307   F     0.08298   0.62605   0.20282   0.00000  Uiso   1.00
F308   F     0.25035   0.62403   0.29604   0.00000  Uiso   1.00
F309   F     0.08286   0.37599   0.20309   0.00000  Uiso   1.00
F310   F     0.19749   0.44447   0.30151   0.00000  Uiso   1.00
H311   H     0.23797   0.60228   0.01479   0.00000  Uiso   1.00
H312   H     0.17412   0.44815   0.43928   0.00000  Uiso   1.00
H313   H     0.21925   0.42937   0.38906   0.00000  Uiso   1.00
H314   H     0.15951   0.44359   0.38767   0.00000  Uiso   1.00
H315   H     0.16347   0.59325   0.06973   0.00000  Uiso   1.00
H316   H     0.18675   0.59373   0.11742   0.00000  Uiso   1.00
H317   H     0.12622   0.57540   0.12334   0.00000  Uiso   1.00
H318   H     0.23405   0.58579   0.40252   0.00000  Uiso   1.00
H319   H     0.18824   0.61605   0.44184   0.00000  Uiso   1.00
H320   H     0.19434   0.61797   0.38295   0.00000  Uiso   1.00
H321   H     0.30317   0.60094   0.49530   0.00000  Uiso   1.00
H322   H     0.27163   0.61736   0.05164   0.00000  Uiso   1.00
H323   H     0.10844   0.63567   0.42939   0.00000  Uiso   1.00
H324   H     0.10014   0.63743   0.48974   0.00000  Uiso   1.00
H325   H     0.05031   0.64610   0.46755   0.00000  Uiso   1.00
H326   H     0.12072   0.43426   0.04942   0.00000  Uiso   1.00
H327   H     0.06776   0.42574   0.09834   0.00000  Uiso   1.00
H328   H     0.12699   0.41007   0.09943   0.00000  Uiso   1.00
N329   N     0.11736   0.50001   0.24999   0.00000  Uiso   1.00
N330   N     0.21597   0.49999   0.25001   0.00000  Uiso   1.00
O331   O     0.03958   0.43989   0.25000   0.00000  Uiso   1.00
O332   O     0.07097   0.58546   0.46502   0.00000  Uiso   1.00
O333   O     0.11558   0.47248   0.10427   0.00000  Uiso   1.00
O334   O     0.20491   0.49231   0.38901   0.00000  Uiso   1.00
O335   O     0.18148   0.53506   0.09400   0.00000  Uiso   1.00
O336   O     0.16323   0.56398   0.41364   0.00000  Uiso   1.00
O337   O     0.29375   0.56011   0.25000   0.00000  Uiso   1.00
O338   O     0.29372   0.43988   0.25000   0.00000  Uiso   1.00
O339   O     0.03961   0.56012   0.25000   0.00000  Uiso   1.00
O340   O     0.01852   0.50001   0.31492   0.00000  Uiso   1.00
O341   O     0.31481   0.49999   0.18508   0.00000  Uiso   1.00
O342   O     0.27267   0.50000   0.31492   0.00000  Uiso   1.00
O343   O     0.06067   0.50000   0.18508   0.00000  Uiso   1.00
O344   O     0.27317   0.55433   0.04152   0.00000  Uiso   1.00
C345   C     0.66657   0.42082   0.25002   0.00000  Uiso   1.00
C346   C     0.37548   0.35519   0.22668   0.00000  Uiso   1.00
C347   C     0.33350   0.62382   0.24978   0.00000  Uiso   1.00
C348   C     0.66655   0.37618   0.24984   0.00000  Uiso   1.00
C349   C     0.51631   0.47242   0.27575   0.00000  Uiso   1.00
C350   C     0.48363   0.52765   0.22443   0.00000  Uiso   1.00
C351   C     0.46689   0.47252   0.27591   0.00000  Uiso   1.00
C352   C     0.53294   0.52770   0.22444   0.00000  Uiso   1.00
C353   C     0.63878   0.49965   0.33627   0.00000  Uiso   1.00
C354   C     0.36117   0.50230   0.16408   0.00000  Uiso   1.00
C355   C     0.62279   0.50237   0.38592   0.00000  Uiso   1.00
C356   C     0.33348   0.57918   0.24982   0.00000  Uiso   1.00
C357   C     0.37743   0.51462   0.11637   0.00000  Uiso   1.00
C358   C     0.64226   0.51355   0.45586   0.00000  Uiso   1.00
C359   C     0.37241   0.56366   0.05850   0.00000  Uiso   1.00
C360   C     0.65723   0.50665   0.40977   0.00000  Uiso   1.00
C361   C     0.35278   0.54613   0.10110   0.00000  Uiso   1.00
C362   C     0.57276   0.50322   0.40985   0.00000  Uiso   1.00
C363   C     0.42324   0.50234   0.08902   0.00000  Uiso   1.00
C364   C     0.55810   0.51559   0.45513   0.00000  Uiso   1.00
C365   C     0.44404   0.52246   0.04727   0.00000  Uiso   1.00
C366   C     0.59293   0.51854   0.47868   0.00000  Uiso   1.00
C367   C     0.52849   0.52549   0.04866   0.00000  Uiso   1.00
C368   C     0.41583   0.54899   0.02940   0.00000  Uiso   1.00
C369   C     0.50968   0.52640   0.47793   0.00000  Uiso   1.00
C370   C     0.49383   0.52061   0.02492   0.00000  Uiso   1.00
C371   C     0.60448   0.59511   0.02493   0.00000  Uiso   1.00
C372   C     0.41705   0.62772   0.46309   0.00000  Uiso   1.00
C373   C     0.44035   0.43421   0.08680   0.00000  Uiso   1.00
C374   C     0.52253   0.45158   0.40215   0.00000  Uiso   1.00
C375   C     0.49733   0.57603   0.10074   0.00000  Uiso   1.00
C376   C     0.52959   0.59714   0.41080   0.00000  Uiso   1.00
C377   C     0.47978   0.54963   0.45762   0.00000  Uiso   1.00
C378   C     0.57756   0.52954   0.02423   0.00000  Uiso   1.00
C379   C     0.43383   0.56292   0.48434   0.00000  Uiso   1.00
C380   C     0.62442   0.35419   0.27289   0.00000  Uiso   1.00
C381   C     0.37561   0.64580   0.22664   0.00000  Uiso   1.00
C382   C     0.62452   0.64482   0.27276   0.00000  Uiso   1.00
Cu383  Cu    0.38022   0.50001   0.25000   0.00000  Uiso   1.00
Cu384  Cu    0.61978   0.49999   0.25000   0.00000  Uiso   1.00
F385   F     0.64538   0.56286   0.12892   0.00000  Uiso   1.00
F386   F     0.46902   0.55574   0.19898   0.00000  Uiso   1.00
F387   F     0.43542   0.44498   0.30236   0.00000  Uiso   1.00
F388   F     0.56399   0.55592   0.19885   0.00000  Uiso   1.00
F389   F     0.37228   0.50397   0.38879   0.00000  Uiso   1.00
F390   F     0.34272   0.51488   0.47831   0.00000  Uiso   1.00
F391   F     0.35377   0.59953   0.04911   0.00000  Uiso   1.00
F392   F     0.58368   0.37393   0.29671   0.00000  Uiso   1.00
F393   F     0.41632   0.62605   0.20282   0.00000  Uiso   1.00
F394   F     0.58369   0.62403   0.29604   0.00000  Uiso   1.00
F395   F     0.41619   0.37599   0.20309   0.00000  Uiso   1.00
F396   F     0.53082   0.44447   0.30151   0.00000  Uiso   1.00
H397   H     0.57130   0.60228   0.01479   0.00000  Uiso   1.00
H398   H     0.50745   0.44815   0.43928   0.00000  Uiso   1.00
H399   H     0.55258   0.42937   0.38906   0.00000  Uiso   1.00
H400   H     0.49284   0.44359   0.38767   0.00000  Uiso   1.00
H401   H     0.49680   0.59325   0.06973   0.00000  Uiso   1.00
H402   H     0.52008   0.59373   0.11742   0.00000  Uiso   1.00
H403   H     0.45955   0.57540   0.12334   0.00000  Uiso   1.00
H404   H     0.56738   0.58579   0.40252   0.00000  Uiso   1.00
H405   H     0.52157   0.61605   0.44184   0.00000  Uiso   1.00
H406   H     0.52767   0.61797   0.38295   0.00000  Uiso   1.00
H407   H     0.63650   0.60094   0.49530   0.00000  Uiso   1.00
H408   H     0.60496   0.61736   0.05164   0.00000  Uiso   1.00
H409   H     0.44177   0.63567   0.42939   0.00000  Uiso   1.00
H410   H     0.43348   0.63743   0.48974   0.00000  Uiso   1.00
H411   H     0.38364   0.64610   0.46755   0.00000  Uiso   1.00
H412   H     0.45406   0.43426   0.04942   0.00000  Uiso   1.00
H413   H     0.40109   0.42574   0.09834   0.00000  Uiso   1.00
H414   H     0.46032   0.41007   0.09943   0.00000  Uiso   1.00
N415   N     0.45069   0.50001   0.24999   0.00000  Uiso   1.00
N416   N     0.54931   0.49999   0.25001   0.00000  Uiso   1.00
O417   O     0.37291   0.43989   0.25000   0.00000  Uiso   1.00
O418   O     0.40430   0.58546   0.46502   0.00000  Uiso   1.00
O419   O     0.44891   0.47248   0.10427   0.00000  Uiso   1.00
O420   O     0.53824   0.49231   0.38901   0.00000  Uiso   1.00
O421   O     0.51481   0.53506   0.09400   0.00000  Uiso   1.00
O422   O     0.49657   0.56398   0.41364   0.00000  Uiso   1.00
O423   O     0.62709   0.56011   0.25000   0.00000  Uiso   1.00
O424   O     0.62706   0.43988   0.25000   0.00000  Uiso   1.00
O425   O     0.37294   0.56012   0.25000   0.00000  Uiso   1.00
O426   O     0.35186   0.50001   0.31492   0.00000  Uiso   1.00
O427   O     0.64814   0.49999   0.18508   0.00000  Uiso   1.00
O428   O     0.60600   0.50000   0.31492   0.00000  Uiso   1.00
O429   O     0.39400   0.50000   0.18508   0.00000  Uiso   1.00
O430   O     0.60650   0.55433   0.04152   0.00000  Uiso   1.00
C431   C     0.99990   0.42082   0.25002   0.00000  Uiso   1.00
C432   C     0.70882   0.35519   0.22668   0.00000  Uiso   1.00
C433   C     0.66684   0.62382   0.24978   0.00000  Uiso   1.00
C434   C     0.99988   0.37618   0.24984   0.00000  Uiso   1.00
C435   C     0.84964   0.47242   0.27575   0.00000  Uiso   1.00
C436   C     0.81696   0.52765   0.22443   0.00000  Uiso   1.00
C437   C     0.80022   0.47252   0.27591   0.00000  Uiso   1.00
C438   C     0.86628   0.52770   0.22444   0.00000  Uiso   1.00
C439   C     0.97211   0.49965   0.33627   0.00000  Uiso   1.00
C440   C     0.69450   0.50230   0.16408   0.00000  Uiso   1.00
C441   C     0.95613   0.50237   0.38592   0.00000  Uiso   1.00
C442   C     0.66681   0.57918   0.24982   0.00000  Uiso   1.00
C443   C     0.71076   0.51462   0.11637   0.00000  Uiso   1.00
C444   C     0.97559   0.51355   0.45586   0.00000  Uiso   1.00
C445   C     0.70575   0.56366   0.05850   0.00000  Uiso   1.00
C446   C     0.99056   0.50665   0.40977   0.00000  Uiso   1.00
C447   C     0.68612   0.54613   0.10110   0.00000  Uiso   1.00
C448   C     0.90610   0.50322   0.40985   0.00000  Uiso   1.00
C449   C     0.75658   0.50234   0.08902   0.00000  Uiso   1.00
C450   C     0.89143   0.51559   0.45513   0.00000  Uiso   1.00
C451   C     0.77737   0.52246   0.04727   0.00000  Uiso   1.00
C452   C     0.92626   0.51854   0.47868   0.00000  Uiso   1.00
C453   C     0.86183   0.52549   0.04866   0.00000  Uiso   1.00
C454   C     0.74916   0.54899   0.02940   0.00000  Uiso   1.00
C455   C     0.84301   0.52640   0.47793   0.00000  Uiso   1.00
C456   C     0.82716   0.52061   0.02492   0.00000  Uiso   1.00
C457   C     0.93782   0.59511   0.02493   0.00000  Uiso   1.00
C458   C     0.75038   0.62772   0.46309   0.00000  Uiso   1.00
C459   C     0.77369   0.43421   0.08680   0.00000  Uiso   1.00
C460   C     0.85586   0.45158   0.40215   0.00000  Uiso   1.00
C461   C     0.83067   0.57603   0.10074   0.00000  Uiso   1.00
C462   C     0.86293   0.59714   0.41080   0.00000  Uiso   1.00
C463   C     0.81311   0.54963   0.45762   0.00000  Uiso   1.00
C464   C     0.91089   0.52954   0.02423   0.00000  Uiso   1.00
C465   C     0.76717   0.56292   0.48434   0.00000  Uiso   1.00
C466   C     0.95775   0.35419   0.27289   0.00000  Uiso   1.00
C467   C     0.70894   0.64580   0.22664   0.00000  Uiso   1.00
C468   C     0.95785   0.64482   0.27276   0.00000  Uiso   1.00
Cu469  Cu    0.71355   0.50001   0.25000   0.00000  Uiso   1.00
Cu470  Cu    0.95311   0.49999   0.25000   0.00000  Uiso   1.00
F471   F     0.97871   0.56286   0.12892   0.00000  Uiso   1.00
F472   F     0.80236   0.55574   0.19898   0.00000  Uiso   1.00
F473   F     0.76875   0.44498   0.30236   0.00000  Uiso   1.00
F474   F     0.89732   0.55592   0.19885   0.00000  Uiso   1.00
F475   F     0.70561   0.50397   0.38879   0.00000  Uiso   1.00
F476   F     0.67605   0.51488   0.47831   0.00000  Uiso   1.00
F477   F     0.68711   0.59953   0.04911   0.00000  Uiso   1.00
F478   F     0.91702   0.37393   0.29671   0.00000  Uiso   1.00
F479   F     0.74965   0.62605   0.20282   0.00000  Uiso   1.00
F480   F     0.91702   0.62403   0.29604   0.00000  Uiso   1.00
F481   F     0.74953   0.37599   0.20309   0.00000  Uiso   1.00
F482   F     0.86416   0.44447   0.30151   0.00000  Uiso   1.00
H483   H     0.90464   0.60228   0.01479   0.00000  Uiso   1.00
H484   H     0.84078   0.44815   0.43928   0.00000  Uiso   1.00
H485   H     0.88592   0.42937   0.38906   0.00000  Uiso   1.00
H486   H     0.82618   0.44359   0.38767   0.00000  Uiso   1.00
H487   H     0.83014   0.59325   0.06973   0.00000  Uiso   1.00
H488   H     0.85341   0.59373   0.11742   0.00000  Uiso   1.00
H489   H     0.79288   0.57540   0.12334   0.00000  Uiso   1.00
H490   H     0.90071   0.58579   0.40252   0.00000  Uiso   1.00
H491   H     0.85491   0.61605   0.44184   0.00000  Uiso   1.00
H492   H     0.86101   0.61797   0.38295   0.00000  Uiso   1.00
H493   H     0.96983   0.60094   0.49530   0.00000  Uiso   1.00
H494   H     0.93830   0.61736   0.05164   0.00000  Uiso   1.00
H495   H     0.77511   0.63567   0.42939   0.00000  Uiso   1.00
H496   H     0.76681   0.63743   0.48974   0.00000  Uiso   1.00
H497   H     0.71697   0.64610   0.46755   0.00000  Uiso   1.00
H498   H     0.78739   0.43426   0.04942   0.00000  Uiso   1.00
H499   H     0.73443   0.42574   0.09834   0.00000  Uiso   1.00
H500   H     0.79365   0.41007   0.09943   0.00000  Uiso   1.00
N501   N     0.78403   0.50001   0.24999   0.00000  Uiso   1.00
N502   N     0.88264   0.49999   0.25001   0.00000  Uiso   1.00
O503   O     0.70625   0.43989   0.25000   0.00000  Uiso   1.00
O504   O     0.73763   0.58546   0.46502   0.00000  Uiso   1.00
O505   O     0.78225   0.47248   0.10427   0.00000  Uiso   1.00
O506   O     0.87157   0.49231   0.38901   0.00000  Uiso   1.00
O507   O     0.84815   0.53506   0.09400   0.00000  Uiso   1.00
O508   O     0.82990   0.56398   0.41364   0.00000  Uiso   1.00
O509   O     0.96042   0.56011   0.25000   0.00000  Uiso   1.00
O510   O     0.96039   0.43988   0.25000   0.00000  Uiso   1.00
O511   O     0.70628   0.56012   0.25000   0.00000  Uiso   1.00
O512   O     0.68519   0.50001   0.31492   0.00000  Uiso   1.00
O513   O     0.98148   0.49999   0.18508   0.00000  Uiso   1.00
O514   O     0.93933   0.50000   0.31492   0.00000  Uiso   1.00
O515   O     0.72733   0.50000   0.18508   0.00000  Uiso   1.00
O516   O     0.93984   0.55433   0.04152   0.00000  Uiso   1.00
C517   C     0.33323   0.75416   0.25002   0.00000  Uiso   1.00
C518   C     0.04215   0.68853   0.22668   0.00000  Uiso   1.00
C519   C     0.00017   0.95716   0.24978   0.00000  Uiso   1.00
C520   C     0.33322   0.70951   0.24984   0.00000  Uiso   1.00
C521   C     0.18298   0.80575   0.27575   0.00000  Uiso   1.00
C522   C     0.15030   0.86098   0.22443   0.00000  Uiso   1.00
C523   C     0.13355   0.80585   0.27591   0.00000  Uiso   1.00
C524   C     0.19961   0.86103   0.22444   0.00000  Uiso   1.00
C525   C     0.30544   0.83298   0.33627   0.00000  Uiso   1.00
C526   C     0.02784   0.83564   0.16408   0.00000  Uiso   1.00
C527   C     0.28946   0.83571   0.38592   0.00000  Uiso   1.00
C528   C     0.00015   0.91251   0.24982   0.00000  Uiso   1.00
C529   C     0.04410   0.84795   0.11637   0.00000  Uiso   1.00
C530   C     0.30892   0.84688   0.45586   0.00000  Uiso   1.00
C531   C     0.03908   0.89699   0.05850   0.00000  Uiso   1.00
C532   C     0.32390   0.83998   0.40977   0.00000  Uiso   1.00
C533   C     0.01945   0.87946   0.10110   0.00000  Uiso   1.00
C534   C     0.23943   0.83656   0.40985   0.00000  Uiso   1.00
C535   C     0.08991   0.83568   0.08902   0.00000  Uiso   1.00
C536   C     0.22476   0.84893   0.45513   0.00000  Uiso   1.00
C537   C     0.11070   0.85579   0.04727   0.00000  Uiso   1.00
C538   C     0.25960   0.85187   0.47868   0.00000  Uiso   1.00
C539   C     0.19516   0.85882   0.04866   0.00000  Uiso   1.00
C540   C     0.08249   0.88232   0.02940   0.00000  Uiso   1.00
C541   C     0.17634   0.85974   0.47793   0.00000  Uiso   1.00
C542   C     0.16049   0.85394   0.02492   0.00000  Uiso   1.00
C543   C     0.27115   0.92845   0.02493   0.00000  Uiso   1.00
C544   C     0.08372   0.96105   0.46309   0.00000  Uiso   1.00
C545   C     0.10702   0.76754   0.08680   0.00000  Uiso   1.00
C546   C     0.18920   0.78491   0.40215   0.00000  Uiso   1.00
C547   C     0.16400   0.90937   0.10074   0.00000  Uiso   1.00
C548   C     0.19626   0.93047   0.41080   0.00000  Uiso   1.00
C549   C     0.14644   0.88296   0.45762   0.00000  Uiso   1.00
C550   C     0.24422   0.86287   0.02423   0.00000  Uiso   1.00
C551   C     0.10050   0.89625   0.48434   0.00000  Uiso   1.00
C552   C     0.29109   0.68753   0.27289   0.00000  Uiso   1.00
C553   C     0.04227   0.97913   0.22664   0.00000  Uiso   1.00
C554   C     0.29118   0.97815   0.27276   0.00000  Uiso   1.00
Cu555  Cu    0.04689   0.83334   0.25000   0.00000  Uiso   1.00
Cu556  Cu    0.28645   0.83333   0.25000   0.00000  Uiso   1.00
F557   F     0.31204   0.89619   0.12892   0.00000  Uiso   1.00
F558   F     0.13569   0.88908   0.19898   0.00000  Uiso   1.00
F559   F     0.10208   0.77831   0.30236   0.00000  Uiso   1.00
F560   F     0.23065   0.88926   0.19885   0.00000  Uiso   1.00
F561   F     0.03894   0.83731   0.38879   0.00000  Uiso   1.00
F562   F     0.00938   0.84821   0.47831   0.00000  Uiso   1.00
F563   F     0.02044   0.93286   0.04911   0.00000  Uiso   1.00
F564   F     0.25035   0.70726   0.29671   0.00000  Uiso   1.00
F565   F     0.08298   0.95938   0.20282   0.00000  Uiso   1.00
F566   F     0.25035   0.95737   0.29604   0.00000  Uiso   1.00
F567   F     0.08286   0.70933   0.20309   0.00000  Uiso   1.00
F568   F     0.19749   0.77780   0.30151   0.00000  Uiso   1.00
H569   H     0.23797   0.93561   0.01479   0.00000  Uiso   1.00
H570   H     0.17412   0.78149   0.43928   0.00000  Uiso   1.00
H571   H     0.21925   0.76270   0.38906   0.00000  Uiso   1.00
H572   H     0.15951   0.77692   0.38767   0.00000  Uiso   1.00
H573   H     0.16347   0.92659   0.06973   0.00000  Uiso   1.00
H574   H     0.18675   0.92707   0.11742   0.00000  Uiso   1.00
H575   H     0.12622   0.90873   0.12334   0.00000  Uiso   1.00
H576   H     0.23405   0.91912   0.40252   0.00000  Uiso   1.00
H577   H     0.18824   0.94938   0.44184   0.00000  Uiso   1.00
H578   H     0.19434   0.95130   0.38295   0.00000  Uiso   1.00
H579   H     0.30317   0.93427   0.49530   0.00000  Uiso   1.00
H580   H     0.27163   0.95069   0.05164   0.00000  Uiso   1.00
H581   H     0.10844   0.96900   0.42939   0.00000  Uiso   1.00
H582   H     0.10014   0.97077   0.48974   0.00000  Uiso   1.00
H583   H     0.05031   0.97943   0.46755   0.00000  Uiso   1.00
H584   H     0.12072   0.76760   0.04942   0.00000  Uiso   1.00
H585   H     0.06776   0.75908   0.09834   0.00000  Uiso   1.00
H586   H     0.12699   0.74340   0.09943   0.00000  Uiso   1.00
N587   N     0.11736   0.83334   0.24999   0.00000  Uiso   1.00
N588   N     0.21597   0.83332   0.25001   0.00000  Uiso   1.00
O589   O     0.03958   0.77322   0.25000   0.00000  Uiso   1.00
O590   O     0.07097   0.91879   0.46502   0.00000  Uiso   1.00
O591   O     0.11558   0.80581   0.10427   0.00000  Uiso   1.00
O592   O     0.20491   0.82564   0.38901   0.00000  Uiso   1.00
O593   O     0.18148   0.86840   0.09400   0.00000  Uiso   1.00
O594   O     0.16323   0.89732   0.41364   0.00000  Uiso   1.00
O595   O     0.29375   0.89345   0.25000   0.00000  Uiso   1.00
O596   O     0.29372   0.77321   0.25000   0.00000  Uiso   1.00
O597   O     0.03961   0.89346   0.25000   0.00000  Uiso   1.00
O598   O     0.01852   0.83334   0.31492   0.00000  Uiso   1.00
O599   O     0.31481   0.83332   0.18508   0.00000  Uiso   1.00
O600   O     0.27267   0.83333   0.31492   0.00000  Uiso   1.00
O601   O     0.06067   0.83333   0.18508   0.00000  Uiso   1.00
O602   O     0.27317   0.88766   0.04152   0.00000  Uiso   1.00
C603   C     0.66657   0.75416   0.25002   0.00000  Uiso   1.00
C604   C     0.37548   0.68853   0.22668   0.00000  Uiso   1.00
C605   C     0.33350   0.95716   0.24978   0.00000  Uiso   1.00
C606   C     0.66655   0.70951   0.24984   0.00000  Uiso   1.00
C607   C     0.51631   0.80575   0.27575   0.00000  Uiso   1.00
C608   C     0.48363   0.86098   0.22443   0.00000  Uiso   1.00
C609   C     0.46689   0.80585   0.27591   0.00000  Uiso   1.00
C610   C     0.53294   0.86103   0.22444   0.00000  Uiso   1.00
C611   C     0.63878   0.83298   0.33627   0.00000  Uiso   1.00
C612   C     0.36117   0.83564   0.16408   0.00000  Uiso   1.00
C613   C     0.62279   0.83571   0.38592   0.00000  Uiso   1.00
C614   C     0.33348   0.91251   0.24982   0.00000  Uiso   1.00
C615   C     0.37743   0.84795   0.11637   0.00000  Uiso   1.00
C616   C     0.64226   0.84688   0.45586   0.00000  Uiso   1.00
C617   C     0.37241   0.89699   0.05850   0.00000  Uiso   1.00
C618   C     0.65723   0.83998   0.40977   0.00000  Uiso   1.00
C619   C     0.35278   0.87946   0.10110   0.00000  Uiso   1.00
C620   C     0.57276   0.83656   0.40985   0.00000  Uiso   1.00
C621   C     0.42324   0.83568   0.08902   0.00000  Uiso   1.00
C622   C     0.55810   0.84893   0.45513   0.00000  Uiso   1.00
C623   C     0.44404   0.85579   0.04727   0.00000  Uiso   1.00
C624   C     0.59293   0.85187   0.47868   0.00000  Uiso   1.00
C625   C     0.52849   0.85882   0.04866   0.00000  Uiso   1.00
C626   C     0.41583   0.88232   0.02940   0.00000  Uiso   1.00
C627   C     0.50968   0.85974   0.47793   0.00000  Uiso   1.00
C628   C     0.49383   0.85394   0.02492   0.00000  Uiso   1.00
C629   C     0.60448   0.92845   0.02493   0.00000  Uiso   1.00
C630   C     0.41705   0.96105   0.46309   0.00000  Uiso   1.00
C631   C     0.44035   0.76754   0.08680   0.00000  Uiso   1.00
C632   C     0.52253   0.78491   0.40215   0.00000  Uiso   1.00
C633   C     0.49733   0.90937   0.10074   0.00000  Uiso   1.00
C634   C     0.52959   0.93047   0.41080   0.00000  Uiso   1.00
C635   C     0.47978   0.88296   0.45762   0.00000  Uiso   1.00
C636   C     0.57756   0.86287   0.02423   0.00000  Uiso   1.00
C637   C     0.43383   0.89625   0.48434   0.00000  Uiso   1.00
C638   C     0.62442   0.68753   0.27289   0.00000  Uiso   1.00
C639   C     0.37561   0.97913   0.22664   0.00000  Uiso   1.00
C640   C     0.62452   0.97815   0.27276   0.00000  Uiso   1.00
Cu641  Cu    0.38022   0.83334   0.25000   0.00000  Uiso   1.00
Cu642  Cu    0.61978   0.83333   0.25000   0.00000  Uiso   1.00
F643   F     0.64538   0.89619   0.12892   0.00000  Uiso   1.00
F644   F     0.46902   0.88908   0.19898   0.00000  Uiso   1.00
F645   F     0.43542   0.77831   0.30236   0.00000  Uiso   1.00
F646   F     0.56399   0.88926   0.19885   0.00000  Uiso   1.00
F647   F     0.37228   0.83731   0.38879   0.00000  Uiso   1.00
F648   F     0.34272   0.84821   0.47831   0.00000  Uiso   1.00
F649   F     0.35377   0.93286   0.04911   0.00000  Uiso   1.00
F650   F     0.58368   0.70726   0.29671   0.00000  Uiso   1.00
F651   F     0.41632   0.95938   0.20282   0.00000  Uiso   1.00
F652   F     0.58369   0.95737   0.29604   0.00000  Uiso   1.00
F653   F     0.41619   0.70933   0.20309   0.00000  Uiso   1.00
F654   F     0.53082   0.77780   0.30151   0.00000  Uiso   1.00
H655   H     0.57130   0.93561   0.01479   0.00000  Uiso   1.00
H656   H     0.50745   0.78149   0.43928   0.00000  Uiso   1.00
H657   H     0.55258   0.76270   0.38906   0.00000  Uiso   1.00
H658   H     0.49284   0.77692   0.38767   0.00000  Uiso   1.00
H659   H     0.49680   0.92659   0.06973   0.00000  Uiso   1.00
H660   H     0.52008   0.92707   0.11742   0.00000  Uiso   1.00
H661   H     0.45955   0.90873   0.12334   0.00000  Uiso   1.00
H662   H     0.56738   0.91912   0.40252   0.00000  Uiso   1.00
H663   H     0.52157   0.94938   0.44184   0.00000  Uiso   1.00
H664   H     0.52767   0.95130   0.38295   0.00000  Uiso   1.00
H665   H     0.63650   0.93427   0.49530   0.00000  Uiso   1.00
H666   H     0.60496   0.95069   0.05164   0.00000  Uiso   1.00
H667   H     0.44177   0.96900   0.42939   0.00000  Uiso   1.00
H668   H     0.43348   0.97077   0.48974   0.00000  Uiso   1.00
H669   H     0.38364   0.97943   0.46755   0.00000  Uiso   1.00
H670   H     0.45406   0.76760   0.04942   0.00000  Uiso   1.00
H671   H     0.40109   0.75908   0.09834   0.00000  Uiso   1.00
H672   H     0.46032   0.74340   0.09943   0.00000  Uiso   1.00
N673   N     0.45069   0.83334   0.24999   0.00000  Uiso   1.00
N674   N     0.54931   0.83332   0.25001   0.00000  Uiso   1.00
O675   O     0.37291   0.77322   0.25000   0.00000  Uiso   1.00
O676   O     0.40430   0.91879   0.46502   0.00000  Uiso   1.00
O677   O     0.44891   0.80581   0.10427   0.00000  Uiso   1.00
O678   O     0.53824   0.82564   0.38901   0.00000  Uiso   1.00
O679   O     0.51481   0.86840   0.09400   0.00000  Uiso   1.00
O680   O     0.49657   0.89732   0.41364   0.00000  Uiso   1.00
O681   O     0.62709   0.89345   0.25000   0.00000  Uiso   1.00
O682   O     0.62706   0.77321   0.25000   0.00000  Uiso   1.00
O683   O     0.37294   0.89346   0.25000   0.00000  Uiso   1.00
O684   O     0.35186   0.83334   0.31492   0.00000  Uiso   1.00
O685   O     0.64814   0.83332   0.18508   0.00000  Uiso   1.00
O686   O     0.60600   0.83333   0.31492   0.00000  Uiso   1.00
O687   O     0.39400   0.83333   0.18508   0.00000  Uiso   1.00
O688   O     0.60650   0.88766   0.04152   0.00000  Uiso   1.00
C689   C     0.99990   0.75416   0.25002   0.00000  Uiso   1.00
C690   C     0.70882   0.68853   0.22668   0.00000  Uiso   1.00
C691   C     0.66684   0.95716   0.24978   0.00000  Uiso   1.00
C692   C     0.99988   0.70951   0.24984   0.00000  Uiso   1.00
C693   C     0.84964   0.80575   0.27575   0.00000  Uiso   1.00
C694   C     0.81696   0.86098   0.22443   0.00000  Uiso   1.00
C695   C     0.80022   0.80585   0.27591   0.00000  Uiso   1.00
C696   C     0.86628   0.86103   0.22444   0.00000  Uiso   1.00
C697   C     0.97211   0.83298   0.33627   0.00000  Uiso   1.00
C698   C     0.69450   0.83564   0.16408   0.00000  Uiso   1.00
C699   C     0.95613   0.83571   0.38592   0.00000  Uiso   1.00
C700   C     0.66681   0.91251   0.24982   0.00000  Uiso   1.00
C701   C     0.71076   0.84795   0.11637   0.00000  Uiso   1.00
C702   C     0.97559   0.84688   0.45586   0.00000  Uiso   1.00
C703   C     0.70575   0.89699   0.05850   0.00000  Uiso   1.00
C704   C     0.99056   0.83998   0.40977   0.00000  Uiso   1.00
C705   C     0.68612   0.87946   0.10110   0.00000  Uiso   1.00
C706   C     0.90610   0.83656   0.40985   0.00000  Uiso   1.00
C707   C     0.75658   0.83568   0.08902   0.00000  Uiso   1.00
C708   C     0.89143   0.84893   0.45513   0.00000  Uiso   1.00
C709   C     0.77737   0.85579   0.04727   0.00000  Uiso   1.00
C710   C     0.92626   0.85187   0.47868   0.00000  Uiso   1.00
C711   C     0.86183   0.85882   0.04866   0.00000  Uiso   1.00
C712   C     0.74916   0.88232   0.02940   0.00000  Uiso   1.00
C713   C     0.84301   0.85974   0.47793   0.00000  Uiso   1.00
C714   C     0.82716   0.85394   0.02492   0.00000  Uiso   1.00
C715   C     0.93782   0.92845   0.02493   0.00000  Uiso   1.00
C716   C     0.75038   0.96105   0.46309   0.00000  Uiso   1.00
C717   C     0.77369   0.76754   0.08680   0.00000  Uiso   1.00
C718   C     0.85586   0.78491   0.40215   0.00000  Uiso   1.00
C719   C     0.83067   0.90937   0.10074   0.00000  Uiso   1.00
C720   C     0.86293   0.93047   0.41080   0.00000  Uiso   1.00
C721   C     0.81311   0.88296   0.45762   0.00000  Uiso   1.00
C722   C     0.91089   0.86287   0.02423   0.00000  Uiso   1.00
C723   C     0.76717   0.89625   0.48434   0.00000  Uiso   1.00
C724   C     0.95775   0.68753   0.27289   0.00000  Uiso   1.00
C725   C     0.70894   0.97913   0.22664   0.00000  Uiso   1.00
C726   C     0.95785   0.97815   0.27276   0.00000  Uiso   1.00
Cu727  Cu    0.71355   0.83334   0.25000   0.00000  Uiso   1.00
Cu728  Cu    0.95311   0.83333   0.25000   0.00000  Uiso   1.00
F729   F     0.97871   0.89619   0.12892   0.00000  Uiso   1.00
F730   F     0.80236   0.88908   0.19898   0.00000  Uiso   1.00
F731   F     0.76875   0.77831   0.30236   0.00000  Uiso   1.00
F732   F     0.89732   0.88926   0.19885   0.00000  Uiso   1.00
F733   F     0.70561   0.83731   0.38879   0.00000  Uiso   1.00
F734   F     0.67605   0.84821   0.47831   0.00000  Uiso   1.00
F735   F     0.68711   0.93286   0.04911   0.00000  Uiso   1.00
F736   F     0.91702   0.70726   0.29671   0.00000  Uiso   1.00
F737   F     0.74965   0.95938   0.20282   0.00000  Uiso   1.00
F738   F     0.91702   0.95737   0.29604   0.00000  Uiso   1.00
F739   F     0.74953   0.70933   0.20309   0.00000  Uiso   1.00
F740   F     0.86416   0.77780   0.30151   0.00000  Uiso   1.00
H741   H     0.90464   0.93561   0.01479   0.00000  Uiso   1.00
H742   H     0.84078   0.78149   0.43928   0.00000  Uiso   1.00
H743   H     0.88592   0.76270   0.38906   0.00000  Uiso   1.00
H744   H     0.82618   0.77692   0.38767   0.00000  Uiso   1.00
H745   H     0.83014   0.92659   0.06973   0.00000  Uiso   1.00
H746   H     0.85341   0.92707   0.11742   0.00000  Uiso   1.00
H747   H     0.79288   0.90873   0.12334   0.00000  Uiso   1.00
H748   H     0.90071   0.91912   0.40252   0.00000  Uiso   1.00
H749   H     0.85491   0.94938   0.44184   0.00000  Uiso   1.00
H750   H     0.86101   0.95130   0.38295   0.00000  Uiso   1.00
H751   H     0.96983   0.93427   0.49530   0.00000  Uiso   1.00
H752   H     0.93830   0.95069   0.05164   0.00000  Uiso   1.00
H753   H     0.77511   0.96900   0.42939   0.00000  Uiso   1.00
H754   H     0.76681   0.97077   0.48974   0.00000  Uiso   1.00
H755   H     0.71697   0.97943   0.46755   0.00000  Uiso   1.00
H756   H     0.78739   0.76760   0.04942   0.00000  Uiso   1.00
H757   H     0.73443   0.75908   0.09834   0.00000  Uiso   1.00
H758   H     0.79365   0.74340   0.09943   0.00000  Uiso   1.00
N759   N     0.78403   0.83334   0.24999   0.00000  Uiso   1.00
N760   N     0.88264   0.83332   0.25001   0.00000  Uiso   1.00
O761   O     0.70625   0.77322   0.25000   0.00000  Uiso   1.00
O762   O     0.73763   0.91879   0.46502   0.00000  Uiso   1.00
O763   O     0.78225   0.80581   0.10427   0.00000  Uiso   1.00
O764   O     0.87157   0.82564   0.38901   0.00000  Uiso   1.00
O765   O     0.84815   0.86840   0.09400   0.00000  Uiso   1.00
O766   O     0.82990   0.89732   0.41364   0.00000  Uiso   1.00
O767   O     0.96042   0.89345   0.25000   0.00000  Uiso   1.00
O768   O     0.96039   0.77321   0.25000   0.00000  Uiso   1.00
O769   O     0.70628   0.89346   0.25000   0.00000  Uiso   1.00
O770   O     0.68519   0.83334   0.31492   0.00000  Uiso   1.00
O771   O     0.98148   0.83332   0.18508   0.00000  Uiso   1.00
O772   O     0.93933   0.83333   0.31492   0.00000  Uiso   1.00
O773   O     0.72733   0.83333   0.18508   0.00000  Uiso   1.00
O774   O     0.93984   0.88766   0.04152   0.00000  Uiso   1.00
C775   C     0.33323   0.08749   0.75002   0.00000  Uiso   1.00
C776   C     0.04215   0.02186   0.72668   0.00000  Uiso   1.00
C777   C     0.00017   0.29049   0.74978   0.00000  Uiso   1.00
C778   C     0.33322   0.04285   0.74984   0.00000  Uiso   1.00
C779   C     0.18298   0.13909   0.77575   0.00000  Uiso   1.00
C780   C     0.15030   0.19431   0.72443   0.00000  Uiso   1.00
C781   C     0.13355   0.13919   0.77591   0.00000  Uiso   1.00
C782   C     0.19961   0.19437   0.72444   0.00000  Uiso   1.00
C783   C     0.30544   0.16632   0.83627   0.00000  Uiso   1.00
C784   C     0.02784   0.16897   0.66408   0.00000  Uiso   1.00
C785   C     0.28946   0.16904   0.88592   0.00000  Uiso   1.00
C786   C     0.00015   0.24585   0.74982   0.00000  Uiso   1.00
C787   C     0.04410   0.18128   0.61637   0.00000  Uiso   1.00
C788   C     0.30892   0.18021   0.95586   0.00000  Uiso   1.00
C789   C     0.03908   0.23033   0.55850   0.00000  Uiso   1.00
C790   C     0.32390   0.17331   0.90977   0.00000  Uiso   1.00
C791   C     0.01945   0.21280   0.60110   0.00000  Uiso   1.00
C792   C     0.23943   0.16989   0.90985   0.00000  Uiso   1.00
C793   C     0.08991   0.16901   0.58902   0.00000  Uiso   1.00
C794   C     0.22476   0.18226   0.95513   0.00000  Uiso   1.00
C795   C     0.11070   0.18912   0.54727   0.00000  Uiso   1.00
C796   C     0.25960   0.18521   0.97868   0.00000  Uiso   1.00
C797   C     0.19516   0.19216   0.54866   0.00000  Uiso   1.00
C798   C     0.08249   0.21565   0.52940   0.00000  Uiso   1.00
C799   C     0.17634   0.19307   0.97793   0.00000  Uiso   1.00
C800   C     0.16049   0.18728   0.52492   0.00000  Uiso   1.00
C801   C     0.27115   0.26178   0.52493   0.00000  Uiso   1.00
C802   C     0.08372   0.29438   0.96309   0.00000  Uiso   1.00
C803   C     0.10702   0.10087   0.58680   0.00000  Uiso   1.00
C804   C     0.18920   0.11824   0.90215   0.00000  Uiso   1.00
C805   C     0.16400   0.24270   0.60074   0.00000  Uiso   1.00
C806   C     0.19626   0.26380   0.91080   0.00000  Uiso   1.00
C807   C     0.14644   0.21630   0.95762   0.00000  Uiso   1.00
C808   C     0.24422   0.19620   0.52423   0.00000  Uiso   1.00
C809   C     0.10050   0.22959   0.98434   0.00000  Uiso   1.00
C810   C     0.29109   0.02086   0.77289   0.00000  Uiso   1.00
C811   C     0.04227   0.31247   0.72664   0.00000  Uiso   1.00
C812   C     0.29118   0.31149   0.77276   0.00000  Uiso   1.00
Cu813  Cu    0.04689   0.16667   0.75000   0.00000  Uiso   1.00
Cu814  Cu    0.28645   0.16666   0.75000   0.00000  Uiso   1.00
F815   F     0.31204   0.22953   0.62892   0.00000  Uiso   1.00
F816   F     0.13569   0.22241   0.69898   0.00000  Uiso   1.00
F817   F     0.10208   0.11164   0.80236   0.00000  Uiso   1.00
F818   F     0.23065   0.22259   0.69885   0.00000  Uiso   1.00
F819   F     0.03894   0.17064   0.88879   0.00000  Uiso   1.00
F820   F     0.00938   0.18155   0.97831   0.00000  Uiso   1.00
F821   F     0.02044   0.26620   0.54911   0.00000  Uiso   1.00
F822   F     0.25035   0.04059   0.79671   0.00000  Uiso   1.00
F823   F     0.08298   0.29271   0.70282   0.00000  Uiso   1.00
F824   F     0.25035   0.29070   0.79604   0.00000  Uiso   1.00
F825   F     0.08286   0.04266   0.70309   0.00000  Uiso   1.00
F826   F     0.19749   0.11113   0.80151   0.00000  Uiso   1.00
H827   H     0.23797   0.26894   0.51479   0.00000  Uiso   1.00
H828   H     0.17412   0.11482   0.93928   0.00000  Uiso   1.00
H829   H     0.21925   0.09603   0.88906   0.00000  Uiso   1.00
H830   H     0.15951   0.11026   0.88767   0.00000  Uiso   1.00
H831   H     0.16347   0.25992   0.56973   0.00000  Uiso   1.00
H832   H     0.18675   0.26040   0.61742   0.00000  Uiso   1.00
H833   H     0.12622   0.24207   0.62334   0.00000  Uiso   1.00
H834   H     0.23405   0.25246   0.90252   0.00000  Uiso   1.00
H835   H     0.18824   0.28272   0.94184   0.00000  Uiso   1.00
H836   H     0.19434   0.28463   0.88295   0.00000  Uiso   1.00
H837   H     0.30317   0.26760   0.99530   0.00000  Uiso   1.00
H838   H     0.27163   0.28403   0.55164   0.00000  Uiso   1.00
H839   H     0.10844   0.30234   0.92939   0.00000  Uiso   1.00
H840   H     0.10014   0.30410   0.98974   0.00000  Uiso   1.00
H841   H     0.05031   0.31277   0.96755   0.00000  Uiso   1.00
H842   H     0.12072   0.10093   0.54942   0.00000  Uiso   1.00
H843   H     0.06776   0.09241   0.59834   0.00000  Uiso   1.00
H844   H     0.12699   0.07674   0.59943   0.00000  Uiso   1.00
N845   N     0.11736   0.16668   0.74999   0.00000  Uiso   1.00
N846   N     0.21597   0.16666   0.75001   0.00000  Uiso   1.00
O847   O     0.03958   0.10655   0.75000   0.00000  Uiso   1.00
O848   O     0.07097   0.25212   0.96502   0.00000  Uiso   1.00
O849   O     0.11558   0.13915   0.60427   0.00000  Uiso   1.00
O850   O     0.20491   0.15897   0.88901   0.00000  Uiso   1.00
O851   O     0.18148   0.20173   0.59400   0.00000  Uiso   1.00
O852   O     0.16323   0.23065   0.91364   0.00000  Uiso   1.00
O853   O     0.29375   0.22678   0.75000   0.00000  Uiso   1.00
O854   O     0.29372   0.10654   0.75000   0.00000  Uiso   1.00
O855   O     0.03961   0.22679   0.75000   0.00000  Uiso   1.00
O856   O     0.01852   0.16668   0.81492   0.00000  Uiso   1.00
O857   O     0.31481   0.16666   0.68508   0.00000  Uiso   1.00
O858   O     0.27267   0.16667   0.81492   0.00000  Uiso   1.00
O859   O     0.06067   0.16667   0.68508   0.00000  Uiso   1.00
O860   O     0.27317   0.22099   0.54152   0.00000  Uiso   1.00
C861   C     0.66657   0.08749   0.75002   0.00000  Uiso   1.00
C862   C     0.37548   0.02186   0.72668   0.00000  Uiso   1.00
C863   C     0.33350   0.29049   0.74978   0.00000  Uiso   1.00
C864   C     0.66655   0.04285   0.74984   0.00000  Uiso   1.00
C865   C     0.51631   0.13909   0.77575   0.00000  Uiso   1.00
C866   C     0.48363   0.19431   0.72443   0.00000  Uiso   1.00
C867   C     0.46689   0.13919   0.77591   0.00000  Uiso   1.00
C868   C     0.53294   0.19437   0.72444   0.00000  Uiso   1.00
C869   C     0.63878   0.16632   0.83627   0.00000  Uiso   1.00
C870   C     0.36117   0.16897   0.66408   0.00000  Uiso   1.00
C871   C     0.62279   0.16904   0.88592   0.00000  Uiso   1.00
C872   C     0.33348   0.24585   0.74982   0.00000  Uiso   1.00
C873   C     0.37743   0.18128   0.61637   0.00000  Uiso   1.00
C874   C     0.64226   0.18021   0.95586   0.00000  Uiso   1.00
C875   C     0.37241   0.23033   0.55850   0.00000  Uiso   1.00
C876   C     0.65723   0.17331   0.90977   0.00000  Uiso   1.00
C877   C     0.35278   0.21280   0.60110   0.00000  Uiso   1.00
C878   C     0.57276   0.16989   0.90985   0.00000  Uiso   1.00
C879   C     0.42324   0.16901   0.58902   0.00000  Uiso   1.00
C880   C     0.55810   0.18226   0.95513   0.00000  Uiso   1.00
C881   C     0.44404   0.18912   0.54727   0.00000  Uiso   1.00
C882   C     0.59293   0.18521   0.97868   0.00000  Uiso   1.00
C883   C     0.52849   0.19216   0.54866   0.00000  Uiso   1.00
C884   C     0.41583   0.21565   0.52940   0.00000  Uiso   1.00
C885   C     0.50968   0.19307   0.97793   0.00000  Uiso   1.00
C886   C     0.49383   0.18728   0.52492   0.00000  Uiso   1.00
C887   C     0.60448   0.26178   0.52493   0.00000  Uiso   1.00
C888   C     0.41705   0.29438   0.96309   0.00000  Uiso   1.00
C889   C     0.44035   0.10087   0.58680   0.00000  Uiso   1.00
C890   C     0.52253   0.11824   0.90215   0.00000  Uiso   1.00
C891   C     0.49733   0.24270   0.60074   0.00000  Uiso   1.00
C892   C     0.52959   0.26380   0.91080   0.00000  Uiso   1.00
C893   C     0.47978   0.21630   0.95762   0.00000  Uiso   1.00
C894   C     0.57756   0.19620   0.52423   0.00000  Uiso   1.00
C895   C     0.43383   0.22959   0.98434   0.00000  Uiso   1.00
C896   C     0.62442   0.02086   0.77289   0.00000  Uiso   1.00
C897   C     0.37561   0.31247   0.72664   0.00000  Uiso   1.00
C898   C     0.62452   0.31149   0.77276   0.00000  Uiso   1.00
Cu899  Cu    0.38022   0.16667   0.75000   0.00000  Uiso   1.00
Cu900  Cu    0.61978   0.16666   0.75000   0.00000  Uiso   1.00
F901   F     0.64538   0.22953   0.62892   0.00000  Uiso   1.00
F902   F     0.46902   0.22241   0.69898   0.00000  Uiso   1.00
F903   F     0.43542   0.11164   0.80236   0.00000  Uiso   1.00
F904   F     0.56399   0.22259   0.69885   0.00000  Uiso   1.00
F905   F     0.37228   0.17064   0.88879   0.00000  Uiso   1.00
F906   F     0.34272   0.18155   0.97831   0.00000  Uiso   1.00
F907   F     0.35377   0.26620   0.54911   0.00000  Uiso   1.00
F908   F     0.58368   0.04059   0.79671   0.00000  Uiso   1.00
F909   F     0.41632   0.29271   0.70282   0.00000  Uiso   1.00
F910   F     0.58369   0.29070   0.79604   0.00000  Uiso   1.00
F911   F     0.41619   0.04266   0.70309   0.00000  Uiso   1.00
F912   F     0.53082   0.11113   0.80151   0.00000  Uiso   1.00
H913   H     0.57130   0.26894   0.51479   0.00000  Uiso   1.00
H914   H     0.50745   0.11482   0.93928   0.00000  Uiso   1.00
H915   H     0.55258   0.09603   0.88906   0.00000  Uiso   1.00
H916   H     0.49284   0.11026   0.88767   0.00000  Uiso   1.00
H917   H     0.49680   0.25992   0.56973   0.00000  Uiso   1.00
H918   H     0.52008   0.26040   0.61742   0.00000  Uiso   1.00
H919   H     0.45955   0.24207   0.62334   0.00000  Uiso   1.00
H920   H     0.56738   0.25246   0.90252   0.00000  Uiso   1.00
H921   H     0.52157   0.28272   0.94184   0.00000  Uiso   1.00
H922   H     0.52767   0.28463   0.88295   0.00000  Uiso   1.00
H923   H     0.63650   0.26760   0.99530   0.00000  Uiso   1.00
H924   H     0.60496   0.28403   0.55164   0.00000  Uiso   1.00
H925   H     0.44177   0.30234   0.92939   0.00000  Uiso   1.00
H926   H     0.43348   0.30410   0.98974   0.00000  Uiso   1.00
H927   H     0.38364   0.31277   0.96755   0.00000  Uiso   1.00
H928   H     0.45406   0.10093   0.54942   0.00000  Uiso   1.00
H929   H     0.40109   0.09241   0.59834   0.00000  Uiso   1.00
H930   H     0.46032   0.07674   0.59943   0.00000  Uiso   1.00
N931   N     0.45069   0.16668   0.74999   0.00000  Uiso   1.00
N932   N     0.54931   0.16666   0.75001   0.00000  Uiso   1.00
O933   O     0.37291   0.10655   0.75000   0.00000  Uiso   1.00
O934   O     0.40430   0.25212   0.96502   0.00000  Uiso   1.00
O935   O     0.44891   0.13915   0.60427   0.00000  Uiso   1.00
O936   O     0.53824   0.15897   0.88901   0.00000  Uiso   1.00
O937   O     0.51481   0.20173   0.59400   0.00000  Uiso   1.00
O938   O     0.49657   0.23065   0.91364   0.00000  Uiso   1.00
O939   O     0.62709   0.22678   0.75000   0.00000  Uiso   1.00
O940   O     0.62706   0.10654   0.75000   0.00000  Uiso   1.00
O941   O     0.37294   0.22679   0.75000   0.00000  Uiso   1.00
O942   O     0.35186   0.16668   0.81492   0.00000  Uiso   1.00
O943   O     0.64814   0.16666   0.68508   0.00000  Uiso   1.00
O944   O     0.60600   0.16667   0.81492   0.00000  Uiso   1.00
O945   O     0.39400   0.16667   0.68508   0.00000  Uiso   1.00
O946   O     0.60650   0.22099   0.54152   0.00000  Uiso   1.00
C947   C     0.99990   0.08749   0.75002   0.00000  Uiso   1.00
C948   C     0.70882   0.02186   0.72668   0.00000  Uiso   1.00
C949   C     0.66684   0.29049   0.74978   0.00000  Uiso   1.00
C950   C     0.99988   0.04285   0.74984   0.00000  Uiso   1.00
C951   C     0.84964   0.13909   0.77575   0.00000  Uiso   1.00
C952   C     0.81696   0.19431   0.72443   0.00000  Uiso   1.00
C953   C     0.80022   0.13919   0.77591   0.00000  Uiso   1.00
C954   C     0.86628   0.19437   0.72444   0.00000  Uiso   1.00
C955   C     0.97211   0.16632   0.83627   0.00000  Uiso   1.00
C956   C     0.69450   0.16897   0.66408   0.00000  Uiso   1.00
C957   C     0.95613   0.16904   0.88592   0.00000  Uiso   1.00
C958   C     0.66681   0.24585   0.74982   0.00000  Uiso   1.00
C959   C     0.71076   0.18128   0.61637   0.00000  Uiso   1.00
C960   C     0.97559   0.18021   0.95586   0.00000  Uiso   1.00
C961   C     0.70575   0.23033   0.55850   0.00000  Uiso   1.00
C962   C     0.99056   0.17331   0.90977   0.00000  Uiso   1.00
C963   C     0.68612   0.21280   0.60110   0.00000  Uiso   1.00
C964   C     0.90610   0.16989   0.90985   0.00000  Uiso   1.00
C965   C     0.75658   0.16901   0.58902   0.00000  Uiso   1.00
C966   C     0.89143   0.18226   0.95513   0.00000  Uiso   1.00
C967   C     0.77737   0.18912   0.54727   0.00000  Uiso   1.00
C968   C     0.92626   0.18521   0.97868   0.00000  Uiso   1.00
C969   C     0.86183   0.19216   0.54866   0.00000  Uiso   1.00
C970   C     0.74916   0.21565   0.52940   0.00000  Uiso   1.00
C971   C     0.84301   0.19307   0.97793   0.00000  Uiso   1.00
C972   C     0.82716   0.18728   0.52492   0.00000  Uiso   1.00
C973   C     0.93782   0.26178   0.52493   0.00000  Uiso   1.00
C974   C     0.75038   0.29438   0.96309   0.00000  Uiso   1.00
C975   C     0.77369   0.10087   0.58680   0.00000  Uiso   1.00
C976   C     0.85586   0.11824   0.90215   0.00000  Uiso   1.00
C977   C     0.83067   0.24270   0.60074   0.00000  Uiso   1.00
C978   C     0.86293   0.26380   0.91080   0.00000  Uiso   1.00
C979   C     0.81311   0.21630   0.95762   0.00000  Uiso   1.00
C980   C     0.91089   0.19620   0.52423   0.00000  Uiso   1.00
C981   C     0.76717   0.22959   0.98434   0.00000  Uiso   1.00
C982   C     0.95775   0.02086   0.77289   0.00000  Uiso   1.00
C983   C     0.70894   0.31247   0.72664   0.00000  Uiso   1.00
C984   C     0.95785   0.31149   0.77276   0.00000  Uiso   1.00
Cu985  Cu    0.71355   0.16667   0.75000   0.00000  Uiso   1.00
Cu986  Cu    0.95311   0.16666   0.75000   0.00000  Uiso   1.00
F987   F     0.97871   0.22953   0.62892   0.00000  Uiso   1.00
F988   F     0.80236   0.22241   0.69898   0.00000  Uiso   1.00
F989   F     0.76875   0.11164   0.80236   0.00000  Uiso   1.00
F990   F     0.89732   0.22259   0.69885   0.00000  Uiso   1.00
F991   F     0.70561   0.17064   0.88879   0.00000  Uiso   1.00
F992   F     0.67605   0.18155   0.97831   0.00000  Uiso   1.00
F993   F     0.68711   0.26620   0.54911   0.00000  Uiso   1.00
F994   F     0.91702   0.04059   0.79671   0.00000  Uiso   1.00
F995   F     0.74965   0.29271   0.70282   0.00000  Uiso   1.00
F996   F     0.91702   0.29070   0.79604   0.00000  Uiso   1.00
F997   F     0.74953   0.04266   0.70309   0.00000  Uiso   1.00
F998   F     0.86416   0.11113   0.80151   0.00000  Uiso   1.00
H999   H     0.90464   0.26894   0.51479   0.00000  Uiso   1.00
H1000  H     0.84078   0.11482   0.93928   0.00000  Uiso   1.00
H1001  H     0.88592   0.09603   0.88906   0.00000  Uiso   1.00
H1002  H     0.82618   0.11026   0.88767   0.00000  Uiso   1.00
H1003  H     0.83014   0.25992   0.56973   0.00000  Uiso   1.00
H1004  H     0.85341   0.26040   0.61742   0.00000  Uiso   1.00
H1005  H     0.79288   0.24207   0.62334   0.00000  Uiso   1.00
H1006  H     0.90071   0.25246   0.90252   0.00000  Uiso   1.00
H1007  H     0.85491   0.28272   0.94184   0.00000  Uiso   1.00
H1008  H     0.86101   0.28463   0.88295   0.00000  Uiso   1.00
H1009  H     0.96983   0.26760   0.99530   0.00000  Uiso   1.00
H1010  H     0.93830   0.28403   0.55164   0.00000  Uiso   1.00
H1011  H     0.77511   0.30234   0.92939   0.00000  Uiso   1.00
H1012  H     0.76681   0.30410   0.98974   0.00000  Uiso   1.00
H1013  H     0.71697   0.31277   0.96755   0.00000  Uiso   1.00
H1014  H     0.78739   0.10093   0.54942   0.00000  Uiso   1.00
H1015  H     0.73443   0.09241   0.59834   0.00000  Uiso   1.00
H1016  H     0.79365   0.07674   0.59943   0.00000  Uiso   1.00
N1017  N     0.78403   0.16668   0.74999   0.00000  Uiso   1.00
N1018  N     0.88264   0.16666   0.75001   0.00000  Uiso   1.00
O1019  O     0.70625   0.10655   0.75000   0.00000  Uiso   1.00
O1020  O     0.73763   0.25212   0.96502   0.00000  Uiso   1.00
O1021  O     0.78225   0.13915   0.60427   0.00000  Uiso   1.00
O1022  O     0.87157   0.15897   0.88901   0.00000  Uiso   1.00
O1023  O     0.84815   0.20173   0.59400   0.00000  Uiso   1.00
O1024  O     0.82990   0.23065   0.91364   0.00000  Uiso   1.00
O1025  O     0.96042   0.22678   0.75000   0.00000  Uiso   1.00
O1026  O     0.96039   0.10654   0.75000   0.00000  Uiso   1.00
O1027  O     0.70628   0.22679   0.75000   0.00000  Uiso   1.00
O1028  O     0.68519   0.16668   0.81492   0.00000  Uiso   1.00
O1029  O     0.98148   0.16666   0.68508   0.00000  Uiso   1.00
O1030  O     0.93933   0.16667   0.81492   0.00000  Uiso   1.00
O1031  O     0.72733   0.16667   0.68508   0.00000  Uiso   1.00
O1032  O     0.93984   0.22099   0.54152   0.00000  Uiso   1.00
C1033  C     0.33323   0.42082   0.75002   0.00000  Uiso   1.00
C1034  C     0.04215   0.35519   0.72668   0.00000  Uiso   1.00
C1035  C     0.00017   0.62382   0.74978   0.00000  Uiso   1.00
C1036  C     0.33322   0.37618   0.74984   0.00000  Uiso   1.00
C1037  C     0.18298   0.47242   0.77575   0.00000  Uiso   1.00
C1038  C     0.15030   0.52765   0.72443   0.00000  Uiso   1.00
C1039  C     0.13355   0.47252   0.77591   0.00000  Uiso   1.00
C1040  C     0.19961   0.52770   0.72444   0.00000  Uiso   1.00
C1041  C     0.30544   0.49965   0.83627   0.00000  Uiso   1.00
C1042  C     0.02784   0.50230   0.66408   0.00000  Uiso   1.00
C1043  C     0.28946   0.50237   0.88592   0.00000  Uiso   1.00
C1044  C     0.00015   0.57918   0.74982   0.00000  Uiso   1.00
C1045  C     0.04410   0.51462   0.61637   0.00000  Uiso   1.00
C1046  C     0.30892   0.51355   0.95586   0.00000  Uiso   1.00
C1047  C     0.03908   0.56366   0.55850   0.00000  Uiso   1.00
C1048  C     0.32390   0.50665   0.90977   0.00000  Uiso   1.00
C1049  C     0.01945   0.54613   0.60110   0.00000  Uiso   1.00
C1050  C     0.23943   0.50322   0.90985   0.00000  Uiso   1.00
C1051  C     0.08991   0.50234   0.58902   0.00000  Uiso   1.00
C1052  C     0.22476   0.51559   0.95513   0.00000  Uiso   1.00
C1053  C     0.11070   0.52246   0.54727   0.00000  Uiso   1.00
C1054  C     0.25960   0.51854   0.97868   0.00000  Uiso   1.00
C1055  C     0.19516   0.52549   0.54866   0.00000  Uiso   1.00
C1056  C     0.08249   0.54899   0.52940   0.00000  Uiso   1.00
C1057  C     0.17634   0.52640   0.97793   0.00000  Uiso   1.00
C1058  C     0.16049   0.52061   0.52492   0.00000  Uiso   1.00
C1059  C     0.27115   0.59511   0.52493   0.00000  Uiso   1.00
C1060  C     0.08372   0.62772   0.96309   0.00000  Uiso   1.00
C1061  C     0.10702   0.43421   0.58680   0.00000  Uiso   1.00
C1062  C     0.18920   0.45158   0.90215   0.00000  Uiso   1.00
C1063  C     0.16400   0.57603   0.60074   0.00000  Uiso   1.00
C1064  C     0.19626   0.59714   0.91080   0.00000  Uiso   1.00
C1065  C     0.14644   0.54963   0.95762   0.00000  Uiso   1.00
C1066  C     0.24422   0.52954   0.52423   0.00000  Uiso   1.00
C1067  C     0.10050   0.56292   0.98434   0.00000  Uiso   1.00
C1068  C     0.29109   0.35419   0.77289   0.00000  Uiso   1.00
C1069  C     0.04227   0.64580   0.72664   0.00000  Uiso   1.00
C1070  C     0.29118   0.64482   0.77276   0.00000  Uiso   1.00
Cu1071 Cu    0.04689   0.50001   0.75000   0.00000  Uiso   1.00
Cu1072 Cu    0.28645   0.49999   0.75000   0.00000  Uiso   1.00
F1073  F     0.31204   0.56286   0.62892   0.00000  Uiso   1.00
F1074  F     0.13569   0.55574   0.69898   0.00000  Uiso   1.00
F1075  F     0.10208   0.44498   0.80236   0.00000  Uiso   1.00
F1076  F     0.23065   0.55592   0.69885   0.00000  Uiso   1.00
F1077  F     0.03894   0.50397   0.88879   0.00000  Uiso   1.00
F1078  F     0.00938   0.51488   0.97831   0.00000  Uiso   1.00
F1079  F     0.02044   0.59953   0.54911   0.00000  Uiso   1.00
F1080  F     0.25035   0.37393   0.79671   0.00000  Uiso   1.00
F1081  F     0.08298   0.62605   0.70282   0.00000  Uiso   1.00
F1082  F     0.25035   0.62403   0.79604   0.00000  Uiso   1.00
F1083  F     0.08286   0.37599   0.70309   0.00000  Uiso   1.00
F1084  F     0.19749   0.44447   0.80151   0.00000  Uiso   1.00
H1085  H     0.23797   0.60228   0.51479   0.00000  Uiso   1.00
H1086  H     0.17412   0.44815   0.93928   0.00000  Uiso   1.00
H1087  H     0.21925   0.42937   0.88906   0.00000  Uiso   1.00
H1088  H     0.15951   0.44359   0.88767   0.00000  Uiso   1.00
H1089  H     0.16347   0.59325   0.56973   0.00000  Uiso   1.00
H1090  H     0.18675   0.59373   0.61742   0.00000  Uiso   1.00
H1091  H     0.12622   0.57540   0.62334   0.00000  Uiso   1.00
H1092  H     0.23405   0.58579   0.90252   0.00000  Uiso   1.00
H1093  H     0.18824   0.61605   0.94184   0.00000  Uiso   1.00
H1094  H     0.19434   0.61797   0.88295   0.00000  Uiso   1.00
H1095  H     0.30317   0.60094   0.99530   0.00000  Uiso   1.00
H1096  H     0.27163   0.61736   0.55164   0.00000  Uiso   1.00
H1097  H     0.10844   0.63567   0.92939   0.00000  Uiso   1.00
H1098  H     0.10014   0.63743   0.98974   0.00000  Uiso   1.00
H1099  H     0.05031   0.64610   0.96755   0.00000  Uiso   1.00
H1100  H     0.12072   0.43426   0.54942   0.00000  Uiso   1.00
H1101  H     0.06776   0.42574   0.59834   0.00000  Uiso   1.00
H1102  H     0.12699   0.41007   0.59943   0.00000  Uiso   1.00
N1103  N     0.11736   0.50001   0.74999   0.00000  Uiso   1.00
N1104  N     0.21597   0.49999   0.75001   0.00000  Uiso   1.00
O1105  O     0.03958   0.43989   0.75000   0.00000  Uiso   1.00
O1106  O     0.07097   0.58546   0.96502   0.00000  Uiso   1.00
O1107  O     0.11558   0.47248   0.60427   0.00000  Uiso   1.00
O1108  O     0.20491   0.49231   0.88901   0.00000  Uiso   1.00
O1109  O     0.18148   0.53506   0.59400   0.00000  Uiso   1.00
O1110  O     0.16323   0.56398   0.91364   0.00000  Uiso   1.00
O1111  O     0.29375   0.56011   0.75000   0.00000  Uiso   1.00
O1112  O     0.29372   0.43988   0.75000   0.00000  Uiso   1.00
O1113  O     0.03961   0.56012   0.75000   0.00000  Uiso   1.00
O1114  O     0.01852   0.50001   0.81492   0.00000  Uiso   1.00
O1115  O     0.31481   0.49999   0.68508   0.00000  Uiso   1.00
O1116  O     0.27267   0.50000   0.81492   0.00000  Uiso   1.00
O1117  O     0.06067   0.50000   0.68508   0.00000  Uiso   1.00
O1118  O     0.27317   0.55433   0.54152   0.00000  Uiso   1.00
C1119  C     0.66657   0.42082   0.75002   0.00000  Uiso   1.00
C1120  C     0.37548   0.35519   0.72668   0.00000  Uiso   1.00
C1121  C     0.33350   0.62382   0.74978   0.00000  Uiso   1.00
C1122  C     0.66655   0.37618   0.74984   0.00000  Uiso   1.00
C1123  C     0.51631   0.47242   0.77575   0.00000  Uiso   1.00
C1124  C     0.48363   0.52765   0.72443   0.00000  Uiso   1.00
C1125  C     0.46689   0.47252   0.77591   0.00000  Uiso   1.00
C1126  C     0.53294   0.52770   0.72444   0.00000  Uiso   1.00
C1127  C     0.63878   0.49965   0.83627   0.00000  Uiso   1.00
C1128  C     0.36117   0.50230   0.66408   0.00000  Uiso   1.00
C1129  C     0.62279   0.50237   0.88592   0.00000  Uiso   1.00
C1130  C     0.33348   0.57918   0.74982   0.00000  Uiso   1.00
C1131  C     0.37743   0.51462   0.61637   0.00000  Uiso   1.00
C1132  C     0.64226   0.51355   0.95586   0.00000  Uiso   1.00
C1133  C     0.37241   0.56366   0.55850   0.00000  Uiso   1.00
C1134  C     0.65723   0.50665   0.90977   0.00000  Uiso   1.00
C1135  C     0.35278   0.54613   0.60110   0.00000  Uiso   1.00
C1136  C     0.57276   0.50322   0.90985   0.00000  Uiso   1.00
C1137  C     0.42324   0.50234   0.58902   0.00000  Uiso   1.00
C1138  C     0.55810   0.51559   0.95513   0.00000  Uiso   1.00
C1139  C     0.44404   0.52246   0.54727   0.00000  Uiso   1.00
C1140  C     0.59293   0.51854   0.97868   0.00000  Uiso   1.00
C1141  C     0.52849   0.52549   0.54866   0.00000  Uiso   1.00
C1142  C     0.41583   0.54899   0.52940   0.00000  Uiso   1.00
C1143  C     0.50968   0.52640   0.97793   0.00000  Uiso   1.00
C1144  C     0.49383   0.52061   0.52492   0.00000  Uiso   1.00
C1145  C     0.60448   0.59511   0.52493   0.00000  Uiso   1.00
C1146  C     0.41705   0.62772   0.96309   0.00000  Uiso   1.00
C1147  C     0.44035   0.43421   0.58680   0.00000  Uiso   1.00
C1148  C     0.52253   0.45158   0.90215   0.00000  Uiso   1.00
C1149  C     0.49733   0.57603   0.60074   0.00000  Uiso   1.00
C1150  C     0.52959   0.59714   0.91080   0.00000  Uiso   1.00
C1151  C     0.47978   0.54963   0.95762   0.00000  Uiso   1.00
C1152  C     0.57756   0.52954   0.52423   0.00000  Uiso   1.00
C1153  C     0.43383   0.56292   0.98434   0.00000  Uiso   1.00
C1154  C     0.62442   0.35419   0.77289   0.00000  Uiso   1.00
C1155  C     0.37561   0.64580   0.72664   0.00000  Uiso   1.00
C1156  C     0.62452   0.64482   0.77276   0.00000  Uiso   1.00
Cu1157 Cu    0.38022   0.50001   0.75000   0.00000  Uiso   1.00
Cu1158 Cu    0.61978   0.49999   0.75000   0.00000  Uiso   1.00
F1159  F     0.64538   0.56286   0.62892   0.00000  Uiso   1.00
F1160  F     0.46902   0.55574   0.69898   0.00000  Uiso   1.00
F1161  F     0.43542   0.44498   0.80236   0.00000  Uiso   1.00
F1162  F     0.56399   0.55592   0.69885   0.00000  Uiso   1.00
F1163  F     0.37228   0.50397   0.88879   0.00000  Uiso   1.00
F1164  F     0.34272   0.51488   0.97831   0.00000  Uiso   1.00
F1165  F     0.35377   0.59953   0.54911   0.00000  Uiso   1.00
F1166  F     0.58368   0.37393   0.79671   0.00000  Uiso   1.00
F1167  F     0.41632   0.62605   0.70282   0.00000  Uiso   1.00
F1168  F     0.58369   0.62403   0.79604   0.00000  Uiso   1.00
F1169  F     0.41619   0.37599   0.70309   0.00000  Uiso   1.00
F1170  F     0.53082   0.44447   0.80151   0.00000  Uiso   1.00
H1171  H     0.57130   0.60228   0.51479   0.00000  Uiso   1.00
H1172  H     0.50745   0.44815   0.93928   0.00000  Uiso   1.00
H1173  H     0.55258   0.42937   0.88906   0.00000  Uiso   1.00
H1174  H     0.49284   0.44359   0.88767   0.00000  Uiso   1.00
H1175  H     0.49680   0.59325   0.56973   0.00000  Uiso   1.00
H1176  H     0.52008   0.59373   0.61742   0.00000  Uiso   1.00
H1177  H     0.45955   0.57540   0.62334   0.00000  Uiso   1.00
H1178  H     0.56738   0.58579   0.90252   0.00000  Uiso   1.00
H1179  H     0.52157   0.61605   0.94184   0.00000  Uiso   1.00
H1180  H     0.52767   0.61797   0.88295   0.00000  Uiso   1.00
H1181  H     0.63650   0.60094   0.99530   0.00000  Uiso   1.00
H1182  H     0.60496   0.61736   0.55164   0.00000  Uiso   1.00
H1183  H     0.44177   0.63567   0.92939   0.00000  Uiso   1.00
H1184  H     0.43348   0.63743   0.98974   0.00000  Uiso   1.00
H1185  H     0.38364   0.64610   0.96755   0.00000  Uiso   1.00
H1186  H     0.45406   0.43426   0.54942   0.00000  Uiso   1.00
H1187  H     0.40109   0.42574   0.59834   0.00000  Uiso   1.00
H1188  H     0.46032   0.41007   0.59943   0.00000  Uiso   1.00
N1189  N     0.45069   0.50001   0.74999   0.00000  Uiso   1.00
N1190  N     0.54931   0.49999   0.75001   0.00000  Uiso   1.00
O1191  O     0.37291   0.43989   0.75000   0.00000  Uiso   1.00
O1192  O     0.40430   0.58546   0.96502   0.00000  Uiso   1.00
O1193  O     0.44891   0.47248   0.60427   0.00000  Uiso   1.00
O1194  O     0.53824   0.49231   0.88901   0.00000  Uiso   1.00
O1195  O     0.51481   0.53506   0.59400   0.00000  Uiso   1.00
O1196  O     0.49657   0.56398   0.91364   0.00000  Uiso   1.00
O1197  O     0.62709   0.56011   0.75000   0.00000  Uiso   1.00
O1198  O     0.62706   0.43988   0.75000   0.00000  Uiso   1.00
O1199  O     0.37294   0.56012   0.75000   0.00000  Uiso   1.00
O1200  O     0.35186   0.50001   0.81492   0.00000  Uiso   1.00
O1201  O     0.64814   0.49999   0.68508   0.00000  Uiso   1.00
O1202  O     0.60600   0.50000   0.81492   0.00000  Uiso   1.00
O1203  O     0.39400   0.50000   0.68508   0.00000  Uiso   1.00
O1204  O     0.60650   0.55433   0.54152   0.00000  Uiso   1.00
C1205  C     0.99990   0.42082   0.75002   0.00000  Uiso   1.00
C1206  C     0.70882   0.35519   0.72668   0.00000  Uiso   1.00
C1207  C     0.66684   0.62382   0.74978   0.00000  Uiso   1.00
C1208  C     0.99988   0.37618   0.74984   0.00000  Uiso   1.00
C1209  C     0.84964   0.47242   0.77575   0.00000  Uiso   1.00
C1210  C     0.81696   0.52765   0.72443   0.00000  Uiso   1.00
C1211  C     0.80022   0.47252   0.77591   0.00000  Uiso   1.00
C1212  C     0.86628   0.52770   0.72444   0.00000  Uiso   1.00
C1213  C     0.97211   0.49965   0.83627   0.00000  Uiso   1.00
C1214  C     0.69450   0.50230   0.66408   0.00000  Uiso   1.00
C1215  C     0.95613   0.50237   0.88592   0.00000  Uiso   1.00
C1216  C     0.66681   0.57918   0.74982   0.00000  Uiso   1.00
C1217  C     0.71076   0.51462   0.61637   0.00000  Uiso   1.00
C1218  C     0.97559   0.51355   0.95586   0.00000  Uiso   1.00
C1219  C     0.70575   0.56366   0.55850   0.00000  Uiso   1.00
C1220  C     0.99056   0.50665   0.90977   0.00000  Uiso   1.00
C1221  C     0.68612   0.54613   0.60110   0.00000  Uiso   1.00
C1222  C     0.90610   0.50322   0.90985   0.00000  Uiso   1.00
C1223  C     0.75658   0.50234   0.58902   0.00000  Uiso   1.00
C1224  C     0.89143   0.51559   0.95513   0.00000  Uiso   1.00
C1225  C     0.77737   0.52246   0.54727   0.00000  Uiso   1.00
C1226  C     0.92626   0.51854   0.97868   0.00000  Uiso   1.00
C1227  C     0.86183   0.52549   0.54866   0.00000  Uiso   1.00
C1228  C     0.74916   0.54899   0.52940   0.00000  Uiso   1.00
C1229  C     0.84301   0.52640   0.97793   0.00000  Uiso   1.00
C1230  C     0.82716   0.52061   0.52492   0.00000  Uiso   1.00
C1231  C     0.93782   0.59511   0.52493   0.00000  Uiso   1.00
C1232  C     0.75038   0.62772   0.96309   0.00000  Uiso   1.00
C1233  C     0.77369   0.43421   0.58680   0.00000  Uiso   1.00
C1234  C     0.85586   0.45158   0.90215   0.00000  Uiso   1.00
C1235  C     0.83067   0.57603   0.60074   0.00000  Uiso   1.00
C1236  C     0.86293   0.59714   0.91080   0.00000  Uiso   1.00
C1237  C     0.81311   0.54963   0.95762   0.00000  Uiso   1.00
C1238  C     0.91089   0.52954   0.52423   0.00000  Uiso   1.00
C1239  C     0.76717   0.56292   0.98434   0.00000  Uiso   1.00
C1240  C     0.95775   0.35419   0.77289   0.00000  Uiso   1.00
C1241  C     0.70894   0.64580   0.72664   0.00000  Uiso   1.00
C1242  C     0.95785   0.64482   0.77276   0.00000  Uiso   1.00
Cu1243 Cu    0.71355   0.50001   0.75000   0.00000  Uiso   1.00
Cu1244 Cu    0.95311   0.49999   0.75000   0.00000  Uiso   1.00
F1245  F     0.97871   0.56286   0.62892   0.00000  Uiso   1.00
F1246  F     0.80236   0.55574   0.69898   0.00000  Uiso   1.00
F1247  F     0.76875   0.44498   0.80236   0.00000  Uiso   1.00
F1248  F     0.89732   0.55592   0.69885   0.00000  Uiso   1.00
F1249  F     0.70561   0.50397   0.88879   0.00000  Uiso   1.00
F1250  F     0.67605   0.51488   0.97831   0.00000  Uiso   1.00
F1251  F     0.68711   0.59953   0.54911   0.00000  Uiso   1.00
F1252  F     0.91702   0.37393   0.79671   0.00000  Uiso   1.00
F1253  F     0.74965   0.62605   0.70282   0.00000  Uiso   1.00
F1254  F     0.91702   0.62403   0.79604   0.00000  Uiso   1.00
F1255  F     0.74953   0.37599   0.70309   0.00000  Uiso   1.00
F1256  F     0.86416   0.44447   0.80151   0.00000  Uiso   1.00
H1257  H     0.90464   0.60228   0.51479   0.00000  Uiso   1.00
H1258  H     0.84078   0.44815   0.93928   0.00000  Uiso   1.00
H1259  H     0.88592   0.42937   0.88906   0.00000  Uiso   1.00
H1260  H     0.82618   0.44359   0.88767   0.00000  Uiso   1.00
H1261  H     0.83014   0.59325   0.56973   0.00000  Uiso   1.00
H1262  H     0.85341   0.59373   0.61742   0.00000  Uiso   1.00
H1263  H     0.79288   0.57540   0.62334   0.00000  Uiso   1.00
H1264  H     0.90071   0.58579   0.90252   0.00000  Uiso   1.00
H1265  H     0.85491   0.61605   0.94184   0.00000  Uiso   1.00
H1266  H     0.86101   0.61797   0.88295   0.00000  Uiso   1.00
H1267  H     0.96983   0.60094   0.99530   0.00000  Uiso   1.00
H1268  H     0.93830   0.61736   0.55164   0.00000  Uiso   1.00
H1269  H     0.77511   0.63567   0.92939   0.00000  Uiso   1.00
H1270  H     0.76681   0.63743   0.98974   0.00000  Uiso   1.00
H1271  H     0.71697   0.64610   0.96755   0.00000  Uiso   1.00
H1272  H     0.78739   0.43426   0.54942   0.00000  Uiso   1.00
H1273  H     0.73443   0.42574   0.59834   0.00000  Uiso   1.00
H1274  H     0.79365   0.41007   0.59943   0.00000  Uiso   1.00
N1275  N     0.78403   0.50001   0.74999   0.00000  Uiso   1.00
N1276  N     0.88264   0.49999   0.75001   0.00000  Uiso   1.00
O1277  O     0.70625   0.43989   0.75000   0.00000  Uiso   1.00
O1278  O     0.73763   0.58546   0.96502   0.00000  Uiso   1.00
O1279  O     0.78225   0.47248   0.60427   0.00000  Uiso   1.00
O1280  O     0.87157   0.49231   0.88901   0.00000  Uiso   1.00
O1281  O     0.84815   0.53506   0.59400   0.00000  Uiso   1.00
O1282  O     0.82990   0.56398   0.91364   0.00000  Uiso   1.00
O1283  O     0.96042   0.56011   0.75000   0.00000  Uiso   1.00
O1284  O     0.96039   0.43988   0.75000   0.00000  Uiso   1.00
O1285  O     0.70628   0.56012   0.75000   0.00000  Uiso   1.00
O1286  O     0.68519   0.50001   0.81492   0.00000  Uiso   1.00
O1287  O     0.98148   0.49999   0.68508   0.00000  Uiso   1.00
O1288  O     0.93933   0.50000   0.81492   0.00000  Uiso   1.00
O1289  O     0.72733   0.50000   0.68508   0.00000  Uiso   1.00
O1290  O     0.93984   0.55433   0.54152   0.00000  Uiso   1.00
C1291  C     0.33323   0.75416   0.75002   0.00000  Uiso   1.00
C1292  C     0.04215   0.68853   0.72668   0.00000  Uiso   1.00
C1293  C     0.00017   0.95716   0.74978   0.00000  Uiso   1.00
C1294  C     0.33322   0.70951   0.74984   0.00000  Uiso   1.00
C1295  C     0.18298   0.80575   0.77575   0.00000  Uiso   1.00
C1296  C     0.15030   0.86098   0.72443   0.00000  Uiso   1.00
C1297  C     0.13355   0.80585   0.77591   0.00000  Uiso   1.00
C1298  C     0.19961   0.86103   0.72444   0.00000  Uiso   1.00
C1299  C     0.30544   0.83298   0.83627   0.00000  Uiso   1.00
C1300  C     0.02784   0.83564   0.66408   0.00000  Uiso   1.00
C1301  C     0.28946   0.83571   0.88592   0.00000  Uiso   1.00
C1302  C     0.00015   0.91251   0.74982   0.00000  Uiso   1.00
C1303  C     0.04410   0.84795   0.61637   0.00000  Uiso   1.00
C1304  C     0.30892   0.84688   0.95586   0.00000  Uiso   1.00
C1305  C     0.03908   0.89699   0.55850   0.00000  Uiso   1.00
C1306  C     0.32390   0.83998   0.90977   0.00000  Uiso   1.00
C1307  C     0.01945   0.87946   0.60110   0.00000  Uiso   1.00
C1308  C     0.23943   0.83656   0.90985   0.00000  Uiso   1.00
C1309  C     0.08991   0.83568   0.58902   0.00000  Uiso   1.00
C1310  C     0.22476   0.84893   0.95513   0.00000  Uiso   1.00
C1311  C     0.11070   0.85579   0.54727   0.00000  Uiso   1.00
C1312  C     0.25960   0.85187   0.97868   0.00000  Uiso   1.00
C1313  C     0.19516   0.85882   0.54866   0.00000  Uiso   1.00
C1314  C     0.08249   0.88232   0.52940   0.00000  Uiso   1.00
C1315  C     0.17634   0.85974   0.97793   0.00000  Uiso   1.00
C1316  C     0.16049   0.85394   0.52492   0.00000  Uiso   1.00
C1317  C     0.27115   0.92845   0.52493   0.00000  Uiso   1.00
C1318  C     0.08372   0.96105   0.96309   0.00000  Uiso   1.00
C1319  C     0.10702   0.76754   0.58680   0.00000  Uiso   1.00
C1320  C     0.18920   0.78491   0.90215   0.00000  Uiso   1.00
C1321  C     0.16400   0.90937   0.60074   0.00000  Uiso   1.00
C1322  C     0.19626   0.93047   0.91080   0.00000  Uiso   1.00
C1323  C     0.14644   0.88296   0.95762   0.00000  Uiso   1.00
C1324  C     0.24422   0.86287   0.52423   0.00000  Uiso   1.00
C1325  C     0.10050   0.89625   0.98434   0.00000  Uiso   1.00
C1326  C     0.29109   0.68753   0.77289   0.00000  Uiso   1.00
C1327  C     0.04227   0.97913   0.72664   0.00000  Uiso   1.00
C1328  C     0.29118   0.97815   0.77276   0.00000  Uiso   1.00
Cu1329 Cu    0.04689   0.83334   0.75000   0.00000  Uiso   1.00
Cu1330 Cu    0.28645   0.83333   0.75000   0.00000  Uiso   1.00
F1331  F     0.31204   0.89619   0.62892   0.00000  Uiso   1.00
F1332  F     0.13569   0.88908   0.69898   0.00000  Uiso   1.00
F1333  F     0.10208   0.77831   0.80236   0.00000  Uiso   1.00
F1334  F     0.23065   0.88926   0.69885   0.00000  Uiso   1.00
F1335  F     0.03894   0.83731   0.88879   0.00000  Uiso   1.00
F1336  F     0.00938   0.84821   0.97831   0.00000  Uiso   1.00
F1337  F     0.02044   0.93286   0.54911   0.00000  Uiso   1.00
F1338  F     0.25035   0.70726   0.79671   0.00000  Uiso   1.00
F1339  F     0.08298   0.95938   0.70282   0.00000  Uiso   1.00
F1340  F     0.25035   0.95737   0.79604   0.00000  Uiso   1.00
F1341  F     0.08286   0.70933   0.70309   0.00000  Uiso   1.00
F1342  F     0.19749   0.77780   0.80151   0.00000  Uiso   1.00
H1343  H     0.23797   0.93561   0.51479   0.00000  Uiso   1.00
H1344  H     0.17412   0.78149   0.93928   0.00000  Uiso   1.00
H1345  H     0.21925   0.76270   0.88906   0.00000  Uiso   1.00
H1346  H     0.15951   0.77692   0.88767   0.00000  Uiso   1.00
H1347  H     0.16347   0.92659   0.56973   0.00000  Uiso   1.00
H1348  H     0.18675   0.92707   0.61742   0.00000  Uiso   1.00
H1349  H     0.12622   0.90873   0.62334   0.00000  Uiso   1.00
H1350  H     0.23405   0.91912   0.90252   0.00000  Uiso   1.00
H1351  H     0.18824   0.94938   0.94184   0.00000  Uiso   1.00
H1352  H     0.19434   0.95130   0.88295   0.00000  Uiso   1.00
H1353  H     0.30317   0.93427   0.99530   0.00000  Uiso   1.00
H1354  H     0.27163   0.95069   0.55164   0.00000  Uiso   1.00
H1355  H     0.10844   0.96900   0.92939   0.00000  Uiso   1.00
H1356  H     0.10014   0.97077   0.98974   0.00000  Uiso   1.00
H1357  H     0.05031   0.97943   0.96755   0.00000  Uiso   1.00
H1358  H     0.12072   0.76760   0.54942   0.00000  Uiso   1.00
H1359  H     0.06776   0.75908   0.59834   0.00000  Uiso   1.00
H1360  H     0.12699   0.74340   0.59943   0.00000  Uiso   1.00
N1361  N     0.11736   0.83334   0.74999   0.00000  Uiso   1.00
N1362  N     0.21597   0.83332   0.75001   0.00000  Uiso   1.00
O1363  O     0.03958   0.77322   0.75000   0.00000  Uiso   1.00
O1364  O     0.07097   0.91879   0.96502   0.00000  Uiso   1.00
O1365  O     0.11558   0.80581   0.60427   0.00000  Uiso   1.00
O1366  O     0.20491   0.82564   0.88901   0.00000  Uiso   1.00
O1367  O     0.18148   0.86840   0.59400   0.00000  Uiso   1.00
O1368  O     0.16323   0.89732   0.91364   0.00000  Uiso   1.00
O1369  O     0.29375   0.89345   0.75000   0.00000  Uiso   1.00
O1370  O     0.29372   0.77321   0.75000   0.00000  Uiso   1.00
O1371  O     0.03961   0.89346   0.75000   0.00000  Uiso   1.00
O1372  O     0.01852   0.83334   0.81492   0.00000  Uiso   1.00
O1373  O     0.31481   0.83332   0.68508   0.00000  Uiso   1.00
O1374  O     0.27267   0.83333   0.81492   0.00000  Uiso   1.00
O1375  O     0.06067   0.83333   0.68508   0.00000  Uiso   1.00
O1376  O     0.27317   0.88766   0.54152   0.00000  Uiso   1.00
C1377  C     0.66657   0.75416   0.75002   0.00000  Uiso   1.00
C1378  C     0.37548   0.68853   0.72668   0.00000  Uiso   1.00
C1379  C     0.33350   0.95716   0.74978   0.00000  Uiso   1.00
C1380  C     0.66655   0.70951   0.74984   0.00000  Uiso   1.00
C1381  C     0.51631   0.80575   0.77575   0.00000  Uiso   1.00
C1382  C     0.48363   0.86098   0.72443   0.00000  Uiso   1.00
C1383  C     0.46689   0.80585   0.77591   0.00000  Uiso   1.00
C1384  C     0.53294   0.86103   0.72444   0.00000  Uiso   1.00
C1385  C     0.63878   0.83298   0.83627   0.00000  Uiso   1.00
C1386  C     0.36117   0.83564   0.66408   0.00000  Uiso   1.00
C1387  C     0.62279   0.83571   0.88592   0.00000  Uiso   1.00
C1388  C     0.33348   0.91251   0.74982   0.00000  Uiso   1.00
C1389  C     0.37743   0.84795   0.61637   0.00000  Uiso   1.00
C1390  C     0.64226   0.84688   0.95586   0.00000  Uiso   1.00
C1391  C     0.37241   0.89699   0.55850   0.00000  Uiso   1.00
C1392  C     0.65723   0.83998   0.90977   0.00000  Uiso   1.00
C1393  C     0.35278   0.87946   0.60110   0.00000  Uiso   1.00
C1394  C     0.57276   0.83656   0.90985   0.00000  Uiso   1.00
C1395  C     0.42324   0.83568   0.58902   0.00000  Uiso   1.00
C1396  C     0.55810   0.84893   0.95513   0.00000  Uiso   1.00
C1397  C     0.44404   0.85579   0.54727   0.00000  Uiso   1.00
C1398  C     0.59293   0.85187   0.97868   0.00000  Uiso   1.00
C1399  C     0.52849   0.85882   0.54866   0.00000  Uiso   1.00
C1400  C     0.41583   0.88232   0.52940   0.00000  Uiso   1.00
C1401  C     0.50968   0.85974   0.97793   0.00000  Uiso   1.00
C1402  C     0.49383   0.85394   0.52492   0.00000  Uiso   1.00
C1403  C     0.60448   0.92845   0.52493   0.00000  Uiso   1.00
C1404  C     0.41705   0.96105   0.96309   0.00000  Uiso   1.00
C1405  C     0.44035   0.76754   0.58680   0.00000  Uiso   1.00
C1406  C     0.52253   0.78491   0.90215   0.00000  Uiso   1.00
C1407  C     0.49733   0.90937   0.60074   0.00000  Uiso   1.00
C1408  C     0.52959   0.93047   0.91080   0.00000  Uiso   1.00
C1409  C     0.47978   0.88296   0.95762   0.00000  Uiso   1.00
C1410  C     0.57756   0.86287   0.52423   0.00000  Uiso   1.00
C1411  C     0.43383   0.89625   0.98434   0.00000  Uiso   1.00
C1412  C     0.62442   0.68753   0.77289   0.00000  Uiso   1.00
C1413  C     0.37561   0.97913   0.72664   0.00000  Uiso   1.00
C1414  C     0.62452   0.97815   0.77276   0.00000  Uiso   1.00
Cu1415 Cu    0.38022   0.83334   0.75000   0.00000  Uiso   1.00
Cu1416 Cu    0.61978   0.83333   0.75000   0.00000  Uiso   1.00
F1417  F     0.64538   0.89619   0.62892   0.00000  Uiso   1.00
F1418  F     0.46902   0.88908   0.69898   0.00000  Uiso   1.00
F1419  F     0.43542   0.77831   0.80236   0.00000  Uiso   1.00
F1420  F     0.56399   0.88926   0.69885   0.00000  Uiso   1.00
F1421  F     0.37228   0.83731   0.88879   0.00000  Uiso   1.00
F1422  F     0.34272   0.84821   0.97831   0.00000  Uiso   1.00
F1423  F     0.35377   0.93286   0.54911   0.00000  Uiso   1.00
F1424  F     0.58368   0.70726   0.79671   0.00000  Uiso   1.00
F1425  F     0.41632   0.95938   0.70282   0.00000  Uiso   1.00
F1426  F     0.58369   0.95737   0.79604   0.00000  Uiso   1.00
F1427  F     0.41619   0.70933   0.70309   0.00000  Uiso   1.00
F1428  F     0.53082   0.77780   0.80151   0.00000  Uiso   1.00
H1429  H     0.57130   0.93561   0.51479   0.00000  Uiso   1.00
H1430  H     0.50745   0.78149   0.93928   0.00000  Uiso   1.00
H1431  H     0.55258   0.76270   0.88906   0.00000  Uiso   1.00
H1432  H     0.49284   0.77692   0.88767   0.00000  Uiso   1.00
H1433  H     0.49680   0.92659   0.56973   0.00000  Uiso   1.00
H1434  H     0.52008   0.92707   0.61742   0.00000  Uiso   1.00
H1435  H     0.45955   0.90873   0.62334   0.00000  Uiso   1.00
H1436  H     0.56738   0.91912   0.90252   0.00000  Uiso   1.00
H1437  H     0.52157   0.94938   0.94184   0.00000  Uiso   1.00
H1438  H     0.52767   0.95130   0.88295   0.00000  Uiso   1.00
H1439  H     0.63650   0.93427   0.99530   0.00000  Uiso   1.00
H1440  H     0.60496   0.95069   0.55164   0.00000  Uiso   1.00
H1441  H     0.44177   0.96900   0.92939   0.00000  Uiso   1.00
H1442  H     0.43348   0.97077   0.98974   0.00000  Uiso   1.00
H1443  H     0.38364   0.97943   0.96755   0.00000  Uiso   1.00
H1444  H     0.45406   0.76760   0.54942   0.00000  Uiso   1.00
H1445  H     0.40109   0.75908   0.59834   0.00000  Uiso   1.00
H1446  H     0.46032   0.74340   0.59943   0.00000  Uiso   1.00
N1447  N     0.45069   0.83334   0.74999   0.00000  Uiso   1.00
N1448  N     0.54931   0.83332   0.75001   0.00000  Uiso   1.00
O1449  O     0.37291   0.77322   0.75000   0.00000  Uiso   1.00
O1450  O     0.40430   0.91879   0.96502   0.00000  Uiso   1.00
O1451  O     0.44891   0.80581   0.60427   0.00000  Uiso   1.00
O1452  O     0.53824   0.82564   0.88901   0.00000  Uiso   1.00
O1453  O     0.51481   0.86840   0.59400   0.00000  Uiso   1.00
O1454  O     0.49657   0.89732   0.91364   0.00000  Uiso   1.00
O1455  O     0.62709   0.89345   0.75000   0.00000  Uiso   1.00
O1456  O     0.62706   0.77321   0.75000   0.00000  Uiso   1.00
O1457  O     0.37294   0.89346   0.75000   0.00000  Uiso   1.00
O1458  O     0.35186   0.83334   0.81492   0.00000  Uiso   1.00
O1459  O     0.64814   0.83332   0.68508   0.00000  Uiso   1.00
O1460  O     0.60600   0.83333   0.81492   0.00000  Uiso   1.00
O1461  O     0.39400   0.83333   0.68508   0.00000  Uiso   1.00
O1462  O     0.60650   0.88766   0.54152   0.00000  Uiso   1.00
C1463  C     0.99990   0.75416   0.75002   0.00000  Uiso   1.00
C1464  C     0.70882   0.68853   0.72668   0.00000  Uiso   1.00
C1465  C     0.66684   0.95716   0.74978   0.00000  Uiso   1.00
C1466  C     0.99988   0.70951   0.74984   0.00000  Uiso   1.00
C1467  C     0.84964   0.80575   0.77575   0.00000  Uiso   1.00
C1468  C     0.81696   0.86098   0.72443   0.00000  Uiso   1.00
C1469  C     0.80022   0.80585   0.77591   0.00000  Uiso   1.00
C1470  C     0.86628   0.86103   0.72444   0.00000  Uiso   1.00
C1471  C     0.97211   0.83298   0.83627   0.00000  Uiso   1.00
C1472  C     0.69450   0.83564   0.66408   0.00000  Uiso   1.00
C1473  C     0.95613   0.83571   0.88592   0.00000  Uiso   1.00
C1474  C     0.66681   0.91251   0.74982   0.00000  Uiso   1.00
C1475  C     0.71076   0.84795   0.61637   0.00000  Uiso   1.00
C1476  C     0.97559   0.84688   0.95586   0.00000  Uiso   1.00
C1477  C     0.70575   0.89699   0.55850   0.00000  Uiso   1.00
C1478  C     0.99056   0.83998   0.90977   0.00000  Uiso   1.00
C1479  C     0.68612   0.87946   0.60110   0.00000  Uiso   1.00
C1480  C     0.90610   0.83656   0.90985   0.00000  Uiso   1.00
C1481  C     0.75658   0.83568   0.58902   0.00000  Uiso   1.00
C1482  C     0.89143   0.84893   0.95513   0.00000  Uiso   1.00
C1483  C     0.77737   0.85579   0.54727   0.00000  Uiso   1.00
C1484  C     0.92626   0.85187   0.97868   0.00000  Uiso   1.00
C1485  C     0.86183   0.85882   0.54866   0.00000  Uiso   1.00
C1486  C     0.74916   0.88232   0.52940   0.00000  Uiso   1.00
C1487  C     0.84301   0.85974   0.97793   0.00000  Uiso   1.00
C1488  C     0.82716   0.85394   0.52492   0.00000  Uiso   1.00
C1489  C     0.93782   0.92845   0.52493   0.00000  Uiso   1.00
C1490  C     0.75038   0.96105   0.96309   0.00000  Uiso   1.00
C1491  C     0.77369   0.76754   0.58680   0.00000  Uiso   1.00
C1492  C     0.85586   0.78491   0.90215   0.00000  Uiso   1.00
C1493  C     0.83067   0.90937   0.60074   0.00000  Uiso   1.00
C1494  C     0.86293   0.93047   0.91080   0.00000  Uiso   1.00
C1495  C     0.81311   0.88296   0.95762   0.00000  Uiso   1.00
C1496  C     0.91089   0.86287   0.52423   0.00000  Uiso   1.00
C1497  C     0.76717   0.89625   0.98434   0.00000  Uiso   1.00
C1498  C     0.95775   0.68753   0.77289   0.00000  Uiso   1.00
C1499  C     0.70894   0.97913   0.72664   0.00000  Uiso   1.00
C1500  C     0.95785   0.97815   0.77276   0.00000  Uiso   1.00
Cu1501 Cu    0.71355   0.83334   0.75000   0.00000  Uiso   1.00
Cu1502 Cu    0.95311   0.83333   0.75000   0.00000  Uiso   1.00
F1503  F     0.97871   0.89619   0.62892   0.00000  Uiso   1.00
F1504  F     0.80236   0.88908   0.69898   0.00000  Uiso   1.00
F1505  F     0.76875   0.77831   0.80236   0.00000  Uiso   1.00
F1506  F     0.89732   0.88926   0.69885   0.00000  Uiso   1.00
F1507  F     0.70561   0.83731   0.88879   0.00000  Uiso   1.00
F1508  F     0.67605   0.84821   0.97831   0.00000  Uiso   1.00
F1509  F     0.68711   0.93286   0.54911   0.00000  Uiso   1.00
F1510  F     0.91702   0.70726   0.79671   0.00000  Uiso   1.00
F1511  F     0.74965   0.95938   0.70282   0.00000  Uiso   1.00
F1512  F     0.91702   0.95737   0.79604   0.00000  Uiso   1.00
F1513  F     0.74953   0.70933   0.70309   0.00000  Uiso   1.00
F1514  F     0.86416   0.77780   0.80151   0.00000  Uiso   1.00
H1515  H     0.90464   0.93561   0.51479   0.00000  Uiso   1.00
H1516  H     0.84078   0.78149   0.93928   0.00000  Uiso   1.00
H1517  H     0.88592   0.76270   0.88906   0.00000  Uiso   1.00
H1518  H     0.82618   0.77692   0.88767   0.00000  Uiso   1.00
H1519  H     0.83014   0.92659   0.56973   0.00000  Uiso   1.00
H1520  H     0.85341   0.92707   0.61742   0.00000  Uiso   1.00
H1521  H     0.79288   0.90873   0.62334   0.00000  Uiso   1.00
H1522  H     0.90071   0.91912   0.90252   0.00000  Uiso   1.00
H1523  H     0.85491   0.94938   0.94184   0.00000  Uiso   1.00
H1524  H     0.86101   0.95130   0.88295   0.00000  Uiso   1.00
H1525  H     0.96983   0.93427   0.99530   0.00000  Uiso   1.00
H1526  H     0.93830   0.95069   0.55164   0.00000  Uiso   1.00
H1527  H     0.77511   0.96900   0.92939   0.00000  Uiso   1.00
H1528  H     0.76681   0.97077   0.98974   0.00000  Uiso   1.00
H1529  H     0.71697   0.97943   0.96755   0.00000  Uiso   1.00
H1530  H     0.78739   0.76760   0.54942   0.00000  Uiso   1.00
H1531  H     0.73443   0.75908   0.59834   0.00000  Uiso   1.00
H1532  H     0.79365   0.74340   0.59943   0.00000  Uiso   1.00
N1533  N     0.78403   0.83334   0.74999   0.00000  Uiso   1.00
N1534  N     0.88264   0.83332   0.75001   0.00000  Uiso   1.00
O1535  O     0.70625   0.77322   0.75000   0.00000  Uiso   1.00
O1536  O     0.73763   0.91879   0.96502   0.00000  Uiso   1.00
O1537  O     0.78225   0.80581   0.60427   0.00000  Uiso   1.00
O1538  O     0.87157   0.82564   0.88901   0.00000  Uiso   1.00
O1539  O     0.84815   0.86840   0.59400   0.00000  Uiso   1.00
O1540  O     0.82990   0.89732   0.91364   0.00000  Uiso   1.00
O1541  O     0.96042   0.89345   0.75000   0.00000  Uiso   1.00
O1542  O     0.96039   0.77321   0.75000   0.00000  Uiso   1.00
O1543  O     0.70628   0.89346   0.75000   0.00000  Uiso   1.00
O1544  O     0.68519   0.83334   0.81492   0.00000  Uiso   1.00
O1545  O     0.98148   0.83332   0.68508   0.00000  Uiso   1.00
O1546  O     0.93933   0.83333   0.81492   0.00000  Uiso   1.00
O1547  O     0.72733   0.83333   0.68508   0.00000  Uiso   1.00
O1548  O     0.93984   0.88766   0.54152   0.00000  Uiso   1.00
loop_
_geom_bond_atom_site_label_1
_geom_bond_atom_site_label_2
_geom_bond_distance
_geom_bond_site_symmetry_2
_ccdc_geom_bond_type
C1     C4      1.448   .     S
C1     O80     1.298   .     A
C1     O159    1.297   .     S
C2     F51     1.359   .     S
C2     C176    1.403   1_455 S
C2     C553    1.385   1_545 S
C3     C12     1.448   .     S
C3     C37     1.402   .     A
C3     C210    1.402   1_455 S
C4     C36     1.402   .     A
C4     C88     1.403   .     S
C5     N72     1.369   .     A
C5     F52     1.352   .     S
C5     C7      1.423   .     A
C6     N71     1.368   .     A
C6     C8      1.421   .     A
C6     F42     1.350   .     S
C7     N71     1.370   .     A
C7     F43     1.355   .     S
C8     N72     1.370   .     A
C8     F44     1.353   .     S
C9     C11     1.481   .     S
C9     O84     1.305   .     A
C9     O168    1.307   .     S
C10    O85     1.301   .     A
C10    C13     1.471   .     S
C10    O255    1.305   1_455 S
C11    C18     1.415   .     A
C11    C16     1.411   .     A
C12    O81     1.298   .     A
C12    O251    1.297   1_455 S
C13    C19     1.406   .     A
C13    C17     1.404   .     A
C14    C16     1.392   .     A
C14    C22     1.401   .     A
C14    F132    1.356   .     S
C15    F47     1.349   .     S
C15    C24     1.400   .     A
C15    C17     1.394   .     A
C16    F131    1.358   .     S
C17    F213    1.356   1_455 S
C18    O76     1.384   .     S
C18    C20     1.410   .     A
C19    C21     1.413   .     A
C19    O75     1.384   .     S
C20    C25     1.414   .     A
C20    C22     1.410   .     A
C21    C26     1.400   .     A
C21    C24     1.405   .     A
C22    C808    1.406   .     S
C23    C26     1.416   .     A
C23    C34     1.399   .     A
C23    O77     1.388   .     S
C24    C809    1.414   1_554 S
C25    C33     1.424   .     A
C25    C800    1.409   .     S
C26    C799    1.409   1_554 S
C27    O86     1.423   .     S
C27    H53     1.117   .     S
C27    H64     1.109   .     S
C27    H837    1.110   1_554 S
C28    O74     1.413   .     S
C28    H67     1.109   .     S
C28    H66     1.116   .     S
C28    H65     1.108   .     S
C29    H69     1.114   .     S
C29    H68     1.113   .     S
C29    H70     1.109   .     S
C29    O75     1.409   .     S
C30    H54     1.113   .     S
C30    H56     1.109   .     S
C30    O76     1.411   .     S
C30    H55     1.113   .     S
C31    H58     1.109   .     S
C31    H59     1.109   .     S
C31    O77     1.419   .     S
C31    H57     1.115   .     S
C32    H61     1.116   .     S
C32    H60     1.108   .     S
C32    H62     1.109   .     S
C32    O78     1.417   .     S
C33    O78     1.386   .     S
C33    C35     1.412   .     A
C34    O86     1.377   .     S
C34    C796    1.406   1_554 S
C35    O74     1.386   .     S
C35    C798    1.414   .     S
C36    F48     1.357   .     S
C36    C554    1.385   1_545 S
C37    F49     1.357   .     S
C37    C260    1.385   .     S
C38    F50     1.358   .     S
C38    C89     1.402   .     S
C38    C294    1.385   .     S
Cu39   N71     2.031   .     S
Cu39   O81     1.962   .     S
Cu39   O82     1.945   .     S
Cu39   O73     1.960   .     S
Cu39   O85     1.942   .     S
Cu39   Cu212   2.702   1_455 S
Cu40   O84     1.942   .     S
Cu40   O80     1.962   .     S
Cu40   O83     1.945   .     S
Cu40   O79     1.960   .     S
Cu40   N72     2.031   .     S
Cu40   Cu125   2.702   .     S
F41    C103    1.356   .     S
F45    C188    1.358   1_455 S
F46    C186    1.356   1_455 S
H63    C801    1.110   .     S
O73    C173    1.297   1_455 S
O79    C98     1.297   .     S
O82    C181    1.307   1_455 S
O83    C96     1.305   .     S
C87    C90     1.448   .     S
C87    O166    1.298   .     A
C87    O245    1.297   .     S
C88    F137    1.359   .     S
C88    C639    1.385   1_545 S
C89    C98     1.448   .     S
C89    C123    1.402   .     A
C90    C122    1.402   .     A
C90    C174    1.403   .     S
C91    N158    1.369   .     A
C91    F138    1.352   .     S
C91    C93     1.423   .     A
C92    N157    1.368   .     A
C92    C94     1.421   .     A
C92    F128    1.350   .     S
C93    N157    1.370   .     A
C93    F129    1.355   .     S
C94    N158    1.370   .     A
C94    F130    1.353   .     S
C95    C97     1.481   .     S
C95    O170    1.305   .     A
C95    O254    1.307   .     S
C96    O171    1.301   .     A
C96    C99     1.471   .     S
C97    C104    1.415   .     A
C97    C102    1.411   .     A
C98    O167    1.298   .     A
C99    C105    1.406   .     A
C99    C103    1.404   .     A
C100   C102    1.392   .     A
C100   C108    1.401   .     A
C100   F218    1.356   .     S
C101   F133    1.349   .     S
C101   C110    1.400   .     A
C101   C103    1.394   .     A
C102   F217    1.358   .     S
C104   O162    1.384   .     S
C104   C106    1.410   .     A
C105   C107    1.413   .     A
C105   O161    1.384   .     S
C106   C111    1.414   .     A
C106   C108    1.410   .     A
C107   C112    1.400   .     A
C107   C110    1.405   .     A
C108   C894    1.406   .     S
C109   C112    1.416   .     A
C109   C120    1.399   .     A
C109   O163    1.388   .     S
C110   C895    1.414   1_554 S
C111   C119    1.424   .     A
C111   C886    1.409   .     S
C112   C885    1.409   1_554 S
C113   O172    1.423   .     S
C113   H139    1.117   .     S
C113   H150    1.109   .     S
C113   H923    1.110   1_554 S
C114   O160    1.413   .     S
C114   H153    1.109   .     S
C114   H152    1.116   .     S
C114   H151    1.108   .     S
C115   H155    1.114   .     S
C115   H154    1.113   .     S
C115   H156    1.109   .     S
C115   O161    1.409   .     S
C116   H140    1.113   .     S
C116   H142    1.109   .     S
C116   O162    1.411   .     S
C116   H141    1.113   .     S
C117   H144    1.109   .     S
C117   H145    1.109   .     S
C117   O163    1.419   .     S
C117   H143    1.115   .     S
C118   H147    1.116   .     S
C118   H146    1.108   .     S
C118   H148    1.109   .     S
C118   O164    1.417   .     S
C119   O164    1.386   .     S
C119   C121    1.412   .     A
C120   O172    1.377   .     S
C120   C882    1.406   1_554 S
C121   O160    1.386   .     S
C121   C884    1.414   .     S
C122   F134    1.357   .     S
C122   C640    1.385   1_545 S
C123   F135    1.357   .     S
C123   C346    1.385   .     S
C124   F136    1.358   .     S
C124   C175    1.402   .     S
C124   C380    1.385   .     S
Cu125  N157    2.031   .     S
Cu125  O167    1.962   .     S
Cu125  O168    1.945   .     S
Cu125  O159    1.960   .     S
Cu125  O171    1.942   .     S
Cu126  O170    1.942   .     S
Cu126  O166    1.962   .     S
Cu126  O169    1.945   .     S
Cu126  O165    1.960   .     S
Cu126  N158    2.031   .     S
Cu126  Cu211   2.702   .     S
F127   C189    1.356   .     S
H149   C887    1.110   .     S
O165   C184    1.297   .     S
O169   C182    1.305   .     S
C173   C176    1.448   .     S
C173   O252    1.298   .     A
C173   O73     1.297   1_655 S
C174   F223    1.359   .     S
C174   C725    1.385   1_545 S
C175   C184    1.448   .     S
C175   C209    1.402   .     A
C176   C208    1.402   .     A
C176   C2      1.403   1_655 S
C177   N244    1.369   .     A
C177   F224    1.352   .     S
C177   C179    1.423   .     A
C178   N243    1.368   .     A
C178   C180    1.421   .     A
C178   F214    1.350   .     S
C179   N243    1.370   .     A
C179   F215    1.355   .     S
C180   N244    1.370   .     A
C180   F216    1.353   .     S
C181   C183    1.481   .     S
C181   O256    1.305   .     A
C181   O82     1.307   1_655 S
C182   O257    1.301   .     A
C182   C185    1.471   .     S
C183   C190    1.415   .     A
C183   C188    1.411   .     A
C184   O253    1.298   .     A
C185   C191    1.406   .     A
C185   C189    1.404   .     A
C186   C188    1.392   .     A
C186   C194    1.401   .     A
C186   F46     1.356   1_655 S
C187   F219    1.349   .     S
C187   C196    1.400   .     A
C187   C189    1.394   .     A
C188   F45     1.358   1_655 S
C190   O248    1.384   .     S
C190   C192    1.410   .     A
C191   C193    1.413   .     A
C191   O247    1.384   .     S
C192   C197    1.414   .     A
C192   C194    1.410   .     A
C193   C198    1.400   .     A
C193   C196    1.405   .     A
C194   C980    1.406   .     S
C195   C198    1.416   .     A
C195   C206    1.399   .     A
C195   O249    1.388   .     S
C196   C981    1.414   1_554 S
C197   C205    1.424   .     A
C197   C972    1.409   .     S
C198   C971    1.409   1_554 S
C199   O258    1.423   .     S
C199   H225    1.117   .     S
C199   H236    1.109   .     S
C199   H1009   1.110   1_554 S
C200   O246    1.413   .     S
C200   H239    1.109   .     S
C200   H238    1.116   .     S
C200   H237    1.108   .     S
C201   H241    1.114   .     S
C201   H240    1.113   .     S
C201   H242    1.109   .     S
C201   O247    1.409   .     S
C202   H226    1.113   .     S
C202   H228    1.109   .     S
C202   O248    1.411   .     S
C202   H227    1.113   .     S
C203   H230    1.109   .     S
C203   H231    1.109   .     S
C203   O249    1.419   .     S
C203   H229    1.115   .     S
C204   H233    1.116   .     S
C204   H232    1.108   .     S
C204   H234    1.109   .     S
C204   O250    1.417   .     S
C205   O250    1.386   .     S
C205   C207    1.412   .     A
C206   O258    1.377   .     S
C206   C968    1.406   1_554 S
C207   O246    1.386   .     S
C207   C970    1.414   .     S
C208   F220    1.357   .     S
C208   C726    1.385   1_545 S
C209   F221    1.357   .     S
C209   C432    1.385   .     S
C210   F222    1.358   .     S
C210   C3      1.402   1_655 S
C210   C466    1.385   .     S
Cu211  N243    2.031   .     S
Cu211  O253    1.962   .     S
Cu211  O254    1.945   .     S
Cu211  O245    1.960   .     S
Cu211  O257    1.942   .     S
Cu212  O256    1.942   .     S
Cu212  O252    1.962   .     S
Cu212  O255    1.945   .     S
Cu212  O251    1.960   .     S
Cu212  N244    2.031   .     S
Cu212  Cu39    2.702   1_655 S
F213   C17     1.356   1_655 S
H235   C973    1.110   .     S
O251   C12     1.297   1_655 S
O255   C10     1.305   1_655 S
C259   C262    1.448   .     S
C259   O338    1.298   .     A
C259   O417    1.297   .     S
C260   F309    1.359   .     S
C260   C434    1.403   1_455 S
C261   C270    1.448   .     S
C261   C295    1.402   .     A
C261   C468    1.402   1_455 S
C262   C294    1.402   .     A
C262   C346    1.403   .     S
C263   N330    1.369   .     A
C263   F310    1.352   .     S
C263   C265    1.423   .     A
C264   N329    1.368   .     A
C264   C266    1.421   .     A
C264   F300    1.350   .     S
C265   N329    1.370   .     A
C265   F301    1.355   .     S
C266   N330    1.370   .     A
C266   F302    1.353   .     S
C267   C269    1.481   .     S
C267   O342    1.305   .     A
C267   O426    1.307   .     S
C268   O343    1.301   .     A
C268   C271    1.471   .     S
C268   O513    1.305   1_455 S
C269   C276    1.415   .     A
C269   C274    1.411   .     A
C270   O339    1.298   .     A
C270   O509    1.297   1_455 S
C271   C277    1.406   .     A
C271   C275    1.404   .     A
C272   C274    1.392   .     A
C272   C280    1.401   .     A
C272   F390    1.356   .     S
C273   F305    1.349   .     S
C273   C282    1.400   .     A
C273   C275    1.394   .     A
C274   F389    1.358   .     S
C275   F471    1.356   1_455 S
C276   O334    1.384   .     S
C276   C278    1.410   .     A
C277   C279    1.413   .     A
C277   O333    1.384   .     S
C278   C283    1.414   .     A
C278   C280    1.410   .     A
C279   C284    1.400   .     A
C279   C282    1.405   .     A
C280   C1066   1.406   .     S
C281   C284    1.416   .     A
C281   C292    1.399   .     A
C281   O335    1.388   .     S
C282   C1067   1.414   1_554 S
C283   C291    1.424   .     A
C283   C1058   1.409   .     S
C284   C1057   1.409   1_554 S
C285   O344    1.423   .     S
C285   H311    1.117   .     S
C285   H322    1.109   .     S
C285   H1095   1.110   1_554 S
C286   O332    1.413   .     S
C286   H325    1.109   .     S
C286   H324    1.116   .     S
C286   H323    1.108   .     S
C287   H327    1.114   .     S
C287   H326    1.113   .     S
C287   H328    1.109   .     S
C287   O333    1.409   .     S
C288   H312    1.113   .     S
C288   H314    1.109   .     S
C288   O334    1.411   .     S
C288   H313    1.113   .     S
C289   H316    1.109   .     S
C289   H317    1.109   .     S
C289   O335    1.419   .     S
C289   H315    1.115   .     S
C290   H319    1.116   .     S
C290   H318    1.108   .     S
C290   H320    1.109   .     S
C290   O336    1.417   .     S
C291   O336    1.386   .     S
C291   C293    1.412   .     A
C292   O344    1.377   .     S
C292   C1054   1.406   1_554 S
C293   O332    1.386   .     S
C293   C1056   1.414   .     S
C294   F306    1.357   .     S
C295   F307    1.357   .     S
C295   C518    1.385   .     S
C296   F308    1.358   .     S
C296   C347    1.402   .     S
C296   C552    1.385   .     S
Cu297  N329    2.031   .     S
Cu297  O339    1.962   .     S
Cu297  O340    1.945   .     S
Cu297  O331    1.960   .     S
Cu297  O343    1.942   .     S
Cu297  Cu470   2.702   1_455 S
Cu298  O342    1.942   .     S
Cu298  O338    1.962   .     S
Cu298  O341    1.945   .     S
Cu298  O337    1.960   .     S
Cu298  N330    2.031   .     S
Cu298  Cu383   2.702   .     S
F299   C361    1.356   .     S
F303   C446    1.358   1_455 S
F304   C444    1.356   1_455 S
H321   C1059   1.110   .     S
O331   C431    1.297   1_455 S
O337   C356    1.297   .     S
O340   C439    1.307   1_455 S
O341   C354    1.305   .     S
C345   C348    1.448   .     S
C345   O424    1.298   .     A
C345   O503    1.297   .     S
C346   F395    1.359   .     S
C347   C356    1.448   .     S
C347   C381    1.402   .     A
C348   C380    1.402   .     A
C348   C432    1.403   .     S
C349   N416    1.369   .     A
C349   F396    1.352   .     S
C349   C351    1.423   .     A
C350   N415    1.368   .     A
C350   C352    1.421   .     A
C350   F386    1.350   .     S
C351   N415    1.370   .     A
C351   F387    1.355   .     S
C352   N416    1.370   .     A
C352   F388    1.353   .     S
C353   C355    1.481   .     S
C353   O428    1.305   .     A
C353   O512    1.307   .     S
C354   O429    1.301   .     A
C354   C357    1.471   .     S
C355   C362    1.415   .     A
C355   C360    1.411   .     A
C356   O425    1.298   .     A
C357   C363    1.406   .     A
C357   C361    1.404   .     A
C358   C360    1.392   .     A
C358   C366    1.401   .     A
C358   F476    1.356   .     S
C359   F391    1.349   .     S
C359   C368    1.400   .     A
C359   C361    1.394   .     A
C360   F475    1.358   .     S
C362   O420    1.384   .     S
C362   C364    1.410   .     A
C363   C365    1.413   .     A
C363   O419    1.384   .     S
C364   C369    1.414   .     A
C364   C366    1.410   .     A
C365   C370    1.400   .     A
C365   C368    1.405   .     A
C366   C1152   1.406   .     S
C367   C370    1.416   .     A
C367   C378    1.399   .     A
C367   O421    1.388   .     S
C368   C1153   1.414   1_554 S
C369   C377    1.424   .     A
C369   C1144   1.409   .     S
C370   C1143   1.409   1_554 S
C371   O430    1.423   .     S
C371   H397    1.117   .     S
C371   H408    1.109   .     S
C371   H1181   1.110   1_554 S
C372   O418    1.413   .     S
C372   H411    1.109   .     S
C372   H410    1.116   .     S
C372   H409    1.108   .     S
C373   H413    1.114   .     S
C373   H412    1.113   .     S
C373   H414    1.109   .     S
C373   O419    1.409   .     S
C374   H398    1.113   .     S
C374   H400    1.109   .     S
C374   O420    1.411   .     S
C374   H399    1.113   .     S
C375   H402    1.109   .     S
C375   H403    1.109   .     S
C375   O421    1.419   .     S
C375   H401    1.115   .     S
C376   H405    1.116   .     S
C376   H404    1.108   .     S
C376   H406    1.109   .     S
C376   O422    1.417   .     S
C377   O422    1.386   .     S
C377   C379    1.412   .     A
C378   O430    1.377   .     S
C378   C1140   1.406   1_554 S
C379   O418    1.386   .     S
C379   C1142   1.414   .     S
C380   F392    1.357   .     S
C381   F393    1.357   .     S
C381   C604    1.385   .     S
C382   F394    1.358   .     S
C382   C433    1.402   .     S
C382   C638    1.385   .     S
Cu383  N415    2.031   .     S
Cu383  O425    1.962   .     S
Cu383  O426    1.945   .     S
Cu383  O417    1.960   .     S
Cu383  O429    1.942   .     S
Cu384  O428    1.942   .     S
Cu384  O424    1.962   .     S
Cu384  O427    1.945   .     S
Cu384  O423    1.960   .     S
Cu384  N416    2.031   .     S
Cu384  Cu469   2.702   .     S
F385   C447    1.356   .     S
H407   C1145   1.110   .     S
O423   C442    1.297   .     S
O427   C440    1.305   .     S
C431   C434    1.448   .     S
C431   O510    1.298   .     A
C431   O331    1.297   1_655 S
C432   F481    1.359   .     S
C433   C442    1.448   .     S
C433   C467    1.402   .     A
C434   C466    1.402   .     A
C434   C260    1.403   1_655 S
C435   N502    1.369   .     A
C435   F482    1.352   .     S
C435   C437    1.423   .     A
C436   N501    1.368   .     A
C436   C438    1.421   .     A
C436   F472    1.350   .     S
C437   N501    1.370   .     A
C437   F473    1.355   .     S
C438   N502    1.370   .     A
C438   F474    1.353   .     S
C439   C441    1.481   .     S
C439   O514    1.305   .     A
C439   O340    1.307   1_655 S
C440   O515    1.301   .     A
C440   C443    1.471   .     S
C441   C448    1.415   .     A
C441   C446    1.411   .     A
C442   O511    1.298   .     A
C443   C449    1.406   .     A
C443   C447    1.404   .     A
C444   C446    1.392   .     A
C444   C452    1.401   .     A
C444   F304    1.356   1_655 S
C445   F477    1.349   .     S
C445   C454    1.400   .     A
C445   C447    1.394   .     A
C446   F303    1.358   1_655 S
C448   O506    1.384   .     S
C448   C450    1.410   .     A
C449   C451    1.413   .     A
C449   O505    1.384   .     S
C450   C455    1.414   .     A
C450   C452    1.410   .     A
C451   C456    1.400   .     A
C451   C454    1.405   .     A
C452   C1238   1.406   .     S
C453   C456    1.416   .     A
C453   C464    1.399   .     A
C453   O507    1.388   .     S
C454   C1239   1.414   1_554 S
C455   C463    1.424   .     A
C455   C1230   1.409   .     S
C456   C1229   1.409   1_554 S
C457   O516    1.423   .     S
C457   H483    1.117   .     S
C457   H494    1.109   .     S
C457   H1267   1.110   1_554 S
C458   O504    1.413   .     S
C458   H497    1.109   .     S
C458   H496    1.116   .     S
C458   H495    1.108   .     S
C459   H499    1.114   .     S
C459   H498    1.113   .     S
C459   H500    1.109   .     S
C459   O505    1.409   .     S
C460   H484    1.113   .     S
C460   H486    1.109   .     S
C460   O506    1.411   .     S
C460   H485    1.113   .     S
C461   H488    1.109   .     S
C461   H489    1.109   .     S
C461   O507    1.419   .     S
C461   H487    1.115   .     S
C462   H491    1.116   .     S
C462   H490    1.108   .     S
C462   H492    1.109   .     S
C462   O508    1.417   .     S
C463   O508    1.386   .     S
C463   C465    1.412   .     A
C464   O516    1.377   .     S
C464   C1226   1.406   1_554 S
C465   O504    1.386   .     S
C465   C1228   1.414   .     S
C466   F478    1.357   .     S
C467   F479    1.357   .     S
C467   C690    1.385   .     S
C468   F480    1.358   .     S
C468   C261    1.402   1_655 S
C468   C724    1.385   .     S
Cu469  N501    2.031   .     S
Cu469  O511    1.962   .     S
Cu469  O512    1.945   .     S
Cu469  O503    1.960   .     S
Cu469  O515    1.942   .     S
Cu470  O514    1.942   .     S
Cu470  O510    1.962   .     S
Cu470  O513    1.945   .     S
Cu470  O509    1.960   .     S
Cu470  N502    2.031   .     S
Cu470  Cu297   2.702   1_655 S
F471   C275    1.356   1_655 S
H493   C1231   1.110   .     S
O509   C270    1.297   1_655 S
O513   C268    1.305   1_655 S
C517   C520    1.448   .     S
C517   O596    1.298   .     A
C517   O675    1.297   .     S
C518   F567    1.359   .     S
C518   C692    1.403   1_455 S
C519   C528    1.448   .     S
C519   C553    1.402   .     A
C519   C726    1.402   1_455 S
C520   C552    1.402   .     A
C520   C604    1.403   .     S
C521   N588    1.369   .     A
C521   F568    1.352   .     S
C521   C523    1.423   .     A
C522   N587    1.368   .     A
C522   C524    1.421   .     A
C522   F558    1.350   .     S
C523   N587    1.370   .     A
C523   F559    1.355   .     S
C524   N588    1.370   .     A
C524   F560    1.353   .     S
C525   C527    1.481   .     S
C525   O600    1.305   .     A
C525   O684    1.307   .     S
C526   O601    1.301   .     A
C526   C529    1.471   .     S
C526   O771    1.305   1_455 S
C527   C534    1.415   .     A
C527   C532    1.411   .     A
C528   O597    1.298   .     A
C528   O767    1.297   1_455 S
C529   C535    1.406   .     A
C529   C533    1.404   .     A
C530   C532    1.392   .     A
C530   C538    1.401   .     A
C530   F648    1.356   .     S
C531   F563    1.349   .     S
C531   C540    1.400   .     A
C531   C533    1.394   .     A
C532   F647    1.358   .     S
C533   F729    1.356   1_455 S
C534   O592    1.384   .     S
C534   C536    1.410   .     A
C535   C537    1.413   .     A
C535   O591    1.384   .     S
C536   C541    1.414   .     A
C536   C538    1.410   .     A
C537   C542    1.400   .     A
C537   C540    1.405   .     A
C538   C1324   1.406   .     S
C539   C542    1.416   .     A
C539   C550    1.399   .     A
C539   O593    1.388   .     S
C540   C1325   1.414   1_554 S
C541   C549    1.424   .     A
C541   C1316   1.409   .     S
C542   C1315   1.409   1_554 S
C543   O602    1.423   .     S
C543   H569    1.117   .     S
C543   H580    1.109   .     S
C543   H1353   1.110   1_554 S
C544   O590    1.413   .     S
C544   H583    1.109   .     S
C544   H582    1.116   .     S
C544   H581    1.108   .     S
C545   H585    1.114   .     S
C545   H584    1.113   .     S
C545   H586    1.109   .     S
C545   O591    1.409   .     S
C546   H570    1.113   .     S
C546   H572    1.109   .     S
C546   O592    1.411   .     S
C546   H571    1.113   .     S
C547   H574    1.109   .     S
C547   H575    1.109   .     S
C547   O593    1.419   .     S
C547   H573    1.115   .     S
C548   H577    1.116   .     S
C548   H576    1.108   .     S
C548   H578    1.109   .     S
C548   O594    1.417   .     S
C549   O594    1.386   .     S
C549   C551    1.412   .     A
C550   O602    1.377   .     S
C550   C1312   1.406   1_554 S
C551   O590    1.386   .     S
C551   C1314   1.414   .     S
C552   F564    1.357   .     S
C553   F565    1.357   .     S
C553   C2      1.385   1_565 S
C554   F566    1.358   .     S
C554   C605    1.402   .     S
C554   C36     1.385   1_565 S
Cu555  N587    2.031   .     S
Cu555  O597    1.962   .     S
Cu555  O598    1.945   .     S
Cu555  O589    1.960   .     S
Cu555  O601    1.942   .     S
Cu555  Cu728   2.702   1_455 S
Cu556  O600    1.942   .     S
Cu556  O596    1.962   .     S
Cu556  O599    1.945   .     S
Cu556  O595    1.960   .     S
Cu556  N588    2.031   .     S
Cu556  Cu641   2.702   .     S
F557   C619    1.356   .     S
F561   C704    1.358   1_455 S
F562   C702    1.356   1_455 S
H579   C1317   1.110   .     S
O589   C689    1.297   1_455 S
O595   C614    1.297   .     S
O598   C697    1.307   1_455 S
O599   C612    1.305   .     S
C603   C606    1.448   .     S
C603   O682    1.298   .     A
C603   O761    1.297   .     S
C604   F653    1.359   .     S
C605   C614    1.448   .     S
C605   C639    1.402   .     A
C606   C638    1.402   .     A
C606   C690    1.403   .     S
C607   N674    1.369   .     A
C607   F654    1.352   .     S
C607   C609    1.423   .     A
C608   N673    1.368   .     A
C608   C610    1.421   .     A
C608   F644    1.350   .     S
C609   N673    1.370   .     A
C609   F645    1.355   .     S
C610   N674    1.370   .     A
C610   F646    1.353   .     S
C611   C613    1.481   .     S
C611   O686    1.305   .     A
C611   O770    1.307   .     S
C612   O687    1.301   .     A
C612   C615    1.471   .     S
C613   C620    1.415   .     A
C613   C618    1.411   .     A
C614   O683    1.298   .     A
C615   C621    1.406   .     A
C615   C619    1.404   .     A
C616   C618    1.392   .     A
C616   C624    1.401   .     A
C616   F734    1.356   .     S
C617   F649    1.349   .     S
C617   C626    1.400   .     A
C617   C619    1.394   .     A
C618   F733    1.358   .     S
C620   O678    1.384   .     S
C620   C622    1.410   .     A
C621   C623    1.413   .     A
C621   O677    1.384   .     S
C622   C627    1.414   .     A
C622   C624    1.410   .     A
C623   C628    1.400   .     A
C623   C626    1.405   .     A
C624   C1410   1.406   .     S
C625   C628    1.416   .     A
C625   C636    1.399   .     A
C625   O679    1.388   .     S
C626   C1411   1.414   1_554 S
C627   C635    1.424   .     A
C627   C1402   1.409   .     S
C628   C1401   1.409   1_554 S
C629   O688    1.423   .     S
C629   H655    1.117   .     S
C629   H666    1.109   .     S
C629   H1439   1.110   1_554 S
C630   O676    1.413   .     S
C630   H669    1.109   .     S
C630   H668    1.116   .     S
C630   H667    1.108   .     S
C631   H671    1.114   .     S
C631   H670    1.113   .     S
C631   H672    1.109   .     S
C631   O677    1.409   .     S
C632   H656    1.113   .     S
C632   H658    1.109   .     S
C632   O678    1.411   .     S
C632   H657    1.113   .     S
C633   H660    1.109   .     S
C633   H661    1.109   .     S
C633   O679    1.419   .     S
C633   H659    1.115   .     S
C634   H663    1.116   .     S
C634   H662    1.108   .     S
C634   H664    1.109   .     S
C634   O680    1.417   .     S
C635   O680    1.386   .     S
C635   C637    1.412   .     A
C636   O688    1.377   .     S
C636   C1398   1.406   1_554 S
C637   O676    1.386   .     S
C637   C1400   1.414   .     S
C638   F650    1.357   .     S
C639   F651    1.357   .     S
C639   C88     1.385   1_565 S
C640   F652    1.358   .     S
C640   C691    1.402   .     S
C640   C122    1.385   1_565 S
Cu641  N673    2.031   .     S
Cu641  O683    1.962   .     S
Cu641  O684    1.945   .     S
Cu641  O675    1.960   .     S
Cu641  O687    1.942   .     S
Cu642  O686    1.942   .     S
Cu642  O682    1.962   .     S
Cu642  O685    1.945   .     S
Cu642  O681    1.960   .     S
Cu642  N674    2.031   .     S
Cu642  Cu727   2.702   .     S
F643   C705    1.356   .     S
H665   C1403   1.110   .     S
O681   C700    1.297   .     S
O685   C698    1.305   .     S
C689   C692    1.448   .     S
C689   O768    1.298   .     A
C689   O589    1.297   1_655 S
C690   F739    1.359   .     S
C691   C700    1.448   .     S
C691   C725    1.402   .     A
C692   C724    1.402   .     A
C692   C518    1.403   1_655 S
C693   N760    1.369   .     A
C693   F740    1.352   .     S
C693   C695    1.423   .     A
C694   N759    1.368   .     A
C694   C696    1.421   .     A
C694   F730    1.350   .     S
C695   N759    1.370   .     A
C695   F731    1.355   .     S
C696   N760    1.370   .     A
C696   F732    1.353   .     S
C697   C699    1.481   .     S
C697   O772    1.305   .     A
C697   O598    1.307   1_655 S
C698   O773    1.301   .     A
C698   C701    1.471   .     S
C699   C706    1.415   .     A
C699   C704    1.411   .     A
C700   O769    1.298   .     A
C701   C707    1.406   .     A
C701   C705    1.404   .     A
C702   C704    1.392   .     A
C702   C710    1.401   .     A
C702   F562    1.356   1_655 S
C703   F735    1.349   .     S
C703   C712    1.400   .     A
C703   C705    1.394   .     A
C704   F561    1.358   1_655 S
C706   O764    1.384   .     S
C706   C708    1.410   .     A
C707   C709    1.413   .     A
C707   O763    1.384   .     S
C708   C713    1.414   .     A
C708   C710    1.410   .     A
C709   C714    1.400   .     A
C709   C712    1.405   .     A
C710   C1496   1.406   .     S
C711   C714    1.416   .     A
C711   C722    1.399   .     A
C711   O765    1.388   .     S
C712   C1497   1.414   1_554 S
C713   C721    1.424   .     A
C713   C1488   1.409   .     S
C714   C1487   1.409   1_554 S
C715   O774    1.423   .     S
C715   H741    1.117   .     S
C715   H752    1.109   .     S
C715   H1525   1.110   1_554 S
C716   O762    1.413   .     S
C716   H755    1.109   .     S
C716   H754    1.116   .     S
C716   H753    1.108   .     S
C717   H757    1.114   .     S
C717   H756    1.113   .     S
C717   H758    1.109   .     S
C717   O763    1.409   .     S
C718   H742    1.113   .     S
C718   H744    1.109   .     S
C718   O764    1.411   .     S
C718   H743    1.113   .     S
C719   H746    1.109   .     S
C719   H747    1.109   .     S
C719   O765    1.419   .     S
C719   H745    1.115   .     S
C720   H749    1.116   .     S
C720   H748    1.108   .     S
C720   H750    1.109   .     S
C720   O766    1.417   .     S
C721   O766    1.386   .     S
C721   C723    1.412   .     A
C722   O774    1.377   .     S
C722   C1484   1.406   1_554 S
C723   O762    1.386   .     S
C723   C1486   1.414   .     S
C724   F736    1.357   .     S
C725   F737    1.357   .     S
C725   C174    1.385   1_565 S
C726   F738    1.358   .     S
C726   C519    1.402   1_655 S
C726   C208    1.385   1_565 S
Cu727  N759    2.031   .     S
Cu727  O769    1.962   .     S
Cu727  O770    1.945   .     S
Cu727  O761    1.960   .     S
Cu727  O773    1.942   .     S
Cu728  O772    1.942   .     S
Cu728  O768    1.962   .     S
Cu728  O771    1.945   .     S
Cu728  O767    1.960   .     S
Cu728  N760    2.031   .     S
Cu728  Cu555   2.702   1_655 S
F729   C533    1.356   1_655 S
H751   C1489   1.110   .     S
O767   C528    1.297   1_655 S
O771   C526    1.305   1_655 S
C775   C778    1.448   .     S
C775   O854    1.298   .     A
C775   O933    1.297   .     S
C776   F825    1.359   .     S
C776   C950    1.403   1_455 S
C776   C1327   1.385   1_545 S
C777   C786    1.448   .     S
C777   C811    1.402   .     A
C777   C984    1.402   1_455 S
C778   C810    1.402   .     A
C778   C862    1.403   .     S
C779   N846    1.369   .     A
C779   F826    1.352   .     S
C779   C781    1.423   .     A
C780   N845    1.368   .     A
C780   C782    1.421   .     A
C780   F816    1.350   .     S
C781   N845    1.370   .     A
C781   F817    1.355   .     S
C782   N846    1.370   .     A
C782   F818    1.353   .     S
C783   C785    1.481   .     S
C783   O858    1.305   .     A
C783   O942    1.307   .     S
C784   O859    1.301   .     A
C784   C787    1.471   .     S
C784   O1029   1.305   1_455 S
C785   C792    1.415   .     A
C785   C790    1.411   .     A
C786   O855    1.298   .     A
C786   O1025   1.297   1_455 S
C787   C793    1.406   .     A
C787   C791    1.404   .     A
C788   C790    1.392   .     A
C788   C796    1.401   .     A
C788   F906    1.356   .     S
C789   F821    1.349   .     S
C789   C798    1.400   .     A
C789   C791    1.394   .     A
C790   F905    1.358   .     S
C791   F987    1.356   1_455 S
C792   O850    1.384   .     S
C792   C794    1.410   .     A
C793   C795    1.413   .     A
C793   O849    1.384   .     S
C794   C799    1.414   .     A
C794   C796    1.410   .     A
C795   C800    1.400   .     A
C795   C798    1.405   .     A
C796   C34     1.406   1_556 S
C797   C800    1.416   .     A
C797   C808    1.399   .     A
C797   O851    1.388   .     S
C799   C807    1.424   .     A
C799   C26     1.409   1_556 S
C801   O860    1.423   .     S
C801   H827    1.117   .     S
C801   H838    1.109   .     S
C802   O848    1.413   .     S
C802   H841    1.109   .     S
C802   H840    1.116   .     S
C802   H839    1.108   .     S
C803   H843    1.114   .     S
C803   H842    1.113   .     S
C803   H844    1.109   .     S
C803   O849    1.409   .     S
C804   H828    1.113   .     S
C804   H830    1.109   .     S
C804   O850    1.411   .     S
C804   H829    1.113   .     S
C805   H832    1.109   .     S
C805   H833    1.109   .     S
C805   O851    1.419   .     S
C805   H831    1.115   .     S
C806   H835    1.116   .     S
C806   H834    1.108   .     S
C806   H836    1.109   .     S
C806   O852    1.417   .     S
C807   O852    1.386   .     S
C807   C809    1.412   .     A
C808   O860    1.377   .     S
C809   O848    1.386   .     S
C809   C24     1.414   1_556 S
C810   F822    1.357   .     S
C810   C1328   1.385   1_545 S
C811   F823    1.357   .     S
C811   C1034   1.385   .     S
C812   F824    1.358   .     S
C812   C863    1.402   .     S
C812   C1068   1.385   .     S
Cu813  N845    2.031   .     S
Cu813  O855    1.962   .     S
Cu813  O856    1.945   .     S
Cu813  O847    1.960   .     S
Cu813  O859    1.942   .     S
Cu813  Cu986   2.702   1_455 S
Cu814  O858    1.942   .     S
Cu814  O854    1.962   .     S
Cu814  O857    1.945   .     S
Cu814  O853    1.960   .     S
Cu814  N846    2.031   .     S
Cu814  Cu899   2.702   .     S
F815   C877    1.356   .     S
F819   C962    1.358   1_455 S
F820   C960    1.356   1_455 S
H837   C27     1.110   1_556 S
O847   C947    1.297   1_455 S
O853   C872    1.297   .     S
O856   C955    1.307   1_455 S
O857   C870    1.305   .     S
C861   C864    1.448   .     S
C861   O940    1.298   .     A
C861   O1019   1.297   .     S
C862   F911    1.359   .     S
C862   C1413   1.385   1_545 S
C863   C872    1.448   .     S
C863   C897    1.402   .     A
C864   C896    1.402   .     A
C864   C948    1.403   .     S
C865   N932    1.369   .     A
C865   F912    1.352   .     S
C865   C867    1.423   .     A
C866   N931    1.368   .     A
C866   C868    1.421   .     A
C866   F902    1.350   .     S
C867   N931    1.370   .     A
C867   F903    1.355   .     S
C868   N932    1.370   .     A
C868   F904    1.353   .     S
C869   C871    1.481   .     S
C869   O944    1.305   .     A
C869   O1028   1.307   .     S
C870   O945    1.301   .     A
C870   C873    1.471   .     S
C871   C878    1.415   .     A
C871   C876    1.411   .     A
C872   O941    1.298   .     A
C873   C879    1.406   .     A
C873   C877    1.404   .     A
C874   C876    1.392   .     A
C874   C882    1.401   .     A
C874   F992    1.356   .     S
C875   F907    1.349   .     S
C875   C884    1.400   .     A
C875   C877    1.394   .     A
C876   F991    1.358   .     S
C878   O936    1.384   .     S
C878   C880    1.410   .     A
C879   C881    1.413   .     A
C879   O935    1.384   .     S
C880   C885    1.414   .     A
C880   C882    1.410   .     A
C881   C886    1.400   .     A
C881   C884    1.405   .     A
C882   C120    1.406   1_556 S
C883   C886    1.416   .     A
C883   C894    1.399   .     A
C883   O937    1.388   .     S
C885   C893    1.424   .     A
C885   C112    1.409   1_556 S
C887   O946    1.423   .     S
C887   H913    1.117   .     S
C887   H924    1.109   .     S
C888   O934    1.413   .     S
C888   H927    1.109   .     S
C888   H926    1.116   .     S
C888   H925    1.108   .     S
C889   H929    1.114   .     S
C889   H928    1.113   .     S
C889   H930    1.109   .     S
C889   O935    1.409   .     S
C890   H914    1.113   .     S
C890   H916    1.109   .     S
C890   O936    1.411   .     S
C890   H915    1.113   .     S
C891   H918    1.109   .     S
C891   H919    1.109   .     S
C891   O937    1.419   .     S
C891   H917    1.115   .     S
C892   H921    1.116   .     S
C892   H920    1.108   .     S
C892   H922    1.109   .     S
C892   O938    1.417   .     S
C893   O938    1.386   .     S
C893   C895    1.412   .     A
C894   O946    1.377   .     S
C895   O934    1.386   .     S
C895   C110    1.414   1_556 S
C896   F908    1.357   .     S
C896   C1414   1.385   1_545 S
C897   F909    1.357   .     S
C897   C1120   1.385   .     S
C898   F910    1.358   .     S
C898   C949    1.402   .     S
C898   C1154   1.385   .     S
Cu899  N931    2.031   .     S
Cu899  O941    1.962   .     S
Cu899  O942    1.945   .     S
Cu899  O933    1.960   .     S
Cu899  O945    1.942   .     S
Cu900  O944    1.942   .     S
Cu900  O940    1.962   .     S
Cu900  O943    1.945   .     S
Cu900  O939    1.960   .     S
Cu900  N932    2.031   .     S
Cu900  Cu985   2.702   .     S
F901   C963    1.356   .     S
H923   C113    1.110   1_556 S
O939   C958    1.297   .     S
O943   C956    1.305   .     S
C947   C950    1.448   .     S
C947   O1026   1.298   .     A
C947   O847    1.297   1_655 S
C948   F997    1.359   .     S
C948   C1499   1.385   1_545 S
C949   C958    1.448   .     S
C949   C983    1.402   .     A
C950   C982    1.402   .     A
C950   C776    1.403   1_655 S
C951   N1018   1.369   .     A
C951   F998    1.352   .     S
C951   C953    1.423   .     A
C952   N1017   1.368   .     A
C952   C954    1.421   .     A
C952   F988    1.350   .     S
C953   N1017   1.370   .     A
C953   F989    1.355   .     S
C954   N1018   1.370   .     A
C954   F990    1.353   .     S
C955   C957    1.481   .     S
C955   O1030   1.305   .     A
C955   O856    1.307   1_655 S
C956   O1031   1.301   .     A
C956   C959    1.471   .     S
C957   C964    1.415   .     A
C957   C962    1.411   .     A
C958   O1027   1.298   .     A
C959   C965    1.406   .     A
C959   C963    1.404   .     A
C960   C962    1.392   .     A
C960   C968    1.401   .     A
C960   F820    1.356   1_655 S
C961   F993    1.349   .     S
C961   C970    1.400   .     A
C961   C963    1.394   .     A
C962   F819    1.358   1_655 S
C964   O1022   1.384   .     S
C964   C966    1.410   .     A
C965   C967    1.413   .     A
C965   O1021   1.384   .     S
C966   C971    1.414   .     A
C966   C968    1.410   .     A
C967   C972    1.400   .     A
C967   C970    1.405   .     A
C968   C206    1.406   1_556 S
C969   C972    1.416   .     A
C969   C980    1.399   .     A
C969   O1023   1.388   .     S
C971   C979    1.424   .     A
C971   C198    1.409   1_556 S
C973   O1032   1.423   .     S
C973   H999    1.117   .     S
C973   H1010   1.109   .     S
C974   O1020   1.413   .     S
C974   H1013   1.109   .     S
C974   H1012   1.116   .     S
C974   H1011   1.108   .     S
C975   H1015   1.114   .     S
C975   H1014   1.113   .     S
C975   H1016   1.109   .     S
C975   O1021   1.409   .     S
C976   H1000   1.113   .     S
C976   H1002   1.109   .     S
C976   O1022   1.411   .     S
C976   H1001   1.113   .     S
C977   H1004   1.109   .     S
C977   H1005   1.109   .     S
C977   O1023   1.419   .     S
C977   H1003   1.115   .     S
C978   H1007   1.116   .     S
C978   H1006   1.108   .     S
C978   H1008   1.109   .     S
C978   O1024   1.417   .     S
C979   O1024   1.386   .     S
C979   C981    1.412   .     A
C980   O1032   1.377   .     S
C981   O1020   1.386   .     S
C981   C196    1.414   1_556 S
C982   F994    1.357   .     S
C982   C1500   1.385   1_545 S
C983   F995    1.357   .     S
C983   C1206   1.385   .     S
C984   F996    1.358   .     S
C984   C777    1.402   1_655 S
C984   C1240   1.385   .     S
Cu985  N1017   2.031   .     S
Cu985  O1027   1.962   .     S
Cu985  O1028   1.945   .     S
Cu985  O1019   1.960   .     S
Cu985  O1031   1.942   .     S
Cu986  O1030   1.942   .     S
Cu986  O1026   1.962   .     S
Cu986  O1029   1.945   .     S
Cu986  O1025   1.960   .     S
Cu986  N1018   2.031   .     S
Cu986  Cu813   2.702   1_655 S
F987   C791    1.356   1_655 S
H1009  C199    1.110   1_556 S
O1025  C786    1.297   1_655 S
O1029  C784    1.305   1_655 S
C1033  C1036   1.448   .     S
C1033  O1112   1.298   .     A
C1033  O1191   1.297   .     S
C1034  F1083   1.359   .     S
C1034  C1208   1.403   1_455 S
C1035  C1044   1.448   .     S
C1035  C1069   1.402   .     A
C1035  C1242   1.402   1_455 S
C1036  C1068   1.402   .     A
C1036  C1120   1.403   .     S
C1037  N1104   1.369   .     A
C1037  F1084   1.352   .     S
C1037  C1039   1.423   .     A
C1038  N1103   1.368   .     A
C1038  C1040   1.421   .     A
C1038  F1074   1.350   .     S
C1039  N1103   1.370   .     A
C1039  F1075   1.355   .     S
C1040  N1104   1.370   .     A
C1040  F1076   1.353   .     S
C1041  C1043   1.481   .     S
C1041  O1116   1.305   .     A
C1041  O1200   1.307   .     S
C1042  O1117   1.301   .     A
C1042  C1045   1.471   .     S
C1042  O1287   1.305   1_455 S
C1043  C1050   1.415   .     A
C1043  C1048   1.411   .     A
C1044  O1113   1.298   .     A
C1044  O1283   1.297   1_455 S
C1045  C1051   1.406   .     A
C1045  C1049   1.404   .     A
C1046  C1048   1.392   .     A
C1046  C1054   1.401   .     A
C1046  F1164   1.356   .     S
C1047  F1079   1.349   .     S
C1047  C1056   1.400   .     A
C1047  C1049   1.394   .     A
C1048  F1163   1.358   .     S
C1049  F1245   1.356   1_455 S
C1050  O1108   1.384   .     S
C1050  C1052   1.410   .     A
C1051  C1053   1.413   .     A
C1051  O1107   1.384   .     S
C1052  C1057   1.414   .     A
C1052  C1054   1.410   .     A
C1053  C1058   1.400   .     A
C1053  C1056   1.405   .     A
C1054  C292    1.406   1_556 S
C1055  C1058   1.416   .     A
C1055  C1066   1.399   .     A
C1055  O1109   1.388   .     S
C1057  C1065   1.424   .     A
C1057  C284    1.409   1_556 S
C1059  O1118   1.423   .     S
C1059  H1085   1.117   .     S
C1059  H1096   1.109   .     S
C1060  O1106   1.413   .     S
C1060  H1099   1.109   .     S
C1060  H1098   1.116   .     S
C1060  H1097   1.108   .     S
C1061  H1101   1.114   .     S
C1061  H1100   1.113   .     S
C1061  H1102   1.109   .     S
C1061  O1107   1.409   .     S
C1062  H1086   1.113   .     S
C1062  H1088   1.109   .     S
C1062  O1108   1.411   .     S
C1062  H1087   1.113   .     S
C1063  H1090   1.109   .     S
C1063  H1091   1.109   .     S
C1063  O1109   1.419   .     S
C1063  H1089   1.115   .     S
C1064  H1093   1.116   .     S
C1064  H1092   1.108   .     S
C1064  H1094   1.109   .     S
C1064  O1110   1.417   .     S
C1065  O1110   1.386   .     S
C1065  C1067   1.412   .     A
C1066  O1118   1.377   .     S
C1067  O1106   1.386   .     S
C1067  C282    1.414   1_556 S
C1068  F1080   1.357   .     S
C1069  F1081   1.357   .     S
C1069  C1292   1.385   .     S
C1070  F1082   1.358   .     S
C1070  C1121   1.402   .     S
C1070  C1326   1.385   .     S
Cu1071 N1103   2.031   .     S
Cu1071 O1113   1.962   .     S
Cu1071 O1114   1.945   .     S
Cu1071 O1105   1.960   .     S
Cu1071 O1117   1.942   .     S
Cu1071 Cu1244  2.702   1_455 S
Cu1072 O1116   1.942   .     S
Cu1072 O1112   1.962   .     S
Cu1072 O1115   1.945   .     S
Cu1072 O1111   1.960   .     S
Cu1072 N1104   2.031   .     S
Cu1072 Cu1157  2.702   .     S
F1073  C1135   1.356   .     S
F1077  C1220   1.358   1_455 S
F1078  C1218   1.356   1_455 S
H1095  C285    1.110   1_556 S
O1105  C1205   1.297   1_455 S
O1111  C1130   1.297   .     S
O1114  C1213   1.307   1_455 S
O1115  C1128   1.305   .     S
C1119  C1122   1.448   .     S
C1119  O1198   1.298   .     A
C1119  O1277   1.297   .     S
C1120  F1169   1.359   .     S
C1121  C1130   1.448   .     S
C1121  C1155   1.402   .     A
C1122  C1154   1.402   .     A
C1122  C1206   1.403   .     S
C1123  N1190   1.369   .     A
C1123  F1170   1.352   .     S
C1123  C1125   1.423   .     A
C1124  N1189   1.368   .     A
C1124  C1126   1.421   .     A
C1124  F1160   1.350   .     S
C1125  N1189   1.370   .     A
C1125  F1161   1.355   .     S
C1126  N1190   1.370   .     A
C1126  F1162   1.353   .     S
C1127  C1129   1.481   .     S
C1127  O1202   1.305   .     A
C1127  O1286   1.307   .     S
C1128  O1203   1.301   .     A
C1128  C1131   1.471   .     S
C1129  C1136   1.415   .     A
C1129  C1134   1.411   .     A
C1130  O1199   1.298   .     A
C1131  C1137   1.406   .     A
C1131  C1135   1.404   .     A
C1132  C1134   1.392   .     A
C1132  C1140   1.401   .     A
C1132  F1250   1.356   .     S
C1133  F1165   1.349   .     S
C1133  C1142   1.400   .     A
C1133  C1135   1.394   .     A
C1134  F1249   1.358   .     S
C1136  O1194   1.384   .     S
C1136  C1138   1.410   .     A
C1137  C1139   1.413   .     A
C1137  O1193   1.384   .     S
C1138  C1143   1.414   .     A
C1138  C1140   1.410   .     A
C1139  C1144   1.400   .     A
C1139  C1142   1.405   .     A
C1140  C378    1.406   1_556 S
C1141  C1144   1.416   .     A
C1141  C1152   1.399   .     A
C1141  O1195   1.388   .     S
C1143  C1151   1.424   .     A
C1143  C370    1.409   1_556 S
C1145  O1204   1.423   .     S
C1145  H1171   1.117   .     S
C1145  H1182   1.109   .     S
C1146  O1192   1.413   .     S
C1146  H1185   1.109   .     S
C1146  H1184   1.116   .     S
C1146  H1183   1.108   .     S
C1147  H1187   1.114   .     S
C1147  H1186   1.113   .     S
C1147  H1188   1.109   .     S
C1147  O1193   1.409   .     S
C1148  H1172   1.113   .     S
C1148  H1174   1.109   .     S
C1148  O1194   1.411   .     S
C1148  H1173   1.113   .     S
C1149  H1176   1.109   .     S
C1149  H1177   1.109   .     S
C1149  O1195   1.419   .     S
C1149  H1175   1.115   .     S
C1150  H1179   1.116   .     S
C1150  H1178   1.108   .     S
C1150  H1180   1.109   .     S
C1150  O1196   1.417   .     S
C1151  O1196   1.386   .     S
C1151  C1153   1.412   .     A
C1152  O1204   1.377   .     S
C1153  O1192   1.386   .     S
C1153  C368    1.414   1_556 S
C1154  F1166   1.357   .     S
C1155  F1167   1.357   .     S
C1155  C1378   1.385   .     S
C1156  F1168   1.358   .     S
C1156  C1207   1.402   .     S
C1156  C1412   1.385   .     S
Cu1157 N1189   2.031   .     S
Cu1157 O1199   1.962   .     S
Cu1157 O1200   1.945   .     S
Cu1157 O1191   1.960   .     S
Cu1157 O1203   1.942   .     S
Cu1158 O1202   1.942   .     S
Cu1158 O1198   1.962   .     S
Cu1158 O1201   1.945   .     S
Cu1158 O1197   1.960   .     S
Cu1158 N1190   2.031   .     S
Cu1158 Cu1243  2.702   .     S
F1159  C1221   1.356   .     S
H1181  C371    1.110   1_556 S
O1197  C1216   1.297   .     S
O1201  C1214   1.305   .     S
C1205  C1208   1.448   .     S
C1205  O1284   1.298   .     A
C1205  O1105   1.297   1_655 S
C1206  F1255   1.359   .     S
C1207  C1216   1.448   .     S
C1207  C1241   1.402   .     A
C1208  C1240   1.402   .     A
C1208  C1034   1.403   1_655 S
C1209  N1276   1.369   .     A
C1209  F1256   1.352   .     S
C1209  C1211   1.423   .     A
C1210  N1275   1.368   .     A
C1210  C1212   1.421   .     A
C1210  F1246   1.350   .     S
C1211  N1275   1.370   .     A
C1211  F1247   1.355   .     S
C1212  N1276   1.370   .     A
C1212  F1248   1.353   .     S
C1213  C1215   1.481   .     S
C1213  O1288   1.305   .     A
C1213  O1114   1.307   1_655 S
C1214  O1289   1.301   .     A
C1214  C1217   1.471   .     S
C1215  C1222   1.415   .     A
C1215  C1220   1.411   .     A
C1216  O1285   1.298   .     A
C1217  C1223   1.406   .     A
C1217  C1221   1.404   .     A
C1218  C1220   1.392   .     A
C1218  C1226   1.401   .     A
C1218  F1078   1.356   1_655 S
C1219  F1251   1.349   .     S
C1219  C1228   1.400   .     A
C1219  C1221   1.394   .     A
C1220  F1077   1.358   1_655 S
C1222  O1280   1.384   .     S
C1222  C1224   1.410   .     A
C1223  C1225   1.413   .     A
C1223  O1279   1.384   .     S
C1224  C1229   1.414   .     A
C1224  C1226   1.410   .     A
C1225  C1230   1.400   .     A
C1225  C1228   1.405   .     A
C1226  C464    1.406   1_556 S
C1227  C1230   1.416   .     A
C1227  C1238   1.399   .     A
C1227  O1281   1.388   .     S
C1229  C1237   1.424   .     A
C1229  C456    1.409   1_556 S
C1231  O1290   1.423   .     S
C1231  H1257   1.117   .     S
C1231  H1268   1.109   .     S
C1232  O1278   1.413   .     S
C1232  H1271   1.109   .     S
C1232  H1270   1.116   .     S
C1232  H1269   1.108   .     S
C1233  H1273   1.114   .     S
C1233  H1272   1.113   .     S
C1233  H1274   1.109   .     S
C1233  O1279   1.409   .     S
C1234  H1258   1.113   .     S
C1234  H1260   1.109   .     S
C1234  O1280   1.411   .     S
C1234  H1259   1.113   .     S
C1235  H1262   1.109   .     S
C1235  H1263   1.109   .     S
C1235  O1281   1.419   .     S
C1235  H1261   1.115   .     S
C1236  H1265   1.116   .     S
C1236  H1264   1.108   .     S
C1236  H1266   1.109   .     S
C1236  O1282   1.417   .     S
C1237  O1282   1.386   .     S
C1237  C1239   1.412   .     A
C1238  O1290   1.377   .     S
C1239  O1278   1.386   .     S
C1239  C454    1.414   1_556 S
C1240  F1252   1.357   .     S
C1241  F1253   1.357   .     S
C1241  C1464   1.385   .     S
C1242  F1254   1.358   .     S
C1242  C1035   1.402   1_655 S
C1242  C1498   1.385   .     S
Cu1243 N1275   2.031   .     S
Cu1243 O1285   1.962   .     S
Cu1243 O1286   1.945   .     S
Cu1243 O1277   1.960   .     S
Cu1243 O1289   1.942   .     S
Cu1244 O1288   1.942   .     S
Cu1244 O1284   1.962   .     S
Cu1244 O1287   1.945   .     S
Cu1244 O1283   1.960   .     S
Cu1244 N1276   2.031   .     S
Cu1244 Cu1071  2.702   1_655 S
F1245  C1049   1.356   1_655 S
H1267  C457    1.110   1_556 S
O1283  C1044   1.297   1_655 S
O1287  C1042   1.305   1_655 S
C1291  C1294   1.448   .     S
C1291  O1370   1.298   .     A
C1291  O1449   1.297   .     S
C1292  F1341   1.359   .     S
C1292  C1466   1.403   1_455 S
C1293  C1302   1.448   .     S
C1293  C1327   1.402   .     A
C1293  C1500   1.402   1_455 S
C1294  C1326   1.402   .     A
C1294  C1378   1.403   .     S
C1295  N1362   1.369   .     A
C1295  F1342   1.352   .     S
C1295  C1297   1.423   .     A
C1296  N1361   1.368   .     A
C1296  C1298   1.421   .     A
C1296  F1332   1.350   .     S
C1297  N1361   1.370   .     A
C1297  F1333   1.355   .     S
C1298  N1362   1.370   .     A
C1298  F1334   1.353   .     S
C1299  C1301   1.481   .     S
C1299  O1374   1.305   .     A
C1299  O1458   1.307   .     S
C1300  O1375   1.301   .     A
C1300  C1303   1.471   .     S
C1300  O1545   1.305   1_455 S
C1301  C1308   1.415   .     A
C1301  C1306   1.411   .     A
C1302  O1371   1.298   .     A
C1302  O1541   1.297   1_455 S
C1303  C1309   1.406   .     A
C1303  C1307   1.404   .     A
C1304  C1306   1.392   .     A
C1304  C1312   1.401   .     A
C1304  F1422   1.356   .     S
C1305  F1337   1.349   .     S
C1305  C1314   1.400   .     A
C1305  C1307   1.394   .     A
C1306  F1421   1.358   .     S
C1307  F1503   1.356   1_455 S
C1308  O1366   1.384   .     S
C1308  C1310   1.410   .     A
C1309  C1311   1.413   .     A
C1309  O1365   1.384   .     S
C1310  C1315   1.414   .     A
C1310  C1312   1.410   .     A
C1311  C1316   1.400   .     A
C1311  C1314   1.405   .     A
C1312  C550    1.406   1_556 S
C1313  C1316   1.416   .     A
C1313  C1324   1.399   .     A
C1313  O1367   1.388   .     S
C1315  C1323   1.424   .     A
C1315  C542    1.409   1_556 S
C1317  O1376   1.423   .     S
C1317  H1343   1.117   .     S
C1317  H1354   1.109   .     S
C1318  O1364   1.413   .     S
C1318  H1357   1.109   .     S
C1318  H1356   1.116   .     S
C1318  H1355   1.108   .     S
C1319  H1359   1.114   .     S
C1319  H1358   1.113   .     S
C1319  H1360   1.109   .     S
C1319  O1365   1.409   .     S
C1320  H1344   1.113   .     S
C1320  H1346   1.109   .     S
C1320  O1366   1.411   .     S
C1320  H1345   1.113   .     S
C1321  H1348   1.109   .     S
C1321  H1349   1.109   .     S
C1321  O1367   1.419   .     S
C1321  H1347   1.115   .     S
C1322  H1351   1.116   .     S
C1322  H1350   1.108   .     S
C1322  H1352   1.109   .     S
C1322  O1368   1.417   .     S
C1323  O1368   1.386   .     S
C1323  C1325   1.412   .     A
C1324  O1376   1.377   .     S
C1325  O1364   1.386   .     S
C1325  C540    1.414   1_556 S
C1326  F1338   1.357   .     S
C1327  F1339   1.357   .     S
C1327  C776    1.385   1_565 S
C1328  F1340   1.358   .     S
C1328  C1379   1.402   .     S
C1328  C810    1.385   1_565 S
Cu1329 N1361   2.031   .     S
Cu1329 O1371   1.962   .     S
Cu1329 O1372   1.945   .     S
Cu1329 O1363   1.960   .     S
Cu1329 O1375   1.942   .     S
Cu1329 Cu1502  2.702   1_455 S
Cu1330 O1374   1.942   .     S
Cu1330 O1370   1.962   .     S
Cu1330 O1373   1.945   .     S
Cu1330 O1369   1.960   .     S
Cu1330 N1362   2.031   .     S
Cu1330 Cu1415  2.702   .     S
F1331  C1393   1.356   .     S
F1335  C1478   1.358   1_455 S
F1336  C1476   1.356   1_455 S
H1353  C543    1.110   1_556 S
O1363  C1463   1.297   1_455 S
O1369  C1388   1.297   .     S
O1372  C1471   1.307   1_455 S
O1373  C1386   1.305   .     S
C1377  C1380   1.448   .     S
C1377  O1456   1.298   .     A
C1377  O1535   1.297   .     S
C1378  F1427   1.359   .     S
C1379  C1388   1.448   .     S
C1379  C1413   1.402   .     A
C1380  C1412   1.402   .     A
C1380  C1464   1.403   .     S
C1381  N1448   1.369   .     A
C1381  F1428   1.352   .     S
C1381  C1383   1.423   .     A
C1382  N1447   1.368   .     A
C1382  C1384   1.421   .     A
C1382  F1418   1.350   .     S
C1383  N1447   1.370   .     A
C1383  F1419   1.355   .     S
C1384  N1448   1.370   .     A
C1384  F1420   1.353   .     S
C1385  C1387   1.481   .     S
C1385  O1460   1.305   .     A
C1385  O1544   1.307   .     S
C1386  O1461   1.301   .     A
C1386  C1389   1.471   .     S
C1387  C1394   1.415   .     A
C1387  C1392   1.411   .     A
C1388  O1457   1.298   .     A
C1389  C1395   1.406   .     A
C1389  C1393   1.404   .     A
C1390  C1392   1.392   .     A
C1390  C1398   1.401   .     A
C1390  F1508   1.356   .     S
C1391  F1423   1.349   .     S
C1391  C1400   1.400   .     A
C1391  C1393   1.394   .     A
C1392  F1507   1.358   .     S
C1394  O1452   1.384   .     S
C1394  C1396   1.410   .     A
C1395  C1397   1.413   .     A
C1395  O1451   1.384   .     S
C1396  C1401   1.414   .     A
C1396  C1398   1.410   .     A
C1397  C1402   1.400   .     A
C1397  C1400   1.405   .     A
C1398  C636    1.406   1_556 S
C1399  C1402   1.416   .     A
C1399  C1410   1.399   .     A
C1399  O1453   1.388   .     S
C1401  C1409   1.424   .     A
C1401  C628    1.409   1_556 S
C1403  O1462   1.423   .     S
C1403  H1429   1.117   .     S
C1403  H1440   1.109   .     S
C1404  O1450   1.413   .     S
C1404  H1443   1.109   .     S
C1404  H1442   1.116   .     S
C1404  H1441   1.108   .     S
C1405  H1445   1.114   .     S
C1405  H1444   1.113   .     S
C1405  H1446   1.109   .     S
C1405  O1451   1.409   .     S
C1406  H1430   1.113   .     S
C1406  H1432   1.109   .     S
C1406  O1452   1.411   .     S
C1406  H1431   1.113   .     S
C1407  H1434   1.109   .     S
C1407  H1435   1.109   .     S
C1407  O1453   1.419   .     S
C1407  H1433   1.115   .     S
C1408  H1437   1.116   .     S
C1408  H1436   1.108   .     S
C1408  H1438   1.109   .     S
C1408  O1454   1.417   .     S
C1409  O1454   1.386   .     S
C1409  C1411   1.412   .     A
C1410  O1462   1.377   .     S
C1411  O1450   1.386   .     S
C1411  C626    1.414   1_556 S
C1412  F1424   1.357   .     S
C1413  F1425   1.357   .     S
C1413  C862    1.385   1_565 S
C1414  F1426   1.358   .     S
C1414  C1465   1.402   .     S
C1414  C896    1.385   1_565 S
Cu1415 N1447   2.031   .     S
Cu1415 O1457   1.962   .     S
Cu1415 O1458   1.945   .     S
Cu1415 O1449   1.960   .     S
Cu1415 O1461   1.942   .     S
Cu1416 O1460   1.942   .     S
Cu1416 O1456   1.962   .     S
Cu1416 O1459   1.945   .     S
Cu1416 O1455   1.960   .     S
Cu1416 N1448   2.031   .     S
Cu1416 Cu1501  2.702   .     S
F1417  C1479   1.356   .     S
H1439  C629    1.110   1_556 S
O1455  C1474   1.297   .     S
O1459  C1472   1.305   .     S
C1463  C1466   1.448   .     S
C1463  O1542   1.298   .     A
C1463  O1363   1.297   1_655 S
C1464  F1513   1.359   .     S
C1465  C1474   1.448   .     S
C1465  C1499   1.402   .     A
C1466  C1498   1.402   .     A
C1466  C1292   1.403   1_655 S
C1467  N1534   1.369   .     A
C1467  F1514   1.352   .     S
C1467  C1469   1.423   .     A
C1468  N1533   1.368   .     A
C1468  C1470   1.421   .     A
C1468  F1504   1.350   .     S
C1469  N1533   1.370   .     A
C1469  F1505   1.355   .     S
C1470  N1534   1.370   .     A
C1470  F1506   1.353   .     S
C1471  C1473   1.481   .     S
C1471  O1546   1.305   .     A
C1471  O1372   1.307   1_655 S
C1472  O1547   1.301   .     A
C1472  C1475   1.471   .     S
C1473  C1480   1.415   .     A
C1473  C1478   1.411   .     A
C1474  O1543   1.298   .     A
C1475  C1481   1.406   .     A
C1475  C1479   1.404   .     A
C1476  C1478   1.392   .     A
C1476  C1484   1.401   .     A
C1476  F1336   1.356   1_655 S
C1477  F1509   1.349   .     S
C1477  C1486   1.400   .     A
C1477  C1479   1.394   .     A
C1478  F1335   1.358   1_655 S
C1480  O1538   1.384   .     S
C1480  C1482   1.410   .     A
C1481  C1483   1.413   .     A
C1481  O1537   1.384   .     S
C1482  C1487   1.414   .     A
C1482  C1484   1.410   .     A
C1483  C1488   1.400   .     A
C1483  C1486   1.405   .     A
C1484  C722    1.406   1_556 S
C1485  C1488   1.416   .     A
C1485  C1496   1.399   .     A
C1485  O1539   1.388   .     S
C1487  C1495   1.424   .     A
C1487  C714    1.409   1_556 S
C1489  O1548   1.423   .     S
C1489  H1515   1.117   .     S
C1489  H1526   1.109   .     S
C1490  O1536   1.413   .     S
C1490  H1529   1.109   .     S
C1490  H1528   1.116   .     S
C1490  H1527   1.108   .     S
C1491  H1531   1.114   .     S
C1491  H1530   1.113   .     S
C1491  H1532   1.109   .     S
C1491  O1537   1.409   .     S
C1492  H1516   1.113   .     S
C1492  H1518   1.109   .     S
C1492  O1538   1.411   .     S
C1492  H1517   1.113   .     S
C1493  H1520   1.109   .     S
C1493  H1521   1.109   .     S
C1493  O1539   1.419   .     S
C1493  H1519   1.115   .     S
C1494  H1523   1.116   .     S
C1494  H1522   1.108   .     S
C1494  H1524   1.109   .     S
C1494  O1540   1.417   .     S
C1495  O1540   1.386   .     S
C1495  C1497   1.412   .     A
C1496  O1548   1.377   .     S
C1497  O1536   1.386   .     S
C1497  C712    1.414   1_556 S
C1498  F1510   1.357   .     S
C1499  F1511   1.357   .     S
C1499  C948    1.385   1_565 S
C1500  F1512   1.358   .     S
C1500  C1293   1.402   1_655 S
C1500  C982    1.385   1_565 S
Cu1501 N1533   2.031   .     S
Cu1501 O1543   1.962   .     S
Cu1501 O1544   1.945   .     S
Cu1501 O1535   1.960   .     S
Cu1501 O1547   1.942   .     S
Cu1502 O1546   1.942   .     S
Cu1502 O1542   1.962   .     S
Cu1502 O1545   1.945   .     S
Cu1502 O1541   1.960   .     S
Cu1502 N1534   2.031   .     S
Cu1502 Cu1329  2.702   1_655 S
F1503  C1307   1.356   1_655 S
H1525  C715    1.110   1_556 S
O1541  C1302   1.297   1_655 S
O1545  C1300   1.305   1_655 S
