data_str_m2_o1_o10_pcu_sym.22
_audit_creation_date              2020-01-03
_audit_creation_method            'Materials Studio'
_symmetry_space_group_name_H-M    'P1'
_symmetry_Int_Tables_number       1
_symmetry_cell_setting            triclinic
loop_
_symmetry_equiv_pos_as_xyz
  x,y,z
_cell_length_a                    26.1988
_cell_length_b                    32.4555
_cell_length_c                    28.5726
_cell_angle_alpha                 90.4789
_cell_angle_beta                  97.9628
_cell_angle_gamma                 90.1381
loop_
_atom_site_label
_atom_site_type_symbol
_atom_site_fract_x
_atom_site_fract_y
_atom_site_fract_z
_atom_site_U_iso_or_equiv
_atom_site_adp_type
_atom_site_occupancy
C1     C     0.16717   0.08742   0.16646   0.00000  Uiso   1.00
C2     C     0.14138   0.02228   0.19860   0.00000  Uiso   1.00
C3     C     0.16621   0.29053   0.16745   0.00000  Uiso   1.00
C4     C     0.16713   0.04281   0.16589   0.00000  Uiso   1.00
C5     C     0.13244   0.14290   0.02021   0.00000  Uiso   1.00
C6     C     0.20089   0.19044   0.31312   0.00000  Uiso   1.00
C7     C     0.13248   0.14287   0.30396   0.00000  Uiso   1.00
C8     C     0.20085   0.19046   0.02937   0.00000  Uiso   1.00
C9     C     0.19492   0.04106   0.05303   0.00000  Uiso   1.00
C10    C     0.13841   0.29227   0.28030   0.00000  Uiso   1.00
C11    C     0.16616   0.24592   0.16688   0.00000  Uiso   1.00
C12    C     0.06791   0.16665   0.15457   0.00000  Uiso   1.00
C13    C     0.26542   0.16668   0.17876   0.00000  Uiso   1.00
C14    C     0.01263   0.16666   0.14791   0.00000  Uiso   1.00
C15    C     0.32071   0.16667   0.18542   0.00000  Uiso   1.00
C16    C     0.19246   0.02051   0.13347   0.00000  Uiso   1.00
C17    C     0.14087   0.31282   0.19987   0.00000  Uiso   1.00
C18    C     0.19195   0.31106   0.13474   0.00000  Uiso   1.00
Cu19   Cu    0.16667   0.16667   0.21355   0.00000  Uiso   1.00
Cu20   Cu    0.16667   0.16666   0.11978   0.00000  Uiso   1.00
H21    H     0.32596   0.16667   0.11193   0.00000  Uiso   1.00
H22    H     0.19319   0.00933   0.03799   0.00000  Uiso   1.00
H23    H     0.21668   0.06101   0.03129   0.00000  Uiso   1.00
H24    H     0.15520   0.05339   0.05148   0.00000  Uiso   1.00
H25    H     0.07525   0.30260   0.23009   0.00000  Uiso   1.00
H26    H     0.14015   0.32400   0.29534   0.00000  Uiso   1.00
H27    H     0.17813   0.27994   0.28186   0.00000  Uiso   1.00
H28    H     0.11665   0.27233   0.30204   0.00000  Uiso   1.00
H29    H     0.00737   0.16667   0.22140   0.00000  Uiso   1.00
H30    H     0.21214   0.29384   0.11031   0.00000  Uiso   1.00
H31    H     0.12120   0.03949   0.22302   0.00000  Uiso   1.00
H32    H     0.10506   0.12380   0.03522   0.00000  Uiso   1.00
H33    H     0.22828   0.20953   0.29811   0.00000  Uiso   1.00
H34    H     0.10516   0.12373   0.28164   0.00000  Uiso   1.00
H35    H     0.22818   0.20960   0.05170   0.00000  Uiso   1.00
H36    H     0.25808   0.03074   0.10324   0.00000  Uiso   1.00
N37    N     0.16668   0.16668   0.28403   0.00000  Uiso   1.00
N38    N     0.16665   0.16666   0.04931   0.00000  Uiso   1.00
N39    N     0.22057   0.04090   0.10124   0.00000  Uiso   1.00
N40    N     0.11276   0.29244   0.23209   0.00000  Uiso   1.00
O41    O     0.16666   0.10655   0.20625   0.00000  Uiso   1.00
O42    O     0.16667   0.22678   0.12709   0.00000  Uiso   1.00
O43    O     0.16666   0.10654   0.12706   0.00000  Uiso   1.00
O44    O     0.16667   0.22679   0.20628   0.00000  Uiso   1.00
O45    O     0.09161   0.16667   0.19712   0.00000  Uiso   1.00
O46    O     0.24172   0.16666   0.13621   0.00000  Uiso   1.00
O47    O     0.09161   0.16666   0.11793   0.00000  Uiso   1.00
O48    O     0.24172   0.16667   0.21540   0.00000  Uiso   1.00
C49    C     0.50051   0.08742   0.16646   0.00000  Uiso   1.00
C50    C     0.47472   0.02228   0.19860   0.00000  Uiso   1.00
C51    C     0.49954   0.29053   0.16745   0.00000  Uiso   1.00
C52    C     0.50046   0.04281   0.16589   0.00000  Uiso   1.00
C53    C     0.46577   0.14290   0.02021   0.00000  Uiso   1.00
C54    C     0.53423   0.19044   0.31312   0.00000  Uiso   1.00
C55    C     0.46582   0.14287   0.30396   0.00000  Uiso   1.00
C56    C     0.53419   0.19046   0.02937   0.00000  Uiso   1.00
C57    C     0.52825   0.04106   0.05303   0.00000  Uiso   1.00
C58    C     0.47175   0.29227   0.28030   0.00000  Uiso   1.00
C59    C     0.49949   0.24592   0.16688   0.00000  Uiso   1.00
C60    C     0.40125   0.16665   0.15457   0.00000  Uiso   1.00
C61    C     0.59875   0.16668   0.17876   0.00000  Uiso   1.00
C62    C     0.34596   0.16666   0.14791   0.00000  Uiso   1.00
C63    C     0.65404   0.16667   0.18542   0.00000  Uiso   1.00
C64    C     0.52580   0.02051   0.13347   0.00000  Uiso   1.00
C65    C     0.47420   0.31282   0.19987   0.00000  Uiso   1.00
C66    C     0.52528   0.31106   0.13474   0.00000  Uiso   1.00
Cu67   Cu    0.50000   0.16667   0.21355   0.00000  Uiso   1.00
Cu68   Cu    0.50000   0.16666   0.11978   0.00000  Uiso   1.00
H69    H     0.65929   0.16667   0.11193   0.00000  Uiso   1.00
H70    H     0.52652   0.00933   0.03799   0.00000  Uiso   1.00
H71    H     0.55001   0.06101   0.03129   0.00000  Uiso   1.00
H72    H     0.48854   0.05339   0.05148   0.00000  Uiso   1.00
H73    H     0.40858   0.30260   0.23009   0.00000  Uiso   1.00
H74    H     0.47348   0.32400   0.29534   0.00000  Uiso   1.00
H75    H     0.51146   0.27994   0.28186   0.00000  Uiso   1.00
H76    H     0.44999   0.27233   0.30204   0.00000  Uiso   1.00
H77    H     0.34071   0.16667   0.22140   0.00000  Uiso   1.00
H78    H     0.54547   0.29384   0.11031   0.00000  Uiso   1.00
H79    H     0.45453   0.03949   0.22302   0.00000  Uiso   1.00
H80    H     0.43839   0.12380   0.03522   0.00000  Uiso   1.00
H81    H     0.56161   0.20953   0.29811   0.00000  Uiso   1.00
H82    H     0.43849   0.12373   0.28164   0.00000  Uiso   1.00
H83    H     0.56151   0.20960   0.05170   0.00000  Uiso   1.00
H84    H     0.59142   0.03074   0.10324   0.00000  Uiso   1.00
N85    N     0.50001   0.16668   0.28403   0.00000  Uiso   1.00
N86    N     0.49999   0.16666   0.04931   0.00000  Uiso   1.00
N87    N     0.55390   0.04090   0.10124   0.00000  Uiso   1.00
N88    N     0.44610   0.29244   0.23209   0.00000  Uiso   1.00
O89    O     0.50000   0.10655   0.20625   0.00000  Uiso   1.00
O90    O     0.50000   0.22678   0.12709   0.00000  Uiso   1.00
O91    O     0.50000   0.10654   0.12706   0.00000  Uiso   1.00
O92    O     0.50000   0.22679   0.20628   0.00000  Uiso   1.00
O93    O     0.42495   0.16667   0.19712   0.00000  Uiso   1.00
O94    O     0.57505   0.16666   0.13621   0.00000  Uiso   1.00
O95    O     0.42494   0.16666   0.11793   0.00000  Uiso   1.00
O96    O     0.57506   0.16667   0.21540   0.00000  Uiso   1.00
C97    C     0.83384   0.08742   0.16646   0.00000  Uiso   1.00
C98    C     0.80805   0.02228   0.19860   0.00000  Uiso   1.00
C99    C     0.83287   0.29053   0.16745   0.00000  Uiso   1.00
C100   C     0.83379   0.04281   0.16589   0.00000  Uiso   1.00
C101   C     0.79911   0.14290   0.02021   0.00000  Uiso   1.00
C102   C     0.86756   0.19044   0.31312   0.00000  Uiso   1.00
C103   C     0.79915   0.14287   0.30396   0.00000  Uiso   1.00
C104   C     0.86752   0.19046   0.02937   0.00000  Uiso   1.00
C105   C     0.86159   0.04106   0.05303   0.00000  Uiso   1.00
C106   C     0.80508   0.29227   0.28030   0.00000  Uiso   1.00
C107   C     0.83283   0.24592   0.16688   0.00000  Uiso   1.00
C108   C     0.73458   0.16665   0.15457   0.00000  Uiso   1.00
C109   C     0.93209   0.16668   0.17876   0.00000  Uiso   1.00
C110   C     0.67929   0.16666   0.14791   0.00000  Uiso   1.00
C111   C     0.98737   0.16667   0.18542   0.00000  Uiso   1.00
C112   C     0.85913   0.02051   0.13347   0.00000  Uiso   1.00
C113   C     0.80754   0.31282   0.19987   0.00000  Uiso   1.00
C114   C     0.85862   0.31106   0.13474   0.00000  Uiso   1.00
Cu115  Cu    0.83333   0.16667   0.21355   0.00000  Uiso   1.00
Cu116  Cu    0.83333   0.16666   0.11978   0.00000  Uiso   1.00
H117   H     0.99263   0.16667   0.11193   0.00000  Uiso   1.00
H118   H     0.85985   0.00933   0.03799   0.00000  Uiso   1.00
H119   H     0.88335   0.06101   0.03129   0.00000  Uiso   1.00
H120   H     0.82187   0.05339   0.05148   0.00000  Uiso   1.00
H121   H     0.74192   0.30260   0.23009   0.00000  Uiso   1.00
H122   H     0.80682   0.32400   0.29534   0.00000  Uiso   1.00
H123   H     0.84480   0.27994   0.28186   0.00000  Uiso   1.00
H124   H     0.78332   0.27233   0.30204   0.00000  Uiso   1.00
H125   H     0.67404   0.16667   0.22140   0.00000  Uiso   1.00
H126   H     0.87880   0.29384   0.11031   0.00000  Uiso   1.00
H127   H     0.78786   0.03949   0.22302   0.00000  Uiso   1.00
H128   H     0.77172   0.12380   0.03522   0.00000  Uiso   1.00
H129   H     0.89494   0.20953   0.29811   0.00000  Uiso   1.00
H130   H     0.77182   0.12373   0.28164   0.00000  Uiso   1.00
H131   H     0.89485   0.20960   0.05170   0.00000  Uiso   1.00
H132   H     0.92475   0.03074   0.10324   0.00000  Uiso   1.00
N133   N     0.83335   0.16668   0.28403   0.00000  Uiso   1.00
N134   N     0.83332   0.16666   0.04931   0.00000  Uiso   1.00
N135   N     0.88724   0.04090   0.10124   0.00000  Uiso   1.00
N136   N     0.77943   0.29244   0.23209   0.00000  Uiso   1.00
O137   O     0.83333   0.10655   0.20625   0.00000  Uiso   1.00
O138   O     0.83334   0.22678   0.12709   0.00000  Uiso   1.00
O139   O     0.83333   0.10654   0.12706   0.00000  Uiso   1.00
O140   O     0.83334   0.22679   0.20628   0.00000  Uiso   1.00
O141   O     0.75828   0.16667   0.19712   0.00000  Uiso   1.00
O142   O     0.90839   0.16666   0.13621   0.00000  Uiso   1.00
O143   O     0.75828   0.16666   0.11793   0.00000  Uiso   1.00
O144   O     0.90839   0.16667   0.21540   0.00000  Uiso   1.00
C145   C     0.16717   0.42075   0.16646   0.00000  Uiso   1.00
C146   C     0.14138   0.35561   0.19860   0.00000  Uiso   1.00
C147   C     0.16621   0.62386   0.16745   0.00000  Uiso   1.00
C148   C     0.16713   0.37614   0.16589   0.00000  Uiso   1.00
C149   C     0.13244   0.47623   0.02021   0.00000  Uiso   1.00
C150   C     0.20089   0.52377   0.31312   0.00000  Uiso   1.00
C151   C     0.13248   0.47621   0.30396   0.00000  Uiso   1.00
C152   C     0.20085   0.52379   0.02937   0.00000  Uiso   1.00
C153   C     0.19492   0.37439   0.05303   0.00000  Uiso   1.00
C154   C     0.13841   0.62560   0.28030   0.00000  Uiso   1.00
C155   C     0.16616   0.57925   0.16688   0.00000  Uiso   1.00
C156   C     0.06791   0.49998   0.15457   0.00000  Uiso   1.00
C157   C     0.26542   0.50001   0.17876   0.00000  Uiso   1.00
C158   C     0.01263   0.49999   0.14791   0.00000  Uiso   1.00
C159   C     0.32071   0.50001   0.18542   0.00000  Uiso   1.00
C160   C     0.19246   0.35384   0.13347   0.00000  Uiso   1.00
C161   C     0.14087   0.64616   0.19987   0.00000  Uiso   1.00
C162   C     0.19195   0.64439   0.13474   0.00000  Uiso   1.00
Cu163  Cu    0.16667   0.50001   0.21355   0.00000  Uiso   1.00
Cu164  Cu    0.16667   0.49999   0.11978   0.00000  Uiso   1.00
H165   H     0.32596   0.50000   0.11193   0.00000  Uiso   1.00
H166   H     0.19319   0.34266   0.03799   0.00000  Uiso   1.00
H167   H     0.21668   0.39434   0.03129   0.00000  Uiso   1.00
H168   H     0.15520   0.38672   0.05148   0.00000  Uiso   1.00
H169   H     0.07525   0.63593   0.23009   0.00000  Uiso   1.00
H170   H     0.14015   0.65733   0.29534   0.00000  Uiso   1.00
H171   H     0.17813   0.61327   0.28186   0.00000  Uiso   1.00
H172   H     0.11665   0.60566   0.30204   0.00000  Uiso   1.00
H173   H     0.00737   0.50000   0.22140   0.00000  Uiso   1.00
H174   H     0.21214   0.62718   0.11031   0.00000  Uiso   1.00
H175   H     0.12120   0.37282   0.22302   0.00000  Uiso   1.00
H176   H     0.10506   0.45714   0.03522   0.00000  Uiso   1.00
H177   H     0.22828   0.54286   0.29811   0.00000  Uiso   1.00
H178   H     0.10516   0.45706   0.28164   0.00000  Uiso   1.00
H179   H     0.22818   0.54294   0.05170   0.00000  Uiso   1.00
H180   H     0.25808   0.36407   0.10324   0.00000  Uiso   1.00
N181   N     0.16668   0.50001   0.28403   0.00000  Uiso   1.00
N182   N     0.16665   0.49999   0.04931   0.00000  Uiso   1.00
N183   N     0.22057   0.37423   0.10124   0.00000  Uiso   1.00
N184   N     0.11276   0.62577   0.23209   0.00000  Uiso   1.00
O185   O     0.16666   0.43989   0.20625   0.00000  Uiso   1.00
O186   O     0.16667   0.56011   0.12709   0.00000  Uiso   1.00
O187   O     0.16666   0.43988   0.12706   0.00000  Uiso   1.00
O188   O     0.16667   0.56012   0.20628   0.00000  Uiso   1.00
O189   O     0.09161   0.50000   0.19712   0.00000  Uiso   1.00
O190   O     0.24172   0.50000   0.13621   0.00000  Uiso   1.00
O191   O     0.09161   0.49999   0.11793   0.00000  Uiso   1.00
O192   O     0.24172   0.50001   0.21540   0.00000  Uiso   1.00
C193   C     0.50051   0.42075   0.16646   0.00000  Uiso   1.00
C194   C     0.47472   0.35561   0.19860   0.00000  Uiso   1.00
C195   C     0.49954   0.62386   0.16745   0.00000  Uiso   1.00
C196   C     0.50046   0.37614   0.16589   0.00000  Uiso   1.00
C197   C     0.46577   0.47623   0.02021   0.00000  Uiso   1.00
C198   C     0.53423   0.52377   0.31312   0.00000  Uiso   1.00
C199   C     0.46582   0.47621   0.30396   0.00000  Uiso   1.00
C200   C     0.53419   0.52379   0.02937   0.00000  Uiso   1.00
C201   C     0.52825   0.37439   0.05303   0.00000  Uiso   1.00
C202   C     0.47175   0.62560   0.28030   0.00000  Uiso   1.00
C203   C     0.49949   0.57925   0.16688   0.00000  Uiso   1.00
C204   C     0.40125   0.49998   0.15457   0.00000  Uiso   1.00
C205   C     0.59875   0.50001   0.17876   0.00000  Uiso   1.00
C206   C     0.34596   0.49999   0.14791   0.00000  Uiso   1.00
C207   C     0.65404   0.50001   0.18542   0.00000  Uiso   1.00
C208   C     0.52580   0.35384   0.13347   0.00000  Uiso   1.00
C209   C     0.47420   0.64616   0.19987   0.00000  Uiso   1.00
C210   C     0.52528   0.64439   0.13474   0.00000  Uiso   1.00
Cu211  Cu    0.50000   0.50001   0.21355   0.00000  Uiso   1.00
Cu212  Cu    0.50000   0.49999   0.11978   0.00000  Uiso   1.00
H213   H     0.65929   0.50000   0.11193   0.00000  Uiso   1.00
H214   H     0.52652   0.34266   0.03799   0.00000  Uiso   1.00
H215   H     0.55001   0.39434   0.03129   0.00000  Uiso   1.00
H216   H     0.48854   0.38672   0.05148   0.00000  Uiso   1.00
H217   H     0.40858   0.63593   0.23009   0.00000  Uiso   1.00
H218   H     0.47348   0.65733   0.29534   0.00000  Uiso   1.00
H219   H     0.51146   0.61327   0.28186   0.00000  Uiso   1.00
H220   H     0.44999   0.60566   0.30204   0.00000  Uiso   1.00
H221   H     0.34071   0.50000   0.22140   0.00000  Uiso   1.00
H222   H     0.54547   0.62718   0.11031   0.00000  Uiso   1.00
H223   H     0.45453   0.37282   0.22302   0.00000  Uiso   1.00
H224   H     0.43839   0.45714   0.03522   0.00000  Uiso   1.00
H225   H     0.56161   0.54286   0.29811   0.00000  Uiso   1.00
H226   H     0.43849   0.45706   0.28164   0.00000  Uiso   1.00
H227   H     0.56151   0.54294   0.05170   0.00000  Uiso   1.00
H228   H     0.59142   0.36407   0.10324   0.00000  Uiso   1.00
N229   N     0.50001   0.50001   0.28403   0.00000  Uiso   1.00
N230   N     0.49999   0.49999   0.04931   0.00000  Uiso   1.00
N231   N     0.55390   0.37423   0.10124   0.00000  Uiso   1.00
N232   N     0.44610   0.62577   0.23209   0.00000  Uiso   1.00
O233   O     0.50000   0.43989   0.20625   0.00000  Uiso   1.00
O234   O     0.50000   0.56011   0.12709   0.00000  Uiso   1.00
O235   O     0.50000   0.43988   0.12706   0.00000  Uiso   1.00
O236   O     0.50000   0.56012   0.20628   0.00000  Uiso   1.00
O237   O     0.42495   0.50000   0.19712   0.00000  Uiso   1.00
O238   O     0.57505   0.50000   0.13621   0.00000  Uiso   1.00
O239   O     0.42494   0.49999   0.11793   0.00000  Uiso   1.00
O240   O     0.57506   0.50001   0.21540   0.00000  Uiso   1.00
C241   C     0.83384   0.42075   0.16646   0.00000  Uiso   1.00
C242   C     0.80805   0.35561   0.19860   0.00000  Uiso   1.00
C243   C     0.83287   0.62386   0.16745   0.00000  Uiso   1.00
C244   C     0.83379   0.37614   0.16589   0.00000  Uiso   1.00
C245   C     0.79911   0.47623   0.02021   0.00000  Uiso   1.00
C246   C     0.86756   0.52377   0.31312   0.00000  Uiso   1.00
C247   C     0.79915   0.47621   0.30396   0.00000  Uiso   1.00
C248   C     0.86752   0.52379   0.02937   0.00000  Uiso   1.00
C249   C     0.86159   0.37439   0.05303   0.00000  Uiso   1.00
C250   C     0.80508   0.62560   0.28030   0.00000  Uiso   1.00
C251   C     0.83283   0.57925   0.16688   0.00000  Uiso   1.00
C252   C     0.73458   0.49998   0.15457   0.00000  Uiso   1.00
C253   C     0.93209   0.50001   0.17876   0.00000  Uiso   1.00
C254   C     0.67929   0.49999   0.14791   0.00000  Uiso   1.00
C255   C     0.98737   0.50001   0.18542   0.00000  Uiso   1.00
C256   C     0.85913   0.35384   0.13347   0.00000  Uiso   1.00
C257   C     0.80754   0.64616   0.19987   0.00000  Uiso   1.00
C258   C     0.85862   0.64439   0.13474   0.00000  Uiso   1.00
Cu259  Cu    0.83333   0.50001   0.21355   0.00000  Uiso   1.00
Cu260  Cu    0.83333   0.49999   0.11978   0.00000  Uiso   1.00
H261   H     0.99263   0.50000   0.11193   0.00000  Uiso   1.00
H262   H     0.85985   0.34266   0.03799   0.00000  Uiso   1.00
H263   H     0.88335   0.39434   0.03129   0.00000  Uiso   1.00
H264   H     0.82187   0.38672   0.05148   0.00000  Uiso   1.00
H265   H     0.74192   0.63593   0.23009   0.00000  Uiso   1.00
H266   H     0.80682   0.65733   0.29534   0.00000  Uiso   1.00
H267   H     0.84480   0.61327   0.28186   0.00000  Uiso   1.00
H268   H     0.78332   0.60566   0.30204   0.00000  Uiso   1.00
H269   H     0.67404   0.50000   0.22140   0.00000  Uiso   1.00
H270   H     0.87880   0.62718   0.11031   0.00000  Uiso   1.00
H271   H     0.78786   0.37282   0.22302   0.00000  Uiso   1.00
H272   H     0.77172   0.45714   0.03522   0.00000  Uiso   1.00
H273   H     0.89494   0.54286   0.29811   0.00000  Uiso   1.00
H274   H     0.77182   0.45706   0.28164   0.00000  Uiso   1.00
H275   H     0.89485   0.54294   0.05170   0.00000  Uiso   1.00
H276   H     0.92475   0.36407   0.10324   0.00000  Uiso   1.00
N277   N     0.83335   0.50001   0.28403   0.00000  Uiso   1.00
N278   N     0.83332   0.49999   0.04931   0.00000  Uiso   1.00
N279   N     0.88724   0.37423   0.10124   0.00000  Uiso   1.00
N280   N     0.77943   0.62577   0.23209   0.00000  Uiso   1.00
O281   O     0.83333   0.43989   0.20625   0.00000  Uiso   1.00
O282   O     0.83334   0.56011   0.12709   0.00000  Uiso   1.00
O283   O     0.83333   0.43988   0.12706   0.00000  Uiso   1.00
O284   O     0.83334   0.56012   0.20628   0.00000  Uiso   1.00
O285   O     0.75828   0.50000   0.19712   0.00000  Uiso   1.00
O286   O     0.90839   0.50000   0.13621   0.00000  Uiso   1.00
O287   O     0.75828   0.49999   0.11793   0.00000  Uiso   1.00
O288   O     0.90839   0.50001   0.21540   0.00000  Uiso   1.00
C289   C     0.16717   0.75408   0.16646   0.00000  Uiso   1.00
C290   C     0.14138   0.68894   0.19860   0.00000  Uiso   1.00
C291   C     0.16621   0.95719   0.16745   0.00000  Uiso   1.00
C292   C     0.16713   0.70947   0.16589   0.00000  Uiso   1.00
C293   C     0.13244   0.80956   0.02021   0.00000  Uiso   1.00
C294   C     0.20089   0.85710   0.31312   0.00000  Uiso   1.00
C295   C     0.13248   0.80954   0.30396   0.00000  Uiso   1.00
C296   C     0.20085   0.85713   0.02937   0.00000  Uiso   1.00
C297   C     0.19492   0.70773   0.05303   0.00000  Uiso   1.00
C298   C     0.13841   0.95894   0.28030   0.00000  Uiso   1.00
C299   C     0.16616   0.91258   0.16688   0.00000  Uiso   1.00
C300   C     0.06791   0.83332   0.15457   0.00000  Uiso   1.00
C301   C     0.26542   0.83335   0.17876   0.00000  Uiso   1.00
C302   C     0.01263   0.83333   0.14791   0.00000  Uiso   1.00
C303   C     0.32071   0.83334   0.18542   0.00000  Uiso   1.00
C304   C     0.19246   0.68718   0.13347   0.00000  Uiso   1.00
C305   C     0.14087   0.97949   0.19987   0.00000  Uiso   1.00
C306   C     0.19195   0.97772   0.13474   0.00000  Uiso   1.00
Cu307  Cu    0.16667   0.83334   0.21355   0.00000  Uiso   1.00
Cu308  Cu    0.16667   0.83333   0.11978   0.00000  Uiso   1.00
H309   H     0.32596   0.83333   0.11193   0.00000  Uiso   1.00
H310   H     0.19319   0.67600   0.03799   0.00000  Uiso   1.00
H311   H     0.21668   0.72767   0.03129   0.00000  Uiso   1.00
H312   H     0.15520   0.72006   0.05148   0.00000  Uiso   1.00
H313   H     0.07525   0.96927   0.23009   0.00000  Uiso   1.00
H314   H     0.14015   0.99067   0.29534   0.00000  Uiso   1.00
H315   H     0.17813   0.94661   0.28186   0.00000  Uiso   1.00
H316   H     0.11665   0.93899   0.30204   0.00000  Uiso   1.00
H317   H     0.00737   0.83333   0.22140   0.00000  Uiso   1.00
H318   H     0.21214   0.96051   0.11031   0.00000  Uiso   1.00
H319   H     0.12120   0.70616   0.22302   0.00000  Uiso   1.00
H320   H     0.10506   0.79047   0.03522   0.00000  Uiso   1.00
H321   H     0.22828   0.87619   0.29811   0.00000  Uiso   1.00
H322   H     0.10516   0.79040   0.28164   0.00000  Uiso   1.00
H323   H     0.22818   0.87627   0.05170   0.00000  Uiso   1.00
H324   H     0.25808   0.69740   0.10324   0.00000  Uiso   1.00
N325   N     0.16668   0.83334   0.28403   0.00000  Uiso   1.00
N326   N     0.16665   0.83332   0.04931   0.00000  Uiso   1.00
N327   N     0.22057   0.70756   0.10124   0.00000  Uiso   1.00
N328   N     0.11276   0.95910   0.23209   0.00000  Uiso   1.00
O329   O     0.16666   0.77322   0.20625   0.00000  Uiso   1.00
O330   O     0.16667   0.89345   0.12709   0.00000  Uiso   1.00
O331   O     0.16666   0.77321   0.12706   0.00000  Uiso   1.00
O332   O     0.16667   0.89346   0.20628   0.00000  Uiso   1.00
O333   O     0.09161   0.83334   0.19712   0.00000  Uiso   1.00
O334   O     0.24172   0.83333   0.13621   0.00000  Uiso   1.00
O335   O     0.09161   0.83333   0.11793   0.00000  Uiso   1.00
O336   O     0.24172   0.83334   0.21540   0.00000  Uiso   1.00
C337   C     0.50051   0.75408   0.16646   0.00000  Uiso   1.00
C338   C     0.47472   0.68894   0.19860   0.00000  Uiso   1.00
C339   C     0.49954   0.95719   0.16745   0.00000  Uiso   1.00
C340   C     0.50046   0.70947   0.16589   0.00000  Uiso   1.00
C341   C     0.46577   0.80956   0.02021   0.00000  Uiso   1.00
C342   C     0.53423   0.85710   0.31312   0.00000  Uiso   1.00
C343   C     0.46582   0.80954   0.30396   0.00000  Uiso   1.00
C344   C     0.53419   0.85713   0.02937   0.00000  Uiso   1.00
C345   C     0.52825   0.70773   0.05303   0.00000  Uiso   1.00
C346   C     0.47175   0.95894   0.28030   0.00000  Uiso   1.00
C347   C     0.49949   0.91258   0.16688   0.00000  Uiso   1.00
C348   C     0.40125   0.83332   0.15457   0.00000  Uiso   1.00
C349   C     0.59875   0.83335   0.17876   0.00000  Uiso   1.00
C350   C     0.34596   0.83333   0.14791   0.00000  Uiso   1.00
C351   C     0.65404   0.83334   0.18542   0.00000  Uiso   1.00
C352   C     0.52580   0.68718   0.13347   0.00000  Uiso   1.00
C353   C     0.47420   0.97949   0.19987   0.00000  Uiso   1.00
C354   C     0.52528   0.97772   0.13474   0.00000  Uiso   1.00
Cu355  Cu    0.50000   0.83334   0.21355   0.00000  Uiso   1.00
Cu356  Cu    0.50000   0.83333   0.11978   0.00000  Uiso   1.00
H357   H     0.65929   0.83333   0.11193   0.00000  Uiso   1.00
H358   H     0.52652   0.67600   0.03799   0.00000  Uiso   1.00
H359   H     0.55001   0.72767   0.03129   0.00000  Uiso   1.00
H360   H     0.48854   0.72006   0.05148   0.00000  Uiso   1.00
H361   H     0.40858   0.96927   0.23009   0.00000  Uiso   1.00
H362   H     0.47348   0.99067   0.29534   0.00000  Uiso   1.00
H363   H     0.51146   0.94661   0.28186   0.00000  Uiso   1.00
H364   H     0.44999   0.93899   0.30204   0.00000  Uiso   1.00
H365   H     0.34071   0.83333   0.22140   0.00000  Uiso   1.00
H366   H     0.54547   0.96051   0.11031   0.00000  Uiso   1.00
H367   H     0.45453   0.70616   0.22302   0.00000  Uiso   1.00
H368   H     0.43839   0.79047   0.03522   0.00000  Uiso   1.00
H369   H     0.56161   0.87619   0.29811   0.00000  Uiso   1.00
H370   H     0.43849   0.79040   0.28164   0.00000  Uiso   1.00
H371   H     0.56151   0.87627   0.05170   0.00000  Uiso   1.00
H372   H     0.59142   0.69740   0.10324   0.00000  Uiso   1.00
N373   N     0.50001   0.83334   0.28403   0.00000  Uiso   1.00
N374   N     0.49999   0.83332   0.04931   0.00000  Uiso   1.00
N375   N     0.55390   0.70756   0.10124   0.00000  Uiso   1.00
N376   N     0.44610   0.95910   0.23209   0.00000  Uiso   1.00
O377   O     0.50000   0.77322   0.20625   0.00000  Uiso   1.00
O378   O     0.50000   0.89345   0.12709   0.00000  Uiso   1.00
O379   O     0.50000   0.77321   0.12706   0.00000  Uiso   1.00
O380   O     0.50000   0.89346   0.20628   0.00000  Uiso   1.00
O381   O     0.42495   0.83334   0.19712   0.00000  Uiso   1.00
O382   O     0.57505   0.83333   0.13621   0.00000  Uiso   1.00
O383   O     0.42494   0.83333   0.11793   0.00000  Uiso   1.00
O384   O     0.57506   0.83334   0.21540   0.00000  Uiso   1.00
C385   C     0.83384   0.75408   0.16646   0.00000  Uiso   1.00
C386   C     0.80805   0.68894   0.19860   0.00000  Uiso   1.00
C387   C     0.83287   0.95719   0.16745   0.00000  Uiso   1.00
C388   C     0.83379   0.70947   0.16589   0.00000  Uiso   1.00
C389   C     0.79911   0.80956   0.02021   0.00000  Uiso   1.00
C390   C     0.86756   0.85710   0.31312   0.00000  Uiso   1.00
C391   C     0.79915   0.80954   0.30396   0.00000  Uiso   1.00
C392   C     0.86752   0.85713   0.02937   0.00000  Uiso   1.00
C393   C     0.86159   0.70773   0.05303   0.00000  Uiso   1.00
C394   C     0.80508   0.95894   0.28030   0.00000  Uiso   1.00
C395   C     0.83283   0.91258   0.16688   0.00000  Uiso   1.00
C396   C     0.73458   0.83332   0.15457   0.00000  Uiso   1.00
C397   C     0.93209   0.83335   0.17876   0.00000  Uiso   1.00
C398   C     0.67929   0.83333   0.14791   0.00000  Uiso   1.00
C399   C     0.98737   0.83334   0.18542   0.00000  Uiso   1.00
C400   C     0.85913   0.68718   0.13347   0.00000  Uiso   1.00
C401   C     0.80754   0.97949   0.19987   0.00000  Uiso   1.00
C402   C     0.85862   0.97772   0.13474   0.00000  Uiso   1.00
Cu403  Cu    0.83333   0.83334   0.21355   0.00000  Uiso   1.00
Cu404  Cu    0.83333   0.83333   0.11978   0.00000  Uiso   1.00
H405   H     0.99263   0.83333   0.11193   0.00000  Uiso   1.00
H406   H     0.85985   0.67600   0.03799   0.00000  Uiso   1.00
H407   H     0.88335   0.72767   0.03129   0.00000  Uiso   1.00
H408   H     0.82187   0.72006   0.05148   0.00000  Uiso   1.00
H409   H     0.74192   0.96927   0.23009   0.00000  Uiso   1.00
H410   H     0.80682   0.99067   0.29534   0.00000  Uiso   1.00
H411   H     0.84480   0.94661   0.28186   0.00000  Uiso   1.00
H412   H     0.78332   0.93899   0.30204   0.00000  Uiso   1.00
H413   H     0.67404   0.83333   0.22140   0.00000  Uiso   1.00
H414   H     0.87880   0.96051   0.11031   0.00000  Uiso   1.00
H415   H     0.78786   0.70616   0.22302   0.00000  Uiso   1.00
H416   H     0.77172   0.79047   0.03522   0.00000  Uiso   1.00
H417   H     0.89494   0.87619   0.29811   0.00000  Uiso   1.00
H418   H     0.77182   0.79040   0.28164   0.00000  Uiso   1.00
H419   H     0.89485   0.87627   0.05170   0.00000  Uiso   1.00
H420   H     0.92475   0.69740   0.10324   0.00000  Uiso   1.00
N421   N     0.83335   0.83334   0.28403   0.00000  Uiso   1.00
N422   N     0.83332   0.83332   0.04931   0.00000  Uiso   1.00
N423   N     0.88724   0.70756   0.10124   0.00000  Uiso   1.00
N424   N     0.77943   0.95910   0.23209   0.00000  Uiso   1.00
O425   O     0.83333   0.77322   0.20625   0.00000  Uiso   1.00
O426   O     0.83334   0.89345   0.12709   0.00000  Uiso   1.00
O427   O     0.83333   0.77321   0.12706   0.00000  Uiso   1.00
O428   O     0.83334   0.89346   0.20628   0.00000  Uiso   1.00
O429   O     0.75828   0.83334   0.19712   0.00000  Uiso   1.00
O430   O     0.90839   0.83333   0.13621   0.00000  Uiso   1.00
O431   O     0.75828   0.83333   0.11793   0.00000  Uiso   1.00
O432   O     0.90839   0.83334   0.21540   0.00000  Uiso   1.00
C433   C     0.16717   0.08742   0.49979   0.00000  Uiso   1.00
C434   C     0.14138   0.02228   0.53193   0.00000  Uiso   1.00
C435   C     0.16621   0.29053   0.50078   0.00000  Uiso   1.00
C436   C     0.16713   0.04281   0.49922   0.00000  Uiso   1.00
C437   C     0.13244   0.14290   0.35355   0.00000  Uiso   1.00
C438   C     0.20089   0.19044   0.64645   0.00000  Uiso   1.00
C439   C     0.13248   0.14287   0.63730   0.00000  Uiso   1.00
C440   C     0.20085   0.19046   0.36270   0.00000  Uiso   1.00
C441   C     0.19492   0.04106   0.38636   0.00000  Uiso   1.00
C442   C     0.13841   0.29227   0.61364   0.00000  Uiso   1.00
C443   C     0.16616   0.24592   0.50021   0.00000  Uiso   1.00
C444   C     0.06791   0.16665   0.48790   0.00000  Uiso   1.00
C445   C     0.26542   0.16668   0.51210   0.00000  Uiso   1.00
C446   C     0.01263   0.16666   0.48124   0.00000  Uiso   1.00
C447   C     0.32071   0.16667   0.51876   0.00000  Uiso   1.00
C448   C     0.19246   0.02051   0.46680   0.00000  Uiso   1.00
C449   C     0.14087   0.31282   0.53320   0.00000  Uiso   1.00
C450   C     0.19195   0.31106   0.46807   0.00000  Uiso   1.00
Cu451  Cu    0.16667   0.16667   0.54689   0.00000  Uiso   1.00
Cu452  Cu    0.16667   0.16666   0.45311   0.00000  Uiso   1.00
H453   H     0.32596   0.16667   0.44526   0.00000  Uiso   1.00
H454   H     0.19319   0.00933   0.37132   0.00000  Uiso   1.00
H455   H     0.21668   0.06101   0.36462   0.00000  Uiso   1.00
H456   H     0.15520   0.05339   0.38481   0.00000  Uiso   1.00
H457   H     0.07525   0.30260   0.56343   0.00000  Uiso   1.00
H458   H     0.14015   0.32400   0.62868   0.00000  Uiso   1.00
H459   H     0.17813   0.27994   0.61519   0.00000  Uiso   1.00
H460   H     0.11665   0.27233   0.63538   0.00000  Uiso   1.00
H461   H     0.00737   0.16667   0.55474   0.00000  Uiso   1.00
H462   H     0.21214   0.29384   0.44365   0.00000  Uiso   1.00
H463   H     0.12120   0.03949   0.55635   0.00000  Uiso   1.00
H464   H     0.10506   0.12380   0.36855   0.00000  Uiso   1.00
H465   H     0.22828   0.20953   0.63145   0.00000  Uiso   1.00
H466   H     0.10516   0.12373   0.61497   0.00000  Uiso   1.00
H467   H     0.22818   0.20960   0.38503   0.00000  Uiso   1.00
H468   H     0.25808   0.03074   0.43657   0.00000  Uiso   1.00
N469   N     0.16668   0.16668   0.61736   0.00000  Uiso   1.00
N470   N     0.16665   0.16666   0.38264   0.00000  Uiso   1.00
N471   N     0.22057   0.04090   0.43457   0.00000  Uiso   1.00
N472   N     0.11276   0.29244   0.56543   0.00000  Uiso   1.00
O473   O     0.16666   0.10655   0.53958   0.00000  Uiso   1.00
O474   O     0.16667   0.22678   0.46042   0.00000  Uiso   1.00
O475   O     0.16666   0.10654   0.46039   0.00000  Uiso   1.00
O476   O     0.16667   0.22679   0.53961   0.00000  Uiso   1.00
O477   O     0.09161   0.16667   0.53046   0.00000  Uiso   1.00
O478   O     0.24172   0.16666   0.46954   0.00000  Uiso   1.00
O479   O     0.09161   0.16666   0.45127   0.00000  Uiso   1.00
O480   O     0.24172   0.16667   0.54873   0.00000  Uiso   1.00
C481   C     0.50051   0.08742   0.49979   0.00000  Uiso   1.00
C482   C     0.47472   0.02228   0.53193   0.00000  Uiso   1.00
C483   C     0.49954   0.29053   0.50078   0.00000  Uiso   1.00
C484   C     0.50046   0.04281   0.49922   0.00000  Uiso   1.00
C485   C     0.46577   0.14290   0.35355   0.00000  Uiso   1.00
C486   C     0.53423   0.19044   0.64645   0.00000  Uiso   1.00
C487   C     0.46582   0.14287   0.63730   0.00000  Uiso   1.00
C488   C     0.53419   0.19046   0.36270   0.00000  Uiso   1.00
C489   C     0.52825   0.04106   0.38636   0.00000  Uiso   1.00
C490   C     0.47175   0.29227   0.61364   0.00000  Uiso   1.00
C491   C     0.49949   0.24592   0.50021   0.00000  Uiso   1.00
C492   C     0.40125   0.16665   0.48790   0.00000  Uiso   1.00
C493   C     0.59875   0.16668   0.51210   0.00000  Uiso   1.00
C494   C     0.34596   0.16666   0.48124   0.00000  Uiso   1.00
C495   C     0.65404   0.16667   0.51876   0.00000  Uiso   1.00
C496   C     0.52580   0.02051   0.46680   0.00000  Uiso   1.00
C497   C     0.47420   0.31282   0.53320   0.00000  Uiso   1.00
C498   C     0.52528   0.31106   0.46807   0.00000  Uiso   1.00
Cu499  Cu    0.50000   0.16667   0.54689   0.00000  Uiso   1.00
Cu500  Cu    0.50000   0.16666   0.45311   0.00000  Uiso   1.00
H501   H     0.65929   0.16667   0.44526   0.00000  Uiso   1.00
H502   H     0.52652   0.00933   0.37132   0.00000  Uiso   1.00
H503   H     0.55001   0.06101   0.36462   0.00000  Uiso   1.00
H504   H     0.48854   0.05339   0.38481   0.00000  Uiso   1.00
H505   H     0.40858   0.30260   0.56343   0.00000  Uiso   1.00
H506   H     0.47348   0.32400   0.62868   0.00000  Uiso   1.00
H507   H     0.51146   0.27994   0.61519   0.00000  Uiso   1.00
H508   H     0.44999   0.27233   0.63538   0.00000  Uiso   1.00
H509   H     0.34071   0.16667   0.55474   0.00000  Uiso   1.00
H510   H     0.54547   0.29384   0.44365   0.00000  Uiso   1.00
H511   H     0.45453   0.03949   0.55635   0.00000  Uiso   1.00
H512   H     0.43839   0.12380   0.36855   0.00000  Uiso   1.00
H513   H     0.56161   0.20953   0.63145   0.00000  Uiso   1.00
H514   H     0.43849   0.12373   0.61497   0.00000  Uiso   1.00
H515   H     0.56151   0.20960   0.38503   0.00000  Uiso   1.00
H516   H     0.59142   0.03074   0.43657   0.00000  Uiso   1.00
N517   N     0.50001   0.16668   0.61736   0.00000  Uiso   1.00
N518   N     0.49999   0.16666   0.38264   0.00000  Uiso   1.00
N519   N     0.55390   0.04090   0.43457   0.00000  Uiso   1.00
N520   N     0.44610   0.29244   0.56543   0.00000  Uiso   1.00
O521   O     0.50000   0.10655   0.53958   0.00000  Uiso   1.00
O522   O     0.50000   0.22678   0.46042   0.00000  Uiso   1.00
O523   O     0.50000   0.10654   0.46039   0.00000  Uiso   1.00
O524   O     0.50000   0.22679   0.53961   0.00000  Uiso   1.00
O525   O     0.42495   0.16667   0.53046   0.00000  Uiso   1.00
O526   O     0.57505   0.16666   0.46954   0.00000  Uiso   1.00
O527   O     0.42494   0.16666   0.45127   0.00000  Uiso   1.00
O528   O     0.57506   0.16667   0.54873   0.00000  Uiso   1.00
C529   C     0.83384   0.08742   0.49979   0.00000  Uiso   1.00
C530   C     0.80805   0.02228   0.53193   0.00000  Uiso   1.00
C531   C     0.83287   0.29053   0.50078   0.00000  Uiso   1.00
C532   C     0.83379   0.04281   0.49922   0.00000  Uiso   1.00
C533   C     0.79911   0.14290   0.35355   0.00000  Uiso   1.00
C534   C     0.86756   0.19044   0.64645   0.00000  Uiso   1.00
C535   C     0.79915   0.14287   0.63730   0.00000  Uiso   1.00
C536   C     0.86752   0.19046   0.36270   0.00000  Uiso   1.00
C537   C     0.86159   0.04106   0.38636   0.00000  Uiso   1.00
C538   C     0.80508   0.29227   0.61364   0.00000  Uiso   1.00
C539   C     0.83283   0.24592   0.50021   0.00000  Uiso   1.00
C540   C     0.73458   0.16665   0.48790   0.00000  Uiso   1.00
C541   C     0.93209   0.16668   0.51210   0.00000  Uiso   1.00
C542   C     0.67929   0.16666   0.48124   0.00000  Uiso   1.00
C543   C     0.98737   0.16667   0.51876   0.00000  Uiso   1.00
C544   C     0.85913   0.02051   0.46680   0.00000  Uiso   1.00
C545   C     0.80754   0.31282   0.53320   0.00000  Uiso   1.00
C546   C     0.85862   0.31106   0.46807   0.00000  Uiso   1.00
Cu547  Cu    0.83333   0.16667   0.54689   0.00000  Uiso   1.00
Cu548  Cu    0.83333   0.16666   0.45311   0.00000  Uiso   1.00
H549   H     0.99263   0.16667   0.44526   0.00000  Uiso   1.00
H550   H     0.85985   0.00933   0.37132   0.00000  Uiso   1.00
H551   H     0.88335   0.06101   0.36462   0.00000  Uiso   1.00
H552   H     0.82187   0.05339   0.38481   0.00000  Uiso   1.00
H553   H     0.74192   0.30260   0.56343   0.00000  Uiso   1.00
H554   H     0.80682   0.32400   0.62868   0.00000  Uiso   1.00
H555   H     0.84480   0.27994   0.61519   0.00000  Uiso   1.00
H556   H     0.78332   0.27233   0.63538   0.00000  Uiso   1.00
H557   H     0.67404   0.16667   0.55474   0.00000  Uiso   1.00
H558   H     0.87880   0.29384   0.44365   0.00000  Uiso   1.00
H559   H     0.78786   0.03949   0.55635   0.00000  Uiso   1.00
H560   H     0.77172   0.12380   0.36855   0.00000  Uiso   1.00
H561   H     0.89494   0.20953   0.63145   0.00000  Uiso   1.00
H562   H     0.77182   0.12373   0.61497   0.00000  Uiso   1.00
H563   H     0.89485   0.20960   0.38503   0.00000  Uiso   1.00
H564   H     0.92475   0.03074   0.43657   0.00000  Uiso   1.00
N565   N     0.83335   0.16668   0.61736   0.00000  Uiso   1.00
N566   N     0.83332   0.16666   0.38264   0.00000  Uiso   1.00
N567   N     0.88724   0.04090   0.43457   0.00000  Uiso   1.00
N568   N     0.77943   0.29244   0.56543   0.00000  Uiso   1.00
O569   O     0.83333   0.10655   0.53958   0.00000  Uiso   1.00
O570   O     0.83334   0.22678   0.46042   0.00000  Uiso   1.00
O571   O     0.83333   0.10654   0.46039   0.00000  Uiso   1.00
O572   O     0.83334   0.22679   0.53961   0.00000  Uiso   1.00
O573   O     0.75828   0.16667   0.53046   0.00000  Uiso   1.00
O574   O     0.90839   0.16666   0.46954   0.00000  Uiso   1.00
O575   O     0.75828   0.16666   0.45127   0.00000  Uiso   1.00
O576   O     0.90839   0.16667   0.54873   0.00000  Uiso   1.00
C577   C     0.16717   0.42075   0.49979   0.00000  Uiso   1.00
C578   C     0.14138   0.35561   0.53193   0.00000  Uiso   1.00
C579   C     0.16621   0.62386   0.50078   0.00000  Uiso   1.00
C580   C     0.16713   0.37614   0.49922   0.00000  Uiso   1.00
C581   C     0.13244   0.47623   0.35355   0.00000  Uiso   1.00
C582   C     0.20089   0.52377   0.64645   0.00000  Uiso   1.00
C583   C     0.13248   0.47621   0.63730   0.00000  Uiso   1.00
C584   C     0.20085   0.52379   0.36270   0.00000  Uiso   1.00
C585   C     0.19492   0.37439   0.38636   0.00000  Uiso   1.00
C586   C     0.13841   0.62560   0.61364   0.00000  Uiso   1.00
C587   C     0.16616   0.57925   0.50021   0.00000  Uiso   1.00
C588   C     0.06791   0.49998   0.48790   0.00000  Uiso   1.00
C589   C     0.26542   0.50001   0.51210   0.00000  Uiso   1.00
C590   C     0.01263   0.49999   0.48124   0.00000  Uiso   1.00
C591   C     0.32071   0.50001   0.51876   0.00000  Uiso   1.00
C592   C     0.19246   0.35384   0.46680   0.00000  Uiso   1.00
C593   C     0.14087   0.64616   0.53320   0.00000  Uiso   1.00
C594   C     0.19195   0.64439   0.46807   0.00000  Uiso   1.00
Cu595  Cu    0.16667   0.50001   0.54689   0.00000  Uiso   1.00
Cu596  Cu    0.16667   0.49999   0.45311   0.00000  Uiso   1.00
H597   H     0.32596   0.50000   0.44526   0.00000  Uiso   1.00
H598   H     0.19319   0.34266   0.37132   0.00000  Uiso   1.00
H599   H     0.21668   0.39434   0.36462   0.00000  Uiso   1.00
H600   H     0.15520   0.38672   0.38481   0.00000  Uiso   1.00
H601   H     0.07525   0.63593   0.56343   0.00000  Uiso   1.00
H602   H     0.14015   0.65733   0.62868   0.00000  Uiso   1.00
H603   H     0.17813   0.61327   0.61519   0.00000  Uiso   1.00
H604   H     0.11665   0.60566   0.63538   0.00000  Uiso   1.00
H605   H     0.00737   0.50000   0.55474   0.00000  Uiso   1.00
H606   H     0.21214   0.62718   0.44365   0.00000  Uiso   1.00
H607   H     0.12120   0.37282   0.55635   0.00000  Uiso   1.00
H608   H     0.10506   0.45714   0.36855   0.00000  Uiso   1.00
H609   H     0.22828   0.54286   0.63145   0.00000  Uiso   1.00
H610   H     0.10516   0.45706   0.61497   0.00000  Uiso   1.00
H611   H     0.22818   0.54294   0.38503   0.00000  Uiso   1.00
H612   H     0.25808   0.36407   0.43657   0.00000  Uiso   1.00
N613   N     0.16668   0.50001   0.61736   0.00000  Uiso   1.00
N614   N     0.16665   0.49999   0.38264   0.00000  Uiso   1.00
N615   N     0.22057   0.37423   0.43457   0.00000  Uiso   1.00
N616   N     0.11276   0.62577   0.56543   0.00000  Uiso   1.00
O617   O     0.16666   0.43989   0.53958   0.00000  Uiso   1.00
O618   O     0.16667   0.56011   0.46042   0.00000  Uiso   1.00
O619   O     0.16666   0.43988   0.46039   0.00000  Uiso   1.00
O620   O     0.16667   0.56012   0.53961   0.00000  Uiso   1.00
O621   O     0.09161   0.50000   0.53046   0.00000  Uiso   1.00
O622   O     0.24172   0.50000   0.46954   0.00000  Uiso   1.00
O623   O     0.09161   0.49999   0.45127   0.00000  Uiso   1.00
O624   O     0.24172   0.50001   0.54873   0.00000  Uiso   1.00
C625   C     0.50051   0.42075   0.49979   0.00000  Uiso   1.00
C626   C     0.47472   0.35561   0.53193   0.00000  Uiso   1.00
C627   C     0.49954   0.62386   0.50078   0.00000  Uiso   1.00
C628   C     0.50046   0.37614   0.49922   0.00000  Uiso   1.00
C629   C     0.46577   0.47623   0.35355   0.00000  Uiso   1.00
C630   C     0.53423   0.52377   0.64645   0.00000  Uiso   1.00
C631   C     0.46582   0.47621   0.63730   0.00000  Uiso   1.00
C632   C     0.53419   0.52379   0.36270   0.00000  Uiso   1.00
C633   C     0.52825   0.37439   0.38636   0.00000  Uiso   1.00
C634   C     0.47175   0.62560   0.61364   0.00000  Uiso   1.00
C635   C     0.49949   0.57925   0.50021   0.00000  Uiso   1.00
C636   C     0.40125   0.49998   0.48790   0.00000  Uiso   1.00
C637   C     0.59875   0.50001   0.51210   0.00000  Uiso   1.00
C638   C     0.34596   0.49999   0.48124   0.00000  Uiso   1.00
C639   C     0.65404   0.50001   0.51876   0.00000  Uiso   1.00
C640   C     0.52580   0.35384   0.46680   0.00000  Uiso   1.00
C641   C     0.47420   0.64616   0.53320   0.00000  Uiso   1.00
C642   C     0.52528   0.64439   0.46807   0.00000  Uiso   1.00
Cu643  Cu    0.50000   0.50001   0.54689   0.00000  Uiso   1.00
Cu644  Cu    0.50000   0.49999   0.45311   0.00000  Uiso   1.00
H645   H     0.65929   0.50000   0.44526   0.00000  Uiso   1.00
H646   H     0.52652   0.34266   0.37132   0.00000  Uiso   1.00
H647   H     0.55001   0.39434   0.36462   0.00000  Uiso   1.00
H648   H     0.48854   0.38672   0.38481   0.00000  Uiso   1.00
H649   H     0.40858   0.63593   0.56343   0.00000  Uiso   1.00
H650   H     0.47348   0.65733   0.62868   0.00000  Uiso   1.00
H651   H     0.51146   0.61327   0.61519   0.00000  Uiso   1.00
H652   H     0.44999   0.60566   0.63538   0.00000  Uiso   1.00
H653   H     0.34071   0.50000   0.55474   0.00000  Uiso   1.00
H654   H     0.54547   0.62718   0.44365   0.00000  Uiso   1.00
H655   H     0.45453   0.37282   0.55635   0.00000  Uiso   1.00
H656   H     0.43839   0.45714   0.36855   0.00000  Uiso   1.00
H657   H     0.56161   0.54286   0.63145   0.00000  Uiso   1.00
H658   H     0.43849   0.45706   0.61497   0.00000  Uiso   1.00
H659   H     0.56151   0.54294   0.38503   0.00000  Uiso   1.00
H660   H     0.59142   0.36407   0.43657   0.00000  Uiso   1.00
N661   N     0.50001   0.50001   0.61736   0.00000  Uiso   1.00
N662   N     0.49999   0.49999   0.38264   0.00000  Uiso   1.00
N663   N     0.55390   0.37423   0.43457   0.00000  Uiso   1.00
N664   N     0.44610   0.62577   0.56543   0.00000  Uiso   1.00
O665   O     0.50000   0.43989   0.53958   0.00000  Uiso   1.00
O666   O     0.50000   0.56011   0.46042   0.00000  Uiso   1.00
O667   O     0.50000   0.43988   0.46039   0.00000  Uiso   1.00
O668   O     0.50000   0.56012   0.53961   0.00000  Uiso   1.00
O669   O     0.42495   0.50000   0.53046   0.00000  Uiso   1.00
O670   O     0.57505   0.50000   0.46954   0.00000  Uiso   1.00
O671   O     0.42494   0.49999   0.45127   0.00000  Uiso   1.00
O672   O     0.57506   0.50001   0.54873   0.00000  Uiso   1.00
C673   C     0.83384   0.42075   0.49979   0.00000  Uiso   1.00
C674   C     0.80805   0.35561   0.53193   0.00000  Uiso   1.00
C675   C     0.83287   0.62386   0.50078   0.00000  Uiso   1.00
C676   C     0.83379   0.37614   0.49922   0.00000  Uiso   1.00
C677   C     0.79911   0.47623   0.35355   0.00000  Uiso   1.00
C678   C     0.86756   0.52377   0.64645   0.00000  Uiso   1.00
C679   C     0.79915   0.47621   0.63730   0.00000  Uiso   1.00
C680   C     0.86752   0.52379   0.36270   0.00000  Uiso   1.00
C681   C     0.86159   0.37439   0.38636   0.00000  Uiso   1.00
C682   C     0.80508   0.62560   0.61364   0.00000  Uiso   1.00
C683   C     0.83283   0.57925   0.50021   0.00000  Uiso   1.00
C684   C     0.73458   0.49998   0.48790   0.00000  Uiso   1.00
C685   C     0.93209   0.50001   0.51210   0.00000  Uiso   1.00
C686   C     0.67929   0.49999   0.48124   0.00000  Uiso   1.00
C687   C     0.98737   0.50001   0.51876   0.00000  Uiso   1.00
C688   C     0.85913   0.35384   0.46680   0.00000  Uiso   1.00
C689   C     0.80754   0.64616   0.53320   0.00000  Uiso   1.00
C690   C     0.85862   0.64439   0.46807   0.00000  Uiso   1.00
Cu691  Cu    0.83333   0.50001   0.54689   0.00000  Uiso   1.00
Cu692  Cu    0.83333   0.49999   0.45311   0.00000  Uiso   1.00
H693   H     0.99263   0.50000   0.44526   0.00000  Uiso   1.00
H694   H     0.85985   0.34266   0.37132   0.00000  Uiso   1.00
H695   H     0.88335   0.39434   0.36462   0.00000  Uiso   1.00
H696   H     0.82187   0.38672   0.38481   0.00000  Uiso   1.00
H697   H     0.74192   0.63593   0.56343   0.00000  Uiso   1.00
H698   H     0.80682   0.65733   0.62868   0.00000  Uiso   1.00
H699   H     0.84480   0.61327   0.61519   0.00000  Uiso   1.00
H700   H     0.78332   0.60566   0.63538   0.00000  Uiso   1.00
H701   H     0.67404   0.50000   0.55474   0.00000  Uiso   1.00
H702   H     0.87880   0.62718   0.44365   0.00000  Uiso   1.00
H703   H     0.78786   0.37282   0.55635   0.00000  Uiso   1.00
H704   H     0.77172   0.45714   0.36855   0.00000  Uiso   1.00
H705   H     0.89494   0.54286   0.63145   0.00000  Uiso   1.00
H706   H     0.77182   0.45706   0.61497   0.00000  Uiso   1.00
H707   H     0.89485   0.54294   0.38503   0.00000  Uiso   1.00
H708   H     0.92475   0.36407   0.43657   0.00000  Uiso   1.00
N709   N     0.83335   0.50001   0.61736   0.00000  Uiso   1.00
N710   N     0.83332   0.49999   0.38264   0.00000  Uiso   1.00
N711   N     0.88724   0.37423   0.43457   0.00000  Uiso   1.00
N712   N     0.77943   0.62577   0.56543   0.00000  Uiso   1.00
O713   O     0.83333   0.43989   0.53958   0.00000  Uiso   1.00
O714   O     0.83334   0.56011   0.46042   0.00000  Uiso   1.00
O715   O     0.83333   0.43988   0.46039   0.00000  Uiso   1.00
O716   O     0.83334   0.56012   0.53961   0.00000  Uiso   1.00
O717   O     0.75828   0.50000   0.53046   0.00000  Uiso   1.00
O718   O     0.90839   0.50000   0.46954   0.00000  Uiso   1.00
O719   O     0.75828   0.49999   0.45127   0.00000  Uiso   1.00
O720   O     0.90839   0.50001   0.54873   0.00000  Uiso   1.00
C721   C     0.16717   0.75408   0.49979   0.00000  Uiso   1.00
C722   C     0.14138   0.68894   0.53193   0.00000  Uiso   1.00
C723   C     0.16621   0.95719   0.50078   0.00000  Uiso   1.00
C724   C     0.16713   0.70947   0.49922   0.00000  Uiso   1.00
C725   C     0.13244   0.80956   0.35355   0.00000  Uiso   1.00
C726   C     0.20089   0.85710   0.64645   0.00000  Uiso   1.00
C727   C     0.13248   0.80954   0.63730   0.00000  Uiso   1.00
C728   C     0.20085   0.85713   0.36270   0.00000  Uiso   1.00
C729   C     0.19492   0.70773   0.38636   0.00000  Uiso   1.00
C730   C     0.13841   0.95894   0.61364   0.00000  Uiso   1.00
C731   C     0.16616   0.91258   0.50021   0.00000  Uiso   1.00
C732   C     0.06791   0.83332   0.48790   0.00000  Uiso   1.00
C733   C     0.26542   0.83335   0.51210   0.00000  Uiso   1.00
C734   C     0.01263   0.83333   0.48124   0.00000  Uiso   1.00
C735   C     0.32071   0.83334   0.51876   0.00000  Uiso   1.00
C736   C     0.19246   0.68718   0.46680   0.00000  Uiso   1.00
C737   C     0.14087   0.97949   0.53320   0.00000  Uiso   1.00
C738   C     0.19195   0.97772   0.46807   0.00000  Uiso   1.00
Cu739  Cu    0.16667   0.83334   0.54689   0.00000  Uiso   1.00
Cu740  Cu    0.16667   0.83333   0.45311   0.00000  Uiso   1.00
H741   H     0.32596   0.83333   0.44526   0.00000  Uiso   1.00
H742   H     0.19319   0.67600   0.37132   0.00000  Uiso   1.00
H743   H     0.21668   0.72767   0.36462   0.00000  Uiso   1.00
H744   H     0.15520   0.72006   0.38481   0.00000  Uiso   1.00
H745   H     0.07525   0.96927   0.56343   0.00000  Uiso   1.00
H746   H     0.14015   0.99067   0.62868   0.00000  Uiso   1.00
H747   H     0.17813   0.94661   0.61519   0.00000  Uiso   1.00
H748   H     0.11665   0.93899   0.63538   0.00000  Uiso   1.00
H749   H     0.00737   0.83333   0.55474   0.00000  Uiso   1.00
H750   H     0.21214   0.96051   0.44365   0.00000  Uiso   1.00
H751   H     0.12120   0.70616   0.55635   0.00000  Uiso   1.00
H752   H     0.10506   0.79047   0.36855   0.00000  Uiso   1.00
H753   H     0.22828   0.87619   0.63145   0.00000  Uiso   1.00
H754   H     0.10516   0.79040   0.61497   0.00000  Uiso   1.00
H755   H     0.22818   0.87627   0.38503   0.00000  Uiso   1.00
H756   H     0.25808   0.69740   0.43657   0.00000  Uiso   1.00
N757   N     0.16668   0.83334   0.61736   0.00000  Uiso   1.00
N758   N     0.16665   0.83332   0.38264   0.00000  Uiso   1.00
N759   N     0.22057   0.70756   0.43457   0.00000  Uiso   1.00
N760   N     0.11276   0.95910   0.56543   0.00000  Uiso   1.00
O761   O     0.16666   0.77322   0.53958   0.00000  Uiso   1.00
O762   O     0.16667   0.89345   0.46042   0.00000  Uiso   1.00
O763   O     0.16666   0.77321   0.46039   0.00000  Uiso   1.00
O764   O     0.16667   0.89346   0.53961   0.00000  Uiso   1.00
O765   O     0.09161   0.83334   0.53046   0.00000  Uiso   1.00
O766   O     0.24172   0.83333   0.46954   0.00000  Uiso   1.00
O767   O     0.09161   0.83333   0.45127   0.00000  Uiso   1.00
O768   O     0.24172   0.83334   0.54873   0.00000  Uiso   1.00
C769   C     0.50051   0.75408   0.49979   0.00000  Uiso   1.00
C770   C     0.47472   0.68894   0.53193   0.00000  Uiso   1.00
C771   C     0.49954   0.95719   0.50078   0.00000  Uiso   1.00
C772   C     0.50046   0.70947   0.49922   0.00000  Uiso   1.00
C773   C     0.46577   0.80956   0.35355   0.00000  Uiso   1.00
C774   C     0.53423   0.85710   0.64645   0.00000  Uiso   1.00
C775   C     0.46582   0.80954   0.63730   0.00000  Uiso   1.00
C776   C     0.53419   0.85713   0.36270   0.00000  Uiso   1.00
C777   C     0.52825   0.70773   0.38636   0.00000  Uiso   1.00
C778   C     0.47175   0.95894   0.61364   0.00000  Uiso   1.00
C779   C     0.49949   0.91258   0.50021   0.00000  Uiso   1.00
C780   C     0.40125   0.83332   0.48790   0.00000  Uiso   1.00
C781   C     0.59875   0.83335   0.51210   0.00000  Uiso   1.00
C782   C     0.34596   0.83333   0.48124   0.00000  Uiso   1.00
C783   C     0.65404   0.83334   0.51876   0.00000  Uiso   1.00
C784   C     0.52580   0.68718   0.46680   0.00000  Uiso   1.00
C785   C     0.47420   0.97949   0.53320   0.00000  Uiso   1.00
C786   C     0.52528   0.97772   0.46807   0.00000  Uiso   1.00
Cu787  Cu    0.50000   0.83334   0.54689   0.00000  Uiso   1.00
Cu788  Cu    0.50000   0.83333   0.45311   0.00000  Uiso   1.00
H789   H     0.65929   0.83333   0.44526   0.00000  Uiso   1.00
H790   H     0.52652   0.67600   0.37132   0.00000  Uiso   1.00
H791   H     0.55001   0.72767   0.36462   0.00000  Uiso   1.00
H792   H     0.48854   0.72006   0.38481   0.00000  Uiso   1.00
H793   H     0.40858   0.96927   0.56343   0.00000  Uiso   1.00
H794   H     0.47348   0.99067   0.62868   0.00000  Uiso   1.00
H795   H     0.51146   0.94661   0.61519   0.00000  Uiso   1.00
H796   H     0.44999   0.93899   0.63538   0.00000  Uiso   1.00
H797   H     0.34071   0.83333   0.55474   0.00000  Uiso   1.00
H798   H     0.54547   0.96051   0.44365   0.00000  Uiso   1.00
H799   H     0.45453   0.70616   0.55635   0.00000  Uiso   1.00
H800   H     0.43839   0.79047   0.36855   0.00000  Uiso   1.00
H801   H     0.56161   0.87619   0.63145   0.00000  Uiso   1.00
H802   H     0.43849   0.79040   0.61497   0.00000  Uiso   1.00
H803   H     0.56151   0.87627   0.38503   0.00000  Uiso   1.00
H804   H     0.59142   0.69740   0.43657   0.00000  Uiso   1.00
N805   N     0.50001   0.83334   0.61736   0.00000  Uiso   1.00
N806   N     0.49999   0.83332   0.38264   0.00000  Uiso   1.00
N807   N     0.55390   0.70756   0.43457   0.00000  Uiso   1.00
N808   N     0.44610   0.95910   0.56543   0.00000  Uiso   1.00
O809   O     0.50000   0.77322   0.53958   0.00000  Uiso   1.00
O810   O     0.50000   0.89345   0.46042   0.00000  Uiso   1.00
O811   O     0.50000   0.77321   0.46039   0.00000  Uiso   1.00
O812   O     0.50000   0.89346   0.53961   0.00000  Uiso   1.00
O813   O     0.42495   0.83334   0.53046   0.00000  Uiso   1.00
O814   O     0.57505   0.83333   0.46954   0.00000  Uiso   1.00
O815   O     0.42494   0.83333   0.45127   0.00000  Uiso   1.00
O816   O     0.57506   0.83334   0.54873   0.00000  Uiso   1.00
C817   C     0.83384   0.75408   0.49979   0.00000  Uiso   1.00
C818   C     0.80805   0.68894   0.53193   0.00000  Uiso   1.00
C819   C     0.83287   0.95719   0.50078   0.00000  Uiso   1.00
C820   C     0.83379   0.70947   0.49922   0.00000  Uiso   1.00
C821   C     0.79911   0.80956   0.35355   0.00000  Uiso   1.00
C822   C     0.86756   0.85710   0.64645   0.00000  Uiso   1.00
C823   C     0.79915   0.80954   0.63730   0.00000  Uiso   1.00
C824   C     0.86752   0.85713   0.36270   0.00000  Uiso   1.00
C825   C     0.86159   0.70773   0.38636   0.00000  Uiso   1.00
C826   C     0.80508   0.95894   0.61364   0.00000  Uiso   1.00
C827   C     0.83283   0.91258   0.50021   0.00000  Uiso   1.00
C828   C     0.73458   0.83332   0.48790   0.00000  Uiso   1.00
C829   C     0.93209   0.83335   0.51210   0.00000  Uiso   1.00
C830   C     0.67929   0.83333   0.48124   0.00000  Uiso   1.00
C831   C     0.98737   0.83334   0.51876   0.00000  Uiso   1.00
C832   C     0.85913   0.68718   0.46680   0.00000  Uiso   1.00
C833   C     0.80754   0.97949   0.53320   0.00000  Uiso   1.00
C834   C     0.85862   0.97772   0.46807   0.00000  Uiso   1.00
Cu835  Cu    0.83333   0.83334   0.54689   0.00000  Uiso   1.00
Cu836  Cu    0.83333   0.83333   0.45311   0.00000  Uiso   1.00
H837   H     0.99263   0.83333   0.44526   0.00000  Uiso   1.00
H838   H     0.85985   0.67600   0.37132   0.00000  Uiso   1.00
H839   H     0.88335   0.72767   0.36462   0.00000  Uiso   1.00
H840   H     0.82187   0.72006   0.38481   0.00000  Uiso   1.00
H841   H     0.74192   0.96927   0.56343   0.00000  Uiso   1.00
H842   H     0.80682   0.99067   0.62868   0.00000  Uiso   1.00
H843   H     0.84480   0.94661   0.61519   0.00000  Uiso   1.00
H844   H     0.78332   0.93899   0.63538   0.00000  Uiso   1.00
H845   H     0.67404   0.83333   0.55474   0.00000  Uiso   1.00
H846   H     0.87880   0.96051   0.44365   0.00000  Uiso   1.00
H847   H     0.78786   0.70616   0.55635   0.00000  Uiso   1.00
H848   H     0.77172   0.79047   0.36855   0.00000  Uiso   1.00
H849   H     0.89494   0.87619   0.63145   0.00000  Uiso   1.00
H850   H     0.77182   0.79040   0.61497   0.00000  Uiso   1.00
H851   H     0.89485   0.87627   0.38503   0.00000  Uiso   1.00
H852   H     0.92475   0.69740   0.43657   0.00000  Uiso   1.00
N853   N     0.83335   0.83334   0.61736   0.00000  Uiso   1.00
N854   N     0.83332   0.83332   0.38264   0.00000  Uiso   1.00
N855   N     0.88724   0.70756   0.43457   0.00000  Uiso   1.00
N856   N     0.77943   0.95910   0.56543   0.00000  Uiso   1.00
O857   O     0.83333   0.77322   0.53958   0.00000  Uiso   1.00
O858   O     0.83334   0.89345   0.46042   0.00000  Uiso   1.00
O859   O     0.83333   0.77321   0.46039   0.00000  Uiso   1.00
O860   O     0.83334   0.89346   0.53961   0.00000  Uiso   1.00
O861   O     0.75828   0.83334   0.53046   0.00000  Uiso   1.00
O862   O     0.90839   0.83333   0.46954   0.00000  Uiso   1.00
O863   O     0.75828   0.83333   0.45127   0.00000  Uiso   1.00
O864   O     0.90839   0.83334   0.54873   0.00000  Uiso   1.00
C865   C     0.16717   0.08742   0.83312   0.00000  Uiso   1.00
C866   C     0.14138   0.02228   0.86526   0.00000  Uiso   1.00
C867   C     0.16621   0.29053   0.83411   0.00000  Uiso   1.00
C868   C     0.16713   0.04281   0.83255   0.00000  Uiso   1.00
C869   C     0.13244   0.14290   0.68688   0.00000  Uiso   1.00
C870   C     0.20089   0.19044   0.97979   0.00000  Uiso   1.00
C871   C     0.13248   0.14287   0.97063   0.00000  Uiso   1.00
C872   C     0.20085   0.19046   0.69604   0.00000  Uiso   1.00
C873   C     0.19492   0.04106   0.71970   0.00000  Uiso   1.00
C874   C     0.13841   0.29227   0.94697   0.00000  Uiso   1.00
C875   C     0.16616   0.24592   0.83354   0.00000  Uiso   1.00
C876   C     0.06791   0.16665   0.82124   0.00000  Uiso   1.00
C877   C     0.26542   0.16668   0.84543   0.00000  Uiso   1.00
C878   C     0.01263   0.16666   0.81458   0.00000  Uiso   1.00
C879   C     0.32071   0.16667   0.85209   0.00000  Uiso   1.00
C880   C     0.19246   0.02051   0.80013   0.00000  Uiso   1.00
C881   C     0.14087   0.31282   0.86653   0.00000  Uiso   1.00
C882   C     0.19195   0.31106   0.80140   0.00000  Uiso   1.00
Cu883  Cu    0.16667   0.16667   0.88022   0.00000  Uiso   1.00
Cu884  Cu    0.16667   0.16666   0.78645   0.00000  Uiso   1.00
H885   H     0.32596   0.16667   0.77859   0.00000  Uiso   1.00
H886   H     0.19319   0.00933   0.70466   0.00000  Uiso   1.00
H887   H     0.21668   0.06101   0.69796   0.00000  Uiso   1.00
H888   H     0.15520   0.05339   0.71814   0.00000  Uiso   1.00
H889   H     0.07525   0.30260   0.89676   0.00000  Uiso   1.00
H890   H     0.14015   0.32400   0.96201   0.00000  Uiso   1.00
H891   H     0.17813   0.27994   0.94852   0.00000  Uiso   1.00
H892   H     0.11665   0.27233   0.96871   0.00000  Uiso   1.00
H893   H     0.00737   0.16667   0.88807   0.00000  Uiso   1.00
H894   H     0.21214   0.29384   0.77698   0.00000  Uiso   1.00
H895   H     0.12120   0.03949   0.88969   0.00000  Uiso   1.00
H896   H     0.10506   0.12380   0.70189   0.00000  Uiso   1.00
H897   H     0.22828   0.20953   0.96478   0.00000  Uiso   1.00
H898   H     0.10516   0.12373   0.94830   0.00000  Uiso   1.00
H899   H     0.22818   0.20960   0.71836   0.00000  Uiso   1.00
H900   H     0.25808   0.03074   0.76991   0.00000  Uiso   1.00
N901   N     0.16668   0.16668   0.95069   0.00000  Uiso   1.00
N902   N     0.16665   0.16666   0.71597   0.00000  Uiso   1.00
N903   N     0.22057   0.04090   0.76791   0.00000  Uiso   1.00
N904   N     0.11276   0.29244   0.89876   0.00000  Uiso   1.00
O905   O     0.16666   0.10655   0.87291   0.00000  Uiso   1.00
O906   O     0.16667   0.22678   0.79375   0.00000  Uiso   1.00
O907   O     0.16666   0.10654   0.79372   0.00000  Uiso   1.00
O908   O     0.16667   0.22679   0.87294   0.00000  Uiso   1.00
O909   O     0.09161   0.16667   0.86379   0.00000  Uiso   1.00
O910   O     0.24172   0.16666   0.80288   0.00000  Uiso   1.00
O911   O     0.09161   0.16666   0.78460   0.00000  Uiso   1.00
O912   O     0.24172   0.16667   0.88207   0.00000  Uiso   1.00
C913   C     0.50051   0.08742   0.83312   0.00000  Uiso   1.00
C914   C     0.47472   0.02228   0.86526   0.00000  Uiso   1.00
C915   C     0.49954   0.29053   0.83411   0.00000  Uiso   1.00
C916   C     0.50046   0.04281   0.83255   0.00000  Uiso   1.00
C917   C     0.46577   0.14290   0.68688   0.00000  Uiso   1.00
C918   C     0.53423   0.19044   0.97979   0.00000  Uiso   1.00
C919   C     0.46582   0.14287   0.97063   0.00000  Uiso   1.00
C920   C     0.53419   0.19046   0.69604   0.00000  Uiso   1.00
C921   C     0.52825   0.04106   0.71970   0.00000  Uiso   1.00
C922   C     0.47175   0.29227   0.94697   0.00000  Uiso   1.00
C923   C     0.49949   0.24592   0.83354   0.00000  Uiso   1.00
C924   C     0.40125   0.16665   0.82124   0.00000  Uiso   1.00
C925   C     0.59875   0.16668   0.84543   0.00000  Uiso   1.00
C926   C     0.34596   0.16666   0.81458   0.00000  Uiso   1.00
C927   C     0.65404   0.16667   0.85209   0.00000  Uiso   1.00
C928   C     0.52580   0.02051   0.80013   0.00000  Uiso   1.00
C929   C     0.47420   0.31282   0.86653   0.00000  Uiso   1.00
C930   C     0.52528   0.31106   0.80140   0.00000  Uiso   1.00
Cu931  Cu    0.50000   0.16667   0.88022   0.00000  Uiso   1.00
Cu932  Cu    0.50000   0.16666   0.78645   0.00000  Uiso   1.00
H933   H     0.65929   0.16667   0.77859   0.00000  Uiso   1.00
H934   H     0.52652   0.00933   0.70466   0.00000  Uiso   1.00
H935   H     0.55001   0.06101   0.69796   0.00000  Uiso   1.00
H936   H     0.48854   0.05339   0.71814   0.00000  Uiso   1.00
H937   H     0.40858   0.30260   0.89676   0.00000  Uiso   1.00
H938   H     0.47348   0.32400   0.96201   0.00000  Uiso   1.00
H939   H     0.51146   0.27994   0.94852   0.00000  Uiso   1.00
H940   H     0.44999   0.27233   0.96871   0.00000  Uiso   1.00
H941   H     0.34071   0.16667   0.88807   0.00000  Uiso   1.00
H942   H     0.54547   0.29384   0.77698   0.00000  Uiso   1.00
H943   H     0.45453   0.03949   0.88969   0.00000  Uiso   1.00
H944   H     0.43839   0.12380   0.70189   0.00000  Uiso   1.00
H945   H     0.56161   0.20953   0.96478   0.00000  Uiso   1.00
H946   H     0.43849   0.12373   0.94830   0.00000  Uiso   1.00
H947   H     0.56151   0.20960   0.71836   0.00000  Uiso   1.00
H948   H     0.59142   0.03074   0.76991   0.00000  Uiso   1.00
N949   N     0.50001   0.16668   0.95069   0.00000  Uiso   1.00
N950   N     0.49999   0.16666   0.71597   0.00000  Uiso   1.00
N951   N     0.55390   0.04090   0.76791   0.00000  Uiso   1.00
N952   N     0.44610   0.29244   0.89876   0.00000  Uiso   1.00
O953   O     0.50000   0.10655   0.87291   0.00000  Uiso   1.00
O954   O     0.50000   0.22678   0.79375   0.00000  Uiso   1.00
O955   O     0.50000   0.10654   0.79372   0.00000  Uiso   1.00
O956   O     0.50000   0.22679   0.87294   0.00000  Uiso   1.00
O957   O     0.42495   0.16667   0.86379   0.00000  Uiso   1.00
O958   O     0.57505   0.16666   0.80288   0.00000  Uiso   1.00
O959   O     0.42494   0.16666   0.78460   0.00000  Uiso   1.00
O960   O     0.57506   0.16667   0.88207   0.00000  Uiso   1.00
C961   C     0.83384   0.08742   0.83312   0.00000  Uiso   1.00
C962   C     0.80805   0.02228   0.86526   0.00000  Uiso   1.00
C963   C     0.83287   0.29053   0.83411   0.00000  Uiso   1.00
C964   C     0.83379   0.04281   0.83255   0.00000  Uiso   1.00
C965   C     0.79911   0.14290   0.68688   0.00000  Uiso   1.00
C966   C     0.86756   0.19044   0.97979   0.00000  Uiso   1.00
C967   C     0.79915   0.14287   0.97063   0.00000  Uiso   1.00
C968   C     0.86752   0.19046   0.69604   0.00000  Uiso   1.00
C969   C     0.86159   0.04106   0.71970   0.00000  Uiso   1.00
C970   C     0.80508   0.29227   0.94697   0.00000  Uiso   1.00
C971   C     0.83283   0.24592   0.83354   0.00000  Uiso   1.00
C972   C     0.73458   0.16665   0.82124   0.00000  Uiso   1.00
C973   C     0.93209   0.16668   0.84543   0.00000  Uiso   1.00
C974   C     0.67929   0.16666   0.81458   0.00000  Uiso   1.00
C975   C     0.98737   0.16667   0.85209   0.00000  Uiso   1.00
C976   C     0.85913   0.02051   0.80013   0.00000  Uiso   1.00
C977   C     0.80754   0.31282   0.86653   0.00000  Uiso   1.00
C978   C     0.85862   0.31106   0.80140   0.00000  Uiso   1.00
Cu979  Cu    0.83333   0.16667   0.88022   0.00000  Uiso   1.00
Cu980  Cu    0.83333   0.16666   0.78645   0.00000  Uiso   1.00
H981   H     0.99263   0.16667   0.77859   0.00000  Uiso   1.00
H982   H     0.85985   0.00933   0.70466   0.00000  Uiso   1.00
H983   H     0.88335   0.06101   0.69796   0.00000  Uiso   1.00
H984   H     0.82187   0.05339   0.71814   0.00000  Uiso   1.00
H985   H     0.74192   0.30260   0.89676   0.00000  Uiso   1.00
H986   H     0.80682   0.32400   0.96201   0.00000  Uiso   1.00
H987   H     0.84480   0.27994   0.94852   0.00000  Uiso   1.00
H988   H     0.78332   0.27233   0.96871   0.00000  Uiso   1.00
H989   H     0.67404   0.16667   0.88807   0.00000  Uiso   1.00
H990   H     0.87880   0.29384   0.77698   0.00000  Uiso   1.00
H991   H     0.78786   0.03949   0.88969   0.00000  Uiso   1.00
H992   H     0.77172   0.12380   0.70189   0.00000  Uiso   1.00
H993   H     0.89494   0.20953   0.96478   0.00000  Uiso   1.00
H994   H     0.77182   0.12373   0.94830   0.00000  Uiso   1.00
H995   H     0.89485   0.20960   0.71836   0.00000  Uiso   1.00
H996   H     0.92475   0.03074   0.76991   0.00000  Uiso   1.00
N997   N     0.83335   0.16668   0.95069   0.00000  Uiso   1.00
N998   N     0.83332   0.16666   0.71597   0.00000  Uiso   1.00
N999   N     0.88724   0.04090   0.76791   0.00000  Uiso   1.00
N1000  N     0.77943   0.29244   0.89876   0.00000  Uiso   1.00
O1001  O     0.83333   0.10655   0.87291   0.00000  Uiso   1.00
O1002  O     0.83334   0.22678   0.79375   0.00000  Uiso   1.00
O1003  O     0.83333   0.10654   0.79372   0.00000  Uiso   1.00
O1004  O     0.83334   0.22679   0.87294   0.00000  Uiso   1.00
O1005  O     0.75828   0.16667   0.86379   0.00000  Uiso   1.00
O1006  O     0.90839   0.16666   0.80288   0.00000  Uiso   1.00
O1007  O     0.75828   0.16666   0.78460   0.00000  Uiso   1.00
O1008  O     0.90839   0.16667   0.88207   0.00000  Uiso   1.00
C1009  C     0.16717   0.42075   0.83312   0.00000  Uiso   1.00
C1010  C     0.14138   0.35561   0.86526   0.00000  Uiso   1.00
C1011  C     0.16621   0.62386   0.83411   0.00000  Uiso   1.00
C1012  C     0.16713   0.37614   0.83255   0.00000  Uiso   1.00
C1013  C     0.13244   0.47623   0.68688   0.00000  Uiso   1.00
C1014  C     0.20089   0.52377   0.97979   0.00000  Uiso   1.00
C1015  C     0.13248   0.47621   0.97063   0.00000  Uiso   1.00
C1016  C     0.20085   0.52379   0.69604   0.00000  Uiso   1.00
C1017  C     0.19492   0.37439   0.71970   0.00000  Uiso   1.00
C1018  C     0.13841   0.62560   0.94697   0.00000  Uiso   1.00
C1019  C     0.16616   0.57925   0.83354   0.00000  Uiso   1.00
C1020  C     0.06791   0.49998   0.82124   0.00000  Uiso   1.00
C1021  C     0.26542   0.50001   0.84543   0.00000  Uiso   1.00
C1022  C     0.01263   0.49999   0.81458   0.00000  Uiso   1.00
C1023  C     0.32071   0.50001   0.85209   0.00000  Uiso   1.00
C1024  C     0.19246   0.35384   0.80013   0.00000  Uiso   1.00
C1025  C     0.14087   0.64616   0.86653   0.00000  Uiso   1.00
C1026  C     0.19195   0.64439   0.80140   0.00000  Uiso   1.00
Cu1027 Cu    0.16667   0.50001   0.88022   0.00000  Uiso   1.00
Cu1028 Cu    0.16667   0.49999   0.78645   0.00000  Uiso   1.00
H1029  H     0.32596   0.50000   0.77859   0.00000  Uiso   1.00
H1030  H     0.19319   0.34266   0.70466   0.00000  Uiso   1.00
H1031  H     0.21668   0.39434   0.69796   0.00000  Uiso   1.00
H1032  H     0.15520   0.38672   0.71814   0.00000  Uiso   1.00
H1033  H     0.07525   0.63593   0.89676   0.00000  Uiso   1.00
H1034  H     0.14015   0.65733   0.96201   0.00000  Uiso   1.00
H1035  H     0.17813   0.61327   0.94852   0.00000  Uiso   1.00
H1036  H     0.11665   0.60566   0.96871   0.00000  Uiso   1.00
H1037  H     0.00737   0.50000   0.88807   0.00000  Uiso   1.00
H1038  H     0.21214   0.62718   0.77698   0.00000  Uiso   1.00
H1039  H     0.12120   0.37282   0.88969   0.00000  Uiso   1.00
H1040  H     0.10506   0.45714   0.70189   0.00000  Uiso   1.00
H1041  H     0.22828   0.54286   0.96478   0.00000  Uiso   1.00
H1042  H     0.10516   0.45706   0.94830   0.00000  Uiso   1.00
H1043  H     0.22818   0.54294   0.71836   0.00000  Uiso   1.00
H1044  H     0.25808   0.36407   0.76991   0.00000  Uiso   1.00
N1045  N     0.16668   0.50001   0.95069   0.00000  Uiso   1.00
N1046  N     0.16665   0.49999   0.71597   0.00000  Uiso   1.00
N1047  N     0.22057   0.37423   0.76791   0.00000  Uiso   1.00
N1048  N     0.11276   0.62577   0.89876   0.00000  Uiso   1.00
O1049  O     0.16666   0.43989   0.87291   0.00000  Uiso   1.00
O1050  O     0.16667   0.56011   0.79375   0.00000  Uiso   1.00
O1051  O     0.16666   0.43988   0.79372   0.00000  Uiso   1.00
O1052  O     0.16667   0.56012   0.87294   0.00000  Uiso   1.00
O1053  O     0.09161   0.50000   0.86379   0.00000  Uiso   1.00
O1054  O     0.24172   0.50000   0.80288   0.00000  Uiso   1.00
O1055  O     0.09161   0.49999   0.78460   0.00000  Uiso   1.00
O1056  O     0.24172   0.50001   0.88207   0.00000  Uiso   1.00
C1057  C     0.50051   0.42075   0.83312   0.00000  Uiso   1.00
C1058  C     0.47472   0.35561   0.86526   0.00000  Uiso   1.00
C1059  C     0.49954   0.62386   0.83411   0.00000  Uiso   1.00
C1060  C     0.50046   0.37614   0.83255   0.00000  Uiso   1.00
C1061  C     0.46577   0.47623   0.68688   0.00000  Uiso   1.00
C1062  C     0.53423   0.52377   0.97979   0.00000  Uiso   1.00
C1063  C     0.46582   0.47621   0.97063   0.00000  Uiso   1.00
C1064  C     0.53419   0.52379   0.69604   0.00000  Uiso   1.00
C1065  C     0.52825   0.37439   0.71970   0.00000  Uiso   1.00
C1066  C     0.47175   0.62560   0.94697   0.00000  Uiso   1.00
C1067  C     0.49949   0.57925   0.83354   0.00000  Uiso   1.00
C1068  C     0.40125   0.49998   0.82124   0.00000  Uiso   1.00
C1069  C     0.59875   0.50001   0.84543   0.00000  Uiso   1.00
C1070  C     0.34596   0.49999   0.81458   0.00000  Uiso   1.00
C1071  C     0.65404   0.50001   0.85209   0.00000  Uiso   1.00
C1072  C     0.52580   0.35384   0.80013   0.00000  Uiso   1.00
C1073  C     0.47420   0.64616   0.86653   0.00000  Uiso   1.00
C1074  C     0.52528   0.64439   0.80140   0.00000  Uiso   1.00
Cu1075 Cu    0.50000   0.50001   0.88022   0.00000  Uiso   1.00
Cu1076 Cu    0.50000   0.49999   0.78645   0.00000  Uiso   1.00
H1077  H     0.65929   0.50000   0.77859   0.00000  Uiso   1.00
H1078  H     0.52652   0.34266   0.70466   0.00000  Uiso   1.00
H1079  H     0.55001   0.39434   0.69796   0.00000  Uiso   1.00
H1080  H     0.48854   0.38672   0.71814   0.00000  Uiso   1.00
H1081  H     0.40858   0.63593   0.89676   0.00000  Uiso   1.00
H1082  H     0.47348   0.65733   0.96201   0.00000  Uiso   1.00
H1083  H     0.51146   0.61327   0.94852   0.00000  Uiso   1.00
H1084  H     0.44999   0.60566   0.96871   0.00000  Uiso   1.00
H1085  H     0.34071   0.50000   0.88807   0.00000  Uiso   1.00
H1086  H     0.54547   0.62718   0.77698   0.00000  Uiso   1.00
H1087  H     0.45453   0.37282   0.88969   0.00000  Uiso   1.00
H1088  H     0.43839   0.45714   0.70189   0.00000  Uiso   1.00
H1089  H     0.56161   0.54286   0.96478   0.00000  Uiso   1.00
H1090  H     0.43849   0.45706   0.94830   0.00000  Uiso   1.00
H1091  H     0.56151   0.54294   0.71836   0.00000  Uiso   1.00
H1092  H     0.59142   0.36407   0.76991   0.00000  Uiso   1.00
N1093  N     0.50001   0.50001   0.95069   0.00000  Uiso   1.00
N1094  N     0.49999   0.49999   0.71597   0.00000  Uiso   1.00
N1095  N     0.55390   0.37423   0.76791   0.00000  Uiso   1.00
N1096  N     0.44610   0.62577   0.89876   0.00000  Uiso   1.00
O1097  O     0.50000   0.43989   0.87291   0.00000  Uiso   1.00
O1098  O     0.50000   0.56011   0.79375   0.00000  Uiso   1.00
O1099  O     0.50000   0.43988   0.79372   0.00000  Uiso   1.00
O1100  O     0.50000   0.56012   0.87294   0.00000  Uiso   1.00
O1101  O     0.42495   0.50000   0.86379   0.00000  Uiso   1.00
O1102  O     0.57505   0.50000   0.80288   0.00000  Uiso   1.00
O1103  O     0.42494   0.49999   0.78460   0.00000  Uiso   1.00
O1104  O     0.57506   0.50001   0.88207   0.00000  Uiso   1.00
C1105  C     0.83384   0.42075   0.83312   0.00000  Uiso   1.00
C1106  C     0.80805   0.35561   0.86526   0.00000  Uiso   1.00
C1107  C     0.83287   0.62386   0.83411   0.00000  Uiso   1.00
C1108  C     0.83379   0.37614   0.83255   0.00000  Uiso   1.00
C1109  C     0.79911   0.47623   0.68688   0.00000  Uiso   1.00
C1110  C     0.86756   0.52377   0.97979   0.00000  Uiso   1.00
C1111  C     0.79915   0.47621   0.97063   0.00000  Uiso   1.00
C1112  C     0.86752   0.52379   0.69604   0.00000  Uiso   1.00
C1113  C     0.86159   0.37439   0.71970   0.00000  Uiso   1.00
C1114  C     0.80508   0.62560   0.94697   0.00000  Uiso   1.00
C1115  C     0.83283   0.57925   0.83354   0.00000  Uiso   1.00
C1116  C     0.73458   0.49998   0.82124   0.00000  Uiso   1.00
C1117  C     0.93209   0.50001   0.84543   0.00000  Uiso   1.00
C1118  C     0.67929   0.49999   0.81458   0.00000  Uiso   1.00
C1119  C     0.98737   0.50001   0.85209   0.00000  Uiso   1.00
C1120  C     0.85913   0.35384   0.80013   0.00000  Uiso   1.00
C1121  C     0.80754   0.64616   0.86653   0.00000  Uiso   1.00
C1122  C     0.85862   0.64439   0.80140   0.00000  Uiso   1.00
Cu1123 Cu    0.83333   0.50001   0.88022   0.00000  Uiso   1.00
Cu1124 Cu    0.83333   0.49999   0.78645   0.00000  Uiso   1.00
H1125  H     0.99263   0.50000   0.77859   0.00000  Uiso   1.00
H1126  H     0.85985   0.34266   0.70466   0.00000  Uiso   1.00
H1127  H     0.88335   0.39434   0.69796   0.00000  Uiso   1.00
H1128  H     0.82187   0.38672   0.71814   0.00000  Uiso   1.00
H1129  H     0.74192   0.63593   0.89676   0.00000  Uiso   1.00
H1130  H     0.80682   0.65733   0.96201   0.00000  Uiso   1.00
H1131  H     0.84480   0.61327   0.94852   0.00000  Uiso   1.00
H1132  H     0.78332   0.60566   0.96871   0.00000  Uiso   1.00
H1133  H     0.67404   0.50000   0.88807   0.00000  Uiso   1.00
H1134  H     0.87880   0.62718   0.77698   0.00000  Uiso   1.00
H1135  H     0.78786   0.37282   0.88969   0.00000  Uiso   1.00
H1136  H     0.77172   0.45714   0.70189   0.00000  Uiso   1.00
H1137  H     0.89494   0.54286   0.96478   0.00000  Uiso   1.00
H1138  H     0.77182   0.45706   0.94830   0.00000  Uiso   1.00
H1139  H     0.89485   0.54294   0.71836   0.00000  Uiso   1.00
H1140  H     0.92475   0.36407   0.76991   0.00000  Uiso   1.00
N1141  N     0.83335   0.50001   0.95069   0.00000  Uiso   1.00
N1142  N     0.83332   0.49999   0.71597   0.00000  Uiso   1.00
N1143  N     0.88724   0.37423   0.76791   0.00000  Uiso   1.00
N1144  N     0.77943   0.62577   0.89876   0.00000  Uiso   1.00
O1145  O     0.83333   0.43989   0.87291   0.00000  Uiso   1.00
O1146  O     0.83334   0.56011   0.79375   0.00000  Uiso   1.00
O1147  O     0.83333   0.43988   0.79372   0.00000  Uiso   1.00
O1148  O     0.83334   0.56012   0.87294   0.00000  Uiso   1.00
O1149  O     0.75828   0.50000   0.86379   0.00000  Uiso   1.00
O1150  O     0.90839   0.50000   0.80288   0.00000  Uiso   1.00
O1151  O     0.75828   0.49999   0.78460   0.00000  Uiso   1.00
O1152  O     0.90839   0.50001   0.88207   0.00000  Uiso   1.00
C1153  C     0.16717   0.75408   0.83312   0.00000  Uiso   1.00
C1154  C     0.14138   0.68894   0.86526   0.00000  Uiso   1.00
C1155  C     0.16621   0.95719   0.83411   0.00000  Uiso   1.00
C1156  C     0.16713   0.70947   0.83255   0.00000  Uiso   1.00
C1157  C     0.13244   0.80956   0.68688   0.00000  Uiso   1.00
C1158  C     0.20089   0.85710   0.97979   0.00000  Uiso   1.00
C1159  C     0.13248   0.80954   0.97063   0.00000  Uiso   1.00
C1160  C     0.20085   0.85713   0.69604   0.00000  Uiso   1.00
C1161  C     0.19492   0.70773   0.71970   0.00000  Uiso   1.00
C1162  C     0.13841   0.95894   0.94697   0.00000  Uiso   1.00
C1163  C     0.16616   0.91258   0.83354   0.00000  Uiso   1.00
C1164  C     0.06791   0.83332   0.82124   0.00000  Uiso   1.00
C1165  C     0.26542   0.83335   0.84543   0.00000  Uiso   1.00
C1166  C     0.01263   0.83333   0.81458   0.00000  Uiso   1.00
C1167  C     0.32071   0.83334   0.85209   0.00000  Uiso   1.00
C1168  C     0.19246   0.68718   0.80013   0.00000  Uiso   1.00
C1169  C     0.14087   0.97949   0.86653   0.00000  Uiso   1.00
C1170  C     0.19195   0.97772   0.80140   0.00000  Uiso   1.00
Cu1171 Cu    0.16667   0.83334   0.88022   0.00000  Uiso   1.00
Cu1172 Cu    0.16667   0.83333   0.78645   0.00000  Uiso   1.00
H1173  H     0.32596   0.83333   0.77859   0.00000  Uiso   1.00
H1174  H     0.19319   0.67600   0.70466   0.00000  Uiso   1.00
H1175  H     0.21668   0.72767   0.69796   0.00000  Uiso   1.00
H1176  H     0.15520   0.72006   0.71814   0.00000  Uiso   1.00
H1177  H     0.07525   0.96927   0.89676   0.00000  Uiso   1.00
H1178  H     0.14015   0.99067   0.96201   0.00000  Uiso   1.00
H1179  H     0.17813   0.94661   0.94852   0.00000  Uiso   1.00
H1180  H     0.11665   0.93899   0.96871   0.00000  Uiso   1.00
H1181  H     0.00737   0.83333   0.88807   0.00000  Uiso   1.00
H1182  H     0.21214   0.96051   0.77698   0.00000  Uiso   1.00
H1183  H     0.12120   0.70616   0.88969   0.00000  Uiso   1.00
H1184  H     0.10506   0.79047   0.70189   0.00000  Uiso   1.00
H1185  H     0.22828   0.87619   0.96478   0.00000  Uiso   1.00
H1186  H     0.10516   0.79040   0.94830   0.00000  Uiso   1.00
H1187  H     0.22818   0.87627   0.71836   0.00000  Uiso   1.00
H1188  H     0.25808   0.69740   0.76991   0.00000  Uiso   1.00
N1189  N     0.16668   0.83334   0.95069   0.00000  Uiso   1.00
N1190  N     0.16665   0.83332   0.71597   0.00000  Uiso   1.00
N1191  N     0.22057   0.70756   0.76791   0.00000  Uiso   1.00
N1192  N     0.11276   0.95910   0.89876   0.00000  Uiso   1.00
O1193  O     0.16666   0.77322   0.87291   0.00000  Uiso   1.00
O1194  O     0.16667   0.89345   0.79375   0.00000  Uiso   1.00
O1195  O     0.16666   0.77321   0.79372   0.00000  Uiso   1.00
O1196  O     0.16667   0.89346   0.87294   0.00000  Uiso   1.00
O1197  O     0.09161   0.83334   0.86379   0.00000  Uiso   1.00
O1198  O     0.24172   0.83333   0.80288   0.00000  Uiso   1.00
O1199  O     0.09161   0.83333   0.78460   0.00000  Uiso   1.00
O1200  O     0.24172   0.83334   0.88207   0.00000  Uiso   1.00
C1201  C     0.50051   0.75408   0.83312   0.00000  Uiso   1.00
C1202  C     0.47472   0.68894   0.86526   0.00000  Uiso   1.00
C1203  C     0.49954   0.95719   0.83411   0.00000  Uiso   1.00
C1204  C     0.50046   0.70947   0.83255   0.00000  Uiso   1.00
C1205  C     0.46577   0.80956   0.68688   0.00000  Uiso   1.00
C1206  C     0.53423   0.85710   0.97979   0.00000  Uiso   1.00
C1207  C     0.46582   0.80954   0.97063   0.00000  Uiso   1.00
C1208  C     0.53419   0.85713   0.69604   0.00000  Uiso   1.00
C1209  C     0.52825   0.70773   0.71970   0.00000  Uiso   1.00
C1210  C     0.47175   0.95894   0.94697   0.00000  Uiso   1.00
C1211  C     0.49949   0.91258   0.83354   0.00000  Uiso   1.00
C1212  C     0.40125   0.83332   0.82124   0.00000  Uiso   1.00
C1213  C     0.59875   0.83335   0.84543   0.00000  Uiso   1.00
C1214  C     0.34596   0.83333   0.81458   0.00000  Uiso   1.00
C1215  C     0.65404   0.83334   0.85209   0.00000  Uiso   1.00
C1216  C     0.52580   0.68718   0.80013   0.00000  Uiso   1.00
C1217  C     0.47420   0.97949   0.86653   0.00000  Uiso   1.00
C1218  C     0.52528   0.97772   0.80140   0.00000  Uiso   1.00
Cu1219 Cu    0.50000   0.83334   0.88022   0.00000  Uiso   1.00
Cu1220 Cu    0.50000   0.83333   0.78645   0.00000  Uiso   1.00
H1221  H     0.65929   0.83333   0.77859   0.00000  Uiso   1.00
H1222  H     0.52652   0.67600   0.70466   0.00000  Uiso   1.00
H1223  H     0.55001   0.72767   0.69796   0.00000  Uiso   1.00
H1224  H     0.48854   0.72006   0.71814   0.00000  Uiso   1.00
H1225  H     0.40858   0.96927   0.89676   0.00000  Uiso   1.00
H1226  H     0.47348   0.99067   0.96201   0.00000  Uiso   1.00
H1227  H     0.51146   0.94661   0.94852   0.00000  Uiso   1.00
H1228  H     0.44999   0.93899   0.96871   0.00000  Uiso   1.00
H1229  H     0.34071   0.83333   0.88807   0.00000  Uiso   1.00
H1230  H     0.54547   0.96051   0.77698   0.00000  Uiso   1.00
H1231  H     0.45453   0.70616   0.88969   0.00000  Uiso   1.00
H1232  H     0.43839   0.79047   0.70189   0.00000  Uiso   1.00
H1233  H     0.56161   0.87619   0.96478   0.00000  Uiso   1.00
H1234  H     0.43849   0.79040   0.94830   0.00000  Uiso   1.00
H1235  H     0.56151   0.87627   0.71836   0.00000  Uiso   1.00
H1236  H     0.59142   0.69740   0.76991   0.00000  Uiso   1.00
N1237  N     0.50001   0.83334   0.95069   0.00000  Uiso   1.00
N1238  N     0.49999   0.83332   0.71597   0.00000  Uiso   1.00
N1239  N     0.55390   0.70756   0.76791   0.00000  Uiso   1.00
N1240  N     0.44610   0.95910   0.89876   0.00000  Uiso   1.00
O1241  O     0.50000   0.77322   0.87291   0.00000  Uiso   1.00
O1242  O     0.50000   0.89345   0.79375   0.00000  Uiso   1.00
O1243  O     0.50000   0.77321   0.79372   0.00000  Uiso   1.00
O1244  O     0.50000   0.89346   0.87294   0.00000  Uiso   1.00
O1245  O     0.42495   0.83334   0.86379   0.00000  Uiso   1.00
O1246  O     0.57505   0.83333   0.80288   0.00000  Uiso   1.00
O1247  O     0.42494   0.83333   0.78460   0.00000  Uiso   1.00
O1248  O     0.57506   0.83334   0.88207   0.00000  Uiso   1.00
C1249  C     0.83384   0.75408   0.83312   0.00000  Uiso   1.00
C1250  C     0.80805   0.68894   0.86526   0.00000  Uiso   1.00
C1251  C     0.83287   0.95719   0.83411   0.00000  Uiso   1.00
C1252  C     0.83379   0.70947   0.83255   0.00000  Uiso   1.00
C1253  C     0.79911   0.80956   0.68688   0.00000  Uiso   1.00
C1254  C     0.86756   0.85710   0.97979   0.00000  Uiso   1.00
C1255  C     0.79915   0.80954   0.97063   0.00000  Uiso   1.00
C1256  C     0.86752   0.85713   0.69604   0.00000  Uiso   1.00
C1257  C     0.86159   0.70773   0.71970   0.00000  Uiso   1.00
C1258  C     0.80508   0.95894   0.94697   0.00000  Uiso   1.00
C1259  C     0.83283   0.91258   0.83354   0.00000  Uiso   1.00
C1260  C     0.73458   0.83332   0.82124   0.00000  Uiso   1.00
C1261  C     0.93209   0.83335   0.84543   0.00000  Uiso   1.00
C1262  C     0.67929   0.83333   0.81458   0.00000  Uiso   1.00
C1263  C     0.98737   0.83334   0.85209   0.00000  Uiso   1.00
C1264  C     0.85913   0.68718   0.80013   0.00000  Uiso   1.00
C1265  C     0.80754   0.97949   0.86653   0.00000  Uiso   1.00
C1266  C     0.85862   0.97772   0.80140   0.00000  Uiso   1.00
Cu1267 Cu    0.83333   0.83334   0.88022   0.00000  Uiso   1.00
Cu1268 Cu    0.83333   0.83333   0.78645   0.00000  Uiso   1.00
H1269  H     0.99263   0.83333   0.77859   0.00000  Uiso   1.00
H1270  H     0.85985   0.67600   0.70466   0.00000  Uiso   1.00
H1271  H     0.88335   0.72767   0.69796   0.00000  Uiso   1.00
H1272  H     0.82187   0.72006   0.71814   0.00000  Uiso   1.00
H1273  H     0.74192   0.96927   0.89676   0.00000  Uiso   1.00
H1274  H     0.80682   0.99067   0.96201   0.00000  Uiso   1.00
H1275  H     0.84480   0.94661   0.94852   0.00000  Uiso   1.00
H1276  H     0.78332   0.93899   0.96871   0.00000  Uiso   1.00
H1277  H     0.67404   0.83333   0.88807   0.00000  Uiso   1.00
H1278  H     0.87880   0.96051   0.77698   0.00000  Uiso   1.00
H1279  H     0.78786   0.70616   0.88969   0.00000  Uiso   1.00
H1280  H     0.77172   0.79047   0.70189   0.00000  Uiso   1.00
H1281  H     0.89494   0.87619   0.96478   0.00000  Uiso   1.00
H1282  H     0.77182   0.79040   0.94830   0.00000  Uiso   1.00
H1283  H     0.89485   0.87627   0.71836   0.00000  Uiso   1.00
H1284  H     0.92475   0.69740   0.76991   0.00000  Uiso   1.00
N1285  N     0.83335   0.83334   0.95069   0.00000  Uiso   1.00
N1286  N     0.83332   0.83332   0.71597   0.00000  Uiso   1.00
N1287  N     0.88724   0.70756   0.76791   0.00000  Uiso   1.00
N1288  N     0.77943   0.95910   0.89876   0.00000  Uiso   1.00
O1289  O     0.83333   0.77322   0.87291   0.00000  Uiso   1.00
O1290  O     0.83334   0.89345   0.79375   0.00000  Uiso   1.00
O1291  O     0.83333   0.77321   0.79372   0.00000  Uiso   1.00
O1292  O     0.83334   0.89346   0.87294   0.00000  Uiso   1.00
O1293  O     0.75828   0.83334   0.86379   0.00000  Uiso   1.00
O1294  O     0.90839   0.83333   0.80288   0.00000  Uiso   1.00
O1295  O     0.75828   0.83333   0.78460   0.00000  Uiso   1.00
O1296  O     0.90839   0.83334   0.88207   0.00000  Uiso   1.00
loop_
_geom_bond_atom_site_label_1
_geom_bond_atom_site_label_2
_geom_bond_distance
_geom_bond_site_symmetry_2
_ccdc_geom_bond_type
C1     C4      1.448   .     S
C1     O41     1.293   .     A
C1     O43     1.289   .     A
C2     C4      1.398   .     A
C2     H31     1.084   .     S
C2     C305    1.390   1_545 S
C3     C18     1.398   .     A
C3     C17     1.408   .     A
C3     C11     1.448   .     S
C4     C16     1.408   .     A
C5     H32     1.082   .     S
C5     N38     1.367   .     A
C5     C871    1.417   1_554 S
C6     H33     1.082   .     S
C6     N37     1.367   .     A
C6     C440    1.417   .     S
C7     N37     1.367   .     A
C7     H34     1.082   .     S
C7     C437    1.417   .     S
C8     N38     1.367   .     A
C8     H35     1.082   .     S
C8     C870    1.417   1_554 S
C9     H24     1.111   .     S
C9     H22     1.111   .     S
C9     N39     1.447   .     S
C9     H23     1.110   .     S
C10    H27     1.111   .     S
C10    H26     1.111   .     S
C10    H28     1.110   .     S
C10    N40     1.447   .     S
C11    O44     1.289   .     A
C11    O42     1.293   .     A
C12    O47     1.289   .     A
C12    C14     1.434   .     S
C12    O45     1.286   .     A
C13    O48     1.289   .     A
C13    C15     1.434   .     S
C13    O46     1.286   .     A
C14    C111    1.335   1_455 S
C14    H117    1.087   1_455 S
C15    C62     1.335   .     S
C15    H77     1.087   .     S
C16    N39     1.423   .     S
C16    C306    1.390   1_545 S
C17    N40     1.423   .     S
C17    C146    1.390   .     S
C18    H30     1.084   .     S
C18    C160    1.390   .     S
Cu19   O45     1.957   .     S
Cu19   Cu20    2.679   .     S
Cu19   O44     1.964   .     S
Cu19   N37     2.014   .     S
Cu19   O48     1.960   .     S
Cu19   O41     1.961   .     S
Cu20   N38     2.014   .     S
Cu20   O42     1.961   .     S
Cu20   O47     1.960   .     S
Cu20   O43     1.964   .     S
Cu20   O46     1.957   .     S
H21    C62     1.087   .     S
H25    N40     1.032   .     S
H29    C111    1.087   1_455 S
H36    N39     1.032   .     S
C49    C52     1.448   .     S
C49    O89     1.293   .     A
C49    O91     1.289   .     A
C50    C52     1.398   .     A
C50    H79     1.084   .     S
C50    C353    1.390   1_545 S
C51    C66     1.398   .     A
C51    C65     1.408   .     A
C51    C59     1.448   .     S
C52    C64     1.408   .     A
C53    H80     1.082   .     S
C53    N86     1.367   .     A
C53    C919    1.417   1_554 S
C54    H81     1.082   .     S
C54    N85     1.367   .     A
C54    C488    1.417   .     S
C55    N85     1.367   .     A
C55    H82     1.082   .     S
C55    C485    1.417   .     S
C56    N86     1.367   .     A
C56    H83     1.082   .     S
C56    C918    1.417   1_554 S
C57    H72     1.111   .     S
C57    H70     1.111   .     S
C57    N87     1.447   .     S
C57    H71     1.110   .     S
C58    H75     1.111   .     S
C58    H74     1.111   .     S
C58    H76     1.110   .     S
C58    N88     1.447   .     S
C59    O92     1.289   .     A
C59    O90     1.293   .     A
C60    O95     1.289   .     A
C60    C62     1.434   .     S
C60    O93     1.286   .     A
C61    O96     1.289   .     A
C61    C63     1.434   .     S
C61    O94     1.286   .     A
C63    C110    1.335   .     S
C63    H125    1.087   .     S
C64    N87     1.423   .     S
C64    C354    1.390   1_545 S
C65    N88     1.423   .     S
C65    C194    1.390   .     S
C66    H78     1.084   .     S
C66    C208    1.390   .     S
Cu67   O93     1.957   .     S
Cu67   Cu68    2.679   .     S
Cu67   O92     1.964   .     S
Cu67   N85     2.014   .     S
Cu67   O96     1.960   .     S
Cu67   O89     1.961   .     S
Cu68   N86     2.014   .     S
Cu68   O90     1.961   .     S
Cu68   O95     1.960   .     S
Cu68   O91     1.964   .     S
Cu68   O94     1.957   .     S
H69    C110    1.087   .     S
H73    N88     1.032   .     S
H84    N87     1.032   .     S
C97    C100    1.448   .     S
C97    O137    1.293   .     A
C97    O139    1.289   .     A
C98    C100    1.398   .     A
C98    H127    1.084   .     S
C98    C401    1.390   1_545 S
C99    C114    1.398   .     A
C99    C113    1.408   .     A
C99    C107    1.448   .     S
C100   C112    1.408   .     A
C101   H128    1.082   .     S
C101   N134    1.367   .     A
C101   C967    1.417   1_554 S
C102   H129    1.082   .     S
C102   N133    1.367   .     A
C102   C536    1.417   .     S
C103   N133    1.367   .     A
C103   H130    1.082   .     S
C103   C533    1.417   .     S
C104   N134    1.367   .     A
C104   H131    1.082   .     S
C104   C966    1.417   1_554 S
C105   H120    1.111   .     S
C105   H118    1.111   .     S
C105   N135    1.447   .     S
C105   H119    1.110   .     S
C106   H123    1.111   .     S
C106   H122    1.111   .     S
C106   H124    1.110   .     S
C106   N136    1.447   .     S
C107   O140    1.289   .     A
C107   O138    1.293   .     A
C108   O143    1.289   .     A
C108   C110    1.434   .     S
C108   O141    1.286   .     A
C109   O144    1.289   .     A
C109   C111    1.434   .     S
C109   O142    1.286   .     A
C111   C14     1.335   1_655 S
C111   H29     1.087   1_655 S
C112   N135    1.423   .     S
C112   C402    1.390   1_545 S
C113   N136    1.423   .     S
C113   C242    1.390   .     S
C114   H126    1.084   .     S
C114   C256    1.390   .     S
Cu115  O141    1.957   .     S
Cu115  Cu116   2.679   .     S
Cu115  O140    1.964   .     S
Cu115  N133    2.014   .     S
Cu115  O144    1.960   .     S
Cu115  O137    1.961   .     S
Cu116  N134    2.014   .     S
Cu116  O138    1.961   .     S
Cu116  O143    1.960   .     S
Cu116  O139    1.964   .     S
Cu116  O142    1.957   .     S
H117   C14     1.087   1_655 S
H121   N136    1.032   .     S
H132   N135    1.032   .     S
C145   C148    1.448   .     S
C145   O185    1.293   .     A
C145   O187    1.289   .     A
C146   C148    1.398   .     A
C146   H175    1.084   .     S
C147   C162    1.398   .     A
C147   C161    1.408   .     A
C147   C155    1.448   .     S
C148   C160    1.408   .     A
C149   H176    1.082   .     S
C149   N182    1.367   .     A
C149   C1015   1.417   1_554 S
C150   H177    1.082   .     S
C150   N181    1.367   .     A
C150   C584    1.417   .     S
C151   N181    1.367   .     A
C151   H178    1.082   .     S
C151   C581    1.417   .     S
C152   N182    1.367   .     A
C152   H179    1.082   .     S
C152   C1014   1.417   1_554 S
C153   H168    1.111   .     S
C153   H166    1.111   .     S
C153   N183    1.447   .     S
C153   H167    1.110   .     S
C154   H171    1.111   .     S
C154   H170    1.111   .     S
C154   H172    1.110   .     S
C154   N184    1.447   .     S
C155   O188    1.289   .     A
C155   O186    1.293   .     A
C156   O191    1.289   .     A
C156   C158    1.434   .     S
C156   O189    1.286   .     A
C157   O192    1.289   .     A
C157   C159    1.434   .     S
C157   O190    1.286   .     A
C158   C255    1.335   1_455 S
C158   H261    1.087   1_455 S
C159   C206    1.335   .     S
C159   H221    1.087   .     S
C160   N183    1.423   .     S
C161   N184    1.423   .     S
C161   C290    1.390   .     S
C162   H174    1.084   .     S
C162   C304    1.390   .     S
Cu163  O189    1.957   .     S
Cu163  Cu164   2.679   .     S
Cu163  O188    1.964   .     S
Cu163  N181    2.014   .     S
Cu163  O192    1.960   .     S
Cu163  O185    1.961   .     S
Cu164  N182    2.014   .     S
Cu164  O186    1.961   .     S
Cu164  O191    1.960   .     S
Cu164  O187    1.964   .     S
Cu164  O190    1.957   .     S
H165   C206    1.087   .     S
H169   N184    1.032   .     S
H173   C255    1.087   1_455 S
H180   N183    1.032   .     S
C193   C196    1.448   .     S
C193   O233    1.293   .     A
C193   O235    1.289   .     A
C194   C196    1.398   .     A
C194   H223    1.084   .     S
C195   C210    1.398   .     A
C195   C209    1.408   .     A
C195   C203    1.448   .     S
C196   C208    1.408   .     A
C197   H224    1.082   .     S
C197   N230    1.367   .     A
C197   C1063   1.417   1_554 S
C198   H225    1.082   .     S
C198   N229    1.367   .     A
C198   C632    1.417   .     S
C199   N229    1.367   .     A
C199   H226    1.082   .     S
C199   C629    1.417   .     S
C200   N230    1.367   .     A
C200   H227    1.082   .     S
C200   C1062   1.417   1_554 S
C201   H216    1.111   .     S
C201   H214    1.111   .     S
C201   N231    1.447   .     S
C201   H215    1.110   .     S
C202   H219    1.111   .     S
C202   H218    1.111   .     S
C202   H220    1.110   .     S
C202   N232    1.447   .     S
C203   O236    1.289   .     A
C203   O234    1.293   .     A
C204   O239    1.289   .     A
C204   C206    1.434   .     S
C204   O237    1.286   .     A
C205   O240    1.289   .     A
C205   C207    1.434   .     S
C205   O238    1.286   .     A
C207   C254    1.335   .     S
C207   H269    1.087   .     S
C208   N231    1.423   .     S
C209   N232    1.423   .     S
C209   C338    1.390   .     S
C210   H222    1.084   .     S
C210   C352    1.390   .     S
Cu211  O237    1.957   .     S
Cu211  Cu212   2.679   .     S
Cu211  O236    1.964   .     S
Cu211  N229    2.014   .     S
Cu211  O240    1.960   .     S
Cu211  O233    1.961   .     S
Cu212  N230    2.014   .     S
Cu212  O234    1.961   .     S
Cu212  O239    1.960   .     S
Cu212  O235    1.964   .     S
Cu212  O238    1.957   .     S
H213   C254    1.087   .     S
H217   N232    1.032   .     S
H228   N231    1.032   .     S
C241   C244    1.448   .     S
C241   O281    1.293   .     A
C241   O283    1.289   .     A
C242   C244    1.398   .     A
C242   H271    1.084   .     S
C243   C258    1.398   .     A
C243   C257    1.408   .     A
C243   C251    1.448   .     S
C244   C256    1.408   .     A
C245   H272    1.082   .     S
C245   N278    1.367   .     A
C245   C1111   1.417   1_554 S
C246   H273    1.082   .     S
C246   N277    1.367   .     A
C246   C680    1.417   .     S
C247   N277    1.367   .     A
C247   H274    1.082   .     S
C247   C677    1.417   .     S
C248   N278    1.367   .     A
C248   H275    1.082   .     S
C248   C1110   1.417   1_554 S
C249   H264    1.111   .     S
C249   H262    1.111   .     S
C249   N279    1.447   .     S
C249   H263    1.110   .     S
C250   H267    1.111   .     S
C250   H266    1.111   .     S
C250   H268    1.110   .     S
C250   N280    1.447   .     S
C251   O284    1.289   .     A
C251   O282    1.293   .     A
C252   O287    1.289   .     A
C252   C254    1.434   .     S
C252   O285    1.286   .     A
C253   O288    1.289   .     A
C253   C255    1.434   .     S
C253   O286    1.286   .     A
C255   C158    1.335   1_655 S
C255   H173    1.087   1_655 S
C256   N279    1.423   .     S
C257   N280    1.423   .     S
C257   C386    1.390   .     S
C258   H270    1.084   .     S
C258   C400    1.390   .     S
Cu259  O285    1.957   .     S
Cu259  Cu260   2.679   .     S
Cu259  O284    1.964   .     S
Cu259  N277    2.014   .     S
Cu259  O288    1.960   .     S
Cu259  O281    1.961   .     S
Cu260  N278    2.014   .     S
Cu260  O282    1.961   .     S
Cu260  O287    1.960   .     S
Cu260  O283    1.964   .     S
Cu260  O286    1.957   .     S
H261   C158    1.087   1_655 S
H265   N280    1.032   .     S
H276   N279    1.032   .     S
C289   C292    1.448   .     S
C289   O329    1.293   .     A
C289   O331    1.289   .     A
C290   C292    1.398   .     A
C290   H319    1.084   .     S
C291   C306    1.398   .     A
C291   C305    1.408   .     A
C291   C299    1.448   .     S
C292   C304    1.408   .     A
C293   H320    1.082   .     S
C293   N326    1.367   .     A
C293   C1159   1.417   1_554 S
C294   H321    1.082   .     S
C294   N325    1.367   .     A
C294   C728    1.417   .     S
C295   N325    1.367   .     A
C295   H322    1.082   .     S
C295   C725    1.417   .     S
C296   N326    1.367   .     A
C296   H323    1.082   .     S
C296   C1158   1.417   1_554 S
C297   H312    1.111   .     S
C297   H310    1.111   .     S
C297   N327    1.447   .     S
C297   H311    1.110   .     S
C298   H315    1.111   .     S
C298   H314    1.111   .     S
C298   H316    1.110   .     S
C298   N328    1.447   .     S
C299   O332    1.289   .     A
C299   O330    1.293   .     A
C300   O335    1.289   .     A
C300   C302    1.434   .     S
C300   O333    1.286   .     A
C301   O336    1.289   .     A
C301   C303    1.434   .     S
C301   O334    1.286   .     A
C302   C399    1.335   1_455 S
C302   H405    1.087   1_455 S
C303   C350    1.335   .     S
C303   H365    1.087   .     S
C304   N327    1.423   .     S
C305   N328    1.423   .     S
C305   C2      1.390   1_565 S
C306   H318    1.084   .     S
C306   C16     1.390   1_565 S
Cu307  O333    1.957   .     S
Cu307  Cu308   2.679   .     S
Cu307  O332    1.964   .     S
Cu307  N325    2.014   .     S
Cu307  O336    1.960   .     S
Cu307  O329    1.961   .     S
Cu308  N326    2.014   .     S
Cu308  O330    1.961   .     S
Cu308  O335    1.960   .     S
Cu308  O331    1.964   .     S
Cu308  O334    1.957   .     S
H309   C350    1.087   .     S
H313   N328    1.032   .     S
H317   C399    1.087   1_455 S
H324   N327    1.032   .     S
C337   C340    1.448   .     S
C337   O377    1.293   .     A
C337   O379    1.289   .     A
C338   C340    1.398   .     A
C338   H367    1.084   .     S
C339   C354    1.398   .     A
C339   C353    1.408   .     A
C339   C347    1.448   .     S
C340   C352    1.408   .     A
C341   H368    1.082   .     S
C341   N374    1.367   .     A
C341   C1207   1.417   1_554 S
C342   H369    1.082   .     S
C342   N373    1.367   .     A
C342   C776    1.417   .     S
C343   N373    1.367   .     A
C343   H370    1.082   .     S
C343   C773    1.417   .     S
C344   N374    1.367   .     A
C344   H371    1.082   .     S
C344   C1206   1.417   1_554 S
C345   H360    1.111   .     S
C345   H358    1.111   .     S
C345   N375    1.447   .     S
C345   H359    1.110   .     S
C346   H363    1.111   .     S
C346   H362    1.111   .     S
C346   H364    1.110   .     S
C346   N376    1.447   .     S
C347   O380    1.289   .     A
C347   O378    1.293   .     A
C348   O383    1.289   .     A
C348   C350    1.434   .     S
C348   O381    1.286   .     A
C349   O384    1.289   .     A
C349   C351    1.434   .     S
C349   O382    1.286   .     A
C351   C398    1.335   .     S
C351   H413    1.087   .     S
C352   N375    1.423   .     S
C353   N376    1.423   .     S
C353   C50     1.390   1_565 S
C354   H366    1.084   .     S
C354   C64     1.390   1_565 S
Cu355  O381    1.957   .     S
Cu355  Cu356   2.679   .     S
Cu355  O380    1.964   .     S
Cu355  N373    2.014   .     S
Cu355  O384    1.960   .     S
Cu355  O377    1.961   .     S
Cu356  N374    2.014   .     S
Cu356  O378    1.961   .     S
Cu356  O383    1.960   .     S
Cu356  O379    1.964   .     S
Cu356  O382    1.957   .     S
H357   C398    1.087   .     S
H361   N376    1.032   .     S
H372   N375    1.032   .     S
C385   C388    1.448   .     S
C385   O425    1.293   .     A
C385   O427    1.289   .     A
C386   C388    1.398   .     A
C386   H415    1.084   .     S
C387   C402    1.398   .     A
C387   C401    1.408   .     A
C387   C395    1.448   .     S
C388   C400    1.408   .     A
C389   H416    1.082   .     S
C389   N422    1.367   .     A
C389   C1255   1.417   1_554 S
C390   H417    1.082   .     S
C390   N421    1.367   .     A
C390   C824    1.417   .     S
C391   N421    1.367   .     A
C391   H418    1.082   .     S
C391   C821    1.417   .     S
C392   N422    1.367   .     A
C392   H419    1.082   .     S
C392   C1254   1.417   1_554 S
C393   H408    1.111   .     S
C393   H406    1.111   .     S
C393   N423    1.447   .     S
C393   H407    1.110   .     S
C394   H411    1.111   .     S
C394   H410    1.111   .     S
C394   H412    1.110   .     S
C394   N424    1.447   .     S
C395   O428    1.289   .     A
C395   O426    1.293   .     A
C396   O431    1.289   .     A
C396   C398    1.434   .     S
C396   O429    1.286   .     A
C397   O432    1.289   .     A
C397   C399    1.434   .     S
C397   O430    1.286   .     A
C399   C302    1.335   1_655 S
C399   H317    1.087   1_655 S
C400   N423    1.423   .     S
C401   N424    1.423   .     S
C401   C98     1.390   1_565 S
C402   H414    1.084   .     S
C402   C112    1.390   1_565 S
Cu403  O429    1.957   .     S
Cu403  Cu404   2.679   .     S
Cu403  O428    1.964   .     S
Cu403  N421    2.014   .     S
Cu403  O432    1.960   .     S
Cu403  O425    1.961   .     S
Cu404  N422    2.014   .     S
Cu404  O426    1.961   .     S
Cu404  O431    1.960   .     S
Cu404  O427    1.964   .     S
Cu404  O430    1.957   .     S
H405   C302    1.087   1_655 S
H409   N424    1.032   .     S
H420   N423    1.032   .     S
C433   C436    1.448   .     S
C433   O473    1.293   .     A
C433   O475    1.289   .     A
C434   C436    1.398   .     A
C434   H463    1.084   .     S
C434   C737    1.390   1_545 S
C435   C450    1.398   .     A
C435   C449    1.408   .     A
C435   C443    1.448   .     S
C436   C448    1.408   .     A
C437   H464    1.082   .     S
C437   N470    1.367   .     A
C438   H465    1.082   .     S
C438   N469    1.367   .     A
C438   C872    1.417   .     S
C439   N469    1.367   .     A
C439   H466    1.082   .     S
C439   C869    1.417   .     S
C440   N470    1.367   .     A
C440   H467    1.082   .     S
C441   H456    1.111   .     S
C441   H454    1.111   .     S
C441   N471    1.447   .     S
C441   H455    1.110   .     S
C442   H459    1.111   .     S
C442   H458    1.111   .     S
C442   H460    1.110   .     S
C442   N472    1.447   .     S
C443   O476    1.289   .     A
C443   O474    1.293   .     A
C444   O479    1.289   .     A
C444   C446    1.434   .     S
C444   O477    1.286   .     A
C445   O480    1.289   .     A
C445   C447    1.434   .     S
C445   O478    1.286   .     A
C446   C543    1.335   1_455 S
C446   H549    1.087   1_455 S
C447   C494    1.335   .     S
C447   H509    1.087   .     S
C448   N471    1.423   .     S
C448   C738    1.390   1_545 S
C449   N472    1.423   .     S
C449   C578    1.390   .     S
C450   H462    1.084   .     S
C450   C592    1.390   .     S
Cu451  O477    1.957   .     S
Cu451  Cu452   2.679   .     S
Cu451  O476    1.964   .     S
Cu451  N469    2.014   .     S
Cu451  O480    1.960   .     S
Cu451  O473    1.961   .     S
Cu452  N470    2.014   .     S
Cu452  O474    1.961   .     S
Cu452  O479    1.960   .     S
Cu452  O475    1.964   .     S
Cu452  O478    1.957   .     S
H453   C494    1.087   .     S
H457   N472    1.032   .     S
H461   C543    1.087   1_455 S
H468   N471    1.032   .     S
C481   C484    1.448   .     S
C481   O521    1.293   .     A
C481   O523    1.289   .     A
C482   C484    1.398   .     A
C482   H511    1.084   .     S
C482   C785    1.390   1_545 S
C483   C498    1.398   .     A
C483   C497    1.408   .     A
C483   C491    1.448   .     S
C484   C496    1.408   .     A
C485   H512    1.082   .     S
C485   N518    1.367   .     A
C486   H513    1.082   .     S
C486   N517    1.367   .     A
C486   C920    1.417   .     S
C487   N517    1.367   .     A
C487   H514    1.082   .     S
C487   C917    1.417   .     S
C488   N518    1.367   .     A
C488   H515    1.082   .     S
C489   H504    1.111   .     S
C489   H502    1.111   .     S
C489   N519    1.447   .     S
C489   H503    1.110   .     S
C490   H507    1.111   .     S
C490   H506    1.111   .     S
C490   H508    1.110   .     S
C490   N520    1.447   .     S
C491   O524    1.289   .     A
C491   O522    1.293   .     A
C492   O527    1.289   .     A
C492   C494    1.434   .     S
C492   O525    1.286   .     A
C493   O528    1.289   .     A
C493   C495    1.434   .     S
C493   O526    1.286   .     A
C495   C542    1.335   .     S
C495   H557    1.087   .     S
C496   N519    1.423   .     S
C496   C786    1.390   1_545 S
C497   N520    1.423   .     S
C497   C626    1.390   .     S
C498   H510    1.084   .     S
C498   C640    1.390   .     S
Cu499  O525    1.957   .     S
Cu499  Cu500   2.679   .     S
Cu499  O524    1.964   .     S
Cu499  N517    2.014   .     S
Cu499  O528    1.960   .     S
Cu499  O521    1.961   .     S
Cu500  N518    2.014   .     S
Cu500  O522    1.961   .     S
Cu500  O527    1.960   .     S
Cu500  O523    1.964   .     S
Cu500  O526    1.957   .     S
H501   C542    1.087   .     S
H505   N520    1.032   .     S
H516   N519    1.032   .     S
C529   C532    1.448   .     S
C529   O569    1.293   .     A
C529   O571    1.289   .     A
C530   C532    1.398   .     A
C530   H559    1.084   .     S
C530   C833    1.390   1_545 S
C531   C546    1.398   .     A
C531   C545    1.408   .     A
C531   C539    1.448   .     S
C532   C544    1.408   .     A
C533   H560    1.082   .     S
C533   N566    1.367   .     A
C534   H561    1.082   .     S
C534   N565    1.367   .     A
C534   C968    1.417   .     S
C535   N565    1.367   .     A
C535   H562    1.082   .     S
C535   C965    1.417   .     S
C536   N566    1.367   .     A
C536   H563    1.082   .     S
C537   H552    1.111   .     S
C537   H550    1.111   .     S
C537   N567    1.447   .     S
C537   H551    1.110   .     S
C538   H555    1.111   .     S
C538   H554    1.111   .     S
C538   H556    1.110   .     S
C538   N568    1.447   .     S
C539   O572    1.289   .     A
C539   O570    1.293   .     A
C540   O575    1.289   .     A
C540   C542    1.434   .     S
C540   O573    1.286   .     A
C541   O576    1.289   .     A
C541   C543    1.434   .     S
C541   O574    1.286   .     A
C543   C446    1.335   1_655 S
C543   H461    1.087   1_655 S
C544   N567    1.423   .     S
C544   C834    1.390   1_545 S
C545   N568    1.423   .     S
C545   C674    1.390   .     S
C546   H558    1.084   .     S
C546   C688    1.390   .     S
Cu547  O573    1.957   .     S
Cu547  Cu548   2.679   .     S
Cu547  O572    1.964   .     S
Cu547  N565    2.014   .     S
Cu547  O576    1.960   .     S
Cu547  O569    1.961   .     S
Cu548  N566    2.014   .     S
Cu548  O570    1.961   .     S
Cu548  O575    1.960   .     S
Cu548  O571    1.964   .     S
Cu548  O574    1.957   .     S
H549   C446    1.087   1_655 S
H553   N568    1.032   .     S
H564   N567    1.032   .     S
C577   C580    1.448   .     S
C577   O617    1.293   .     A
C577   O619    1.289   .     A
C578   C580    1.398   .     A
C578   H607    1.084   .     S
C579   C594    1.398   .     A
C579   C593    1.408   .     A
C579   C587    1.448   .     S
C580   C592    1.408   .     A
C581   H608    1.082   .     S
C581   N614    1.367   .     A
C582   H609    1.082   .     S
C582   N613    1.367   .     A
C582   C1016   1.417   .     S
C583   N613    1.367   .     A
C583   H610    1.082   .     S
C583   C1013   1.417   .     S
C584   N614    1.367   .     A
C584   H611    1.082   .     S
C585   H600    1.111   .     S
C585   H598    1.111   .     S
C585   N615    1.447   .     S
C585   H599    1.110   .     S
C586   H603    1.111   .     S
C586   H602    1.111   .     S
C586   H604    1.110   .     S
C586   N616    1.447   .     S
C587   O620    1.289   .     A
C587   O618    1.293   .     A
C588   O623    1.289   .     A
C588   C590    1.434   .     S
C588   O621    1.286   .     A
C589   O624    1.289   .     A
C589   C591    1.434   .     S
C589   O622    1.286   .     A
C590   C687    1.335   1_455 S
C590   H693    1.087   1_455 S
C591   C638    1.335   .     S
C591   H653    1.087   .     S
C592   N615    1.423   .     S
C593   N616    1.423   .     S
C593   C722    1.390   .     S
C594   H606    1.084   .     S
C594   C736    1.390   .     S
Cu595  O621    1.957   .     S
Cu595  Cu596   2.679   .     S
Cu595  O620    1.964   .     S
Cu595  N613    2.014   .     S
Cu595  O624    1.960   .     S
Cu595  O617    1.961   .     S
Cu596  N614    2.014   .     S
Cu596  O618    1.961   .     S
Cu596  O623    1.960   .     S
Cu596  O619    1.964   .     S
Cu596  O622    1.957   .     S
H597   C638    1.087   .     S
H601   N616    1.032   .     S
H605   C687    1.087   1_455 S
H612   N615    1.032   .     S
C625   C628    1.448   .     S
C625   O665    1.293   .     A
C625   O667    1.289   .     A
C626   C628    1.398   .     A
C626   H655    1.084   .     S
C627   C642    1.398   .     A
C627   C641    1.408   .     A
C627   C635    1.448   .     S
C628   C640    1.408   .     A
C629   H656    1.082   .     S
C629   N662    1.367   .     A
C630   H657    1.082   .     S
C630   N661    1.367   .     A
C630   C1064   1.417   .     S
C631   N661    1.367   .     A
C631   H658    1.082   .     S
C631   C1061   1.417   .     S
C632   N662    1.367   .     A
C632   H659    1.082   .     S
C633   H648    1.111   .     S
C633   H646    1.111   .     S
C633   N663    1.447   .     S
C633   H647    1.110   .     S
C634   H651    1.111   .     S
C634   H650    1.111   .     S
C634   H652    1.110   .     S
C634   N664    1.447   .     S
C635   O668    1.289   .     A
C635   O666    1.293   .     A
C636   O671    1.289   .     A
C636   C638    1.434   .     S
C636   O669    1.286   .     A
C637   O672    1.289   .     A
C637   C639    1.434   .     S
C637   O670    1.286   .     A
C639   C686    1.335   .     S
C639   H701    1.087   .     S
C640   N663    1.423   .     S
C641   N664    1.423   .     S
C641   C770    1.390   .     S
C642   H654    1.084   .     S
C642   C784    1.390   .     S
Cu643  O669    1.957   .     S
Cu643  Cu644   2.679   .     S
Cu643  O668    1.964   .     S
Cu643  N661    2.014   .     S
Cu643  O672    1.960   .     S
Cu643  O665    1.961   .     S
Cu644  N662    2.014   .     S
Cu644  O666    1.961   .     S
Cu644  O671    1.960   .     S
Cu644  O667    1.964   .     S
Cu644  O670    1.957   .     S
H645   C686    1.087   .     S
H649   N664    1.032   .     S
H660   N663    1.032   .     S
C673   C676    1.448   .     S
C673   O713    1.293   .     A
C673   O715    1.289   .     A
C674   C676    1.398   .     A
C674   H703    1.084   .     S
C675   C690    1.398   .     A
C675   C689    1.408   .     A
C675   C683    1.448   .     S
C676   C688    1.408   .     A
C677   H704    1.082   .     S
C677   N710    1.367   .     A
C678   H705    1.082   .     S
C678   N709    1.367   .     A
C678   C1112   1.417   .     S
C679   N709    1.367   .     A
C679   H706    1.082   .     S
C679   C1109   1.417   .     S
C680   N710    1.367   .     A
C680   H707    1.082   .     S
C681   H696    1.111   .     S
C681   H694    1.111   .     S
C681   N711    1.447   .     S
C681   H695    1.110   .     S
C682   H699    1.111   .     S
C682   H698    1.111   .     S
C682   H700    1.110   .     S
C682   N712    1.447   .     S
C683   O716    1.289   .     A
C683   O714    1.293   .     A
C684   O719    1.289   .     A
C684   C686    1.434   .     S
C684   O717    1.286   .     A
C685   O720    1.289   .     A
C685   C687    1.434   .     S
C685   O718    1.286   .     A
C687   C590    1.335   1_655 S
C687   H605    1.087   1_655 S
C688   N711    1.423   .     S
C689   N712    1.423   .     S
C689   C818    1.390   .     S
C690   H702    1.084   .     S
C690   C832    1.390   .     S
Cu691  O717    1.957   .     S
Cu691  Cu692   2.679   .     S
Cu691  O716    1.964   .     S
Cu691  N709    2.014   .     S
Cu691  O720    1.960   .     S
Cu691  O713    1.961   .     S
Cu692  N710    2.014   .     S
Cu692  O714    1.961   .     S
Cu692  O719    1.960   .     S
Cu692  O715    1.964   .     S
Cu692  O718    1.957   .     S
H693   C590    1.087   1_655 S
H697   N712    1.032   .     S
H708   N711    1.032   .     S
C721   C724    1.448   .     S
C721   O761    1.293   .     A
C721   O763    1.289   .     A
C722   C724    1.398   .     A
C722   H751    1.084   .     S
C723   C738    1.398   .     A
C723   C737    1.408   .     A
C723   C731    1.448   .     S
C724   C736    1.408   .     A
C725   H752    1.082   .     S
C725   N758    1.367   .     A
C726   H753    1.082   .     S
C726   N757    1.367   .     A
C726   C1160   1.417   .     S
C727   N757    1.367   .     A
C727   H754    1.082   .     S
C727   C1157   1.417   .     S
C728   N758    1.367   .     A
C728   H755    1.082   .     S
C729   H744    1.111   .     S
C729   H742    1.111   .     S
C729   N759    1.447   .     S
C729   H743    1.110   .     S
C730   H747    1.111   .     S
C730   H746    1.111   .     S
C730   H748    1.110   .     S
C730   N760    1.447   .     S
C731   O764    1.289   .     A
C731   O762    1.293   .     A
C732   O767    1.289   .     A
C732   C734    1.434   .     S
C732   O765    1.286   .     A
C733   O768    1.289   .     A
C733   C735    1.434   .     S
C733   O766    1.286   .     A
C734   C831    1.335   1_455 S
C734   H837    1.087   1_455 S
C735   C782    1.335   .     S
C735   H797    1.087   .     S
C736   N759    1.423   .     S
C737   N760    1.423   .     S
C737   C434    1.390   1_565 S
C738   H750    1.084   .     S
C738   C448    1.390   1_565 S
Cu739  O765    1.957   .     S
Cu739  Cu740   2.679   .     S
Cu739  O764    1.964   .     S
Cu739  N757    2.014   .     S
Cu739  O768    1.960   .     S
Cu739  O761    1.961   .     S
Cu740  N758    2.014   .     S
Cu740  O762    1.961   .     S
Cu740  O767    1.960   .     S
Cu740  O763    1.964   .     S
Cu740  O766    1.957   .     S
H741   C782    1.087   .     S
H745   N760    1.032   .     S
H749   C831    1.087   1_455 S
H756   N759    1.032   .     S
C769   C772    1.448   .     S
C769   O809    1.293   .     A
C769   O811    1.289   .     A
C770   C772    1.398   .     A
C770   H799    1.084   .     S
C771   C786    1.398   .     A
C771   C785    1.408   .     A
C771   C779    1.448   .     S
C772   C784    1.408   .     A
C773   H800    1.082   .     S
C773   N806    1.367   .     A
C774   H801    1.082   .     S
C774   N805    1.367   .     A
C774   C1208   1.417   .     S
C775   N805    1.367   .     A
C775   H802    1.082   .     S
C775   C1205   1.417   .     S
C776   N806    1.367   .     A
C776   H803    1.082   .     S
C777   H792    1.111   .     S
C777   H790    1.111   .     S
C777   N807    1.447   .     S
C777   H791    1.110   .     S
C778   H795    1.111   .     S
C778   H794    1.111   .     S
C778   H796    1.110   .     S
C778   N808    1.447   .     S
C779   O812    1.289   .     A
C779   O810    1.293   .     A
C780   O815    1.289   .     A
C780   C782    1.434   .     S
C780   O813    1.286   .     A
C781   O816    1.289   .     A
C781   C783    1.434   .     S
C781   O814    1.286   .     A
C783   C830    1.335   .     S
C783   H845    1.087   .     S
C784   N807    1.423   .     S
C785   N808    1.423   .     S
C785   C482    1.390   1_565 S
C786   H798    1.084   .     S
C786   C496    1.390   1_565 S
Cu787  O813    1.957   .     S
Cu787  Cu788   2.679   .     S
Cu787  O812    1.964   .     S
Cu787  N805    2.014   .     S
Cu787  O816    1.960   .     S
Cu787  O809    1.961   .     S
Cu788  N806    2.014   .     S
Cu788  O810    1.961   .     S
Cu788  O815    1.960   .     S
Cu788  O811    1.964   .     S
Cu788  O814    1.957   .     S
H789   C830    1.087   .     S
H793   N808    1.032   .     S
H804   N807    1.032   .     S
C817   C820    1.448   .     S
C817   O857    1.293   .     A
C817   O859    1.289   .     A
C818   C820    1.398   .     A
C818   H847    1.084   .     S
C819   C834    1.398   .     A
C819   C833    1.408   .     A
C819   C827    1.448   .     S
C820   C832    1.408   .     A
C821   H848    1.082   .     S
C821   N854    1.367   .     A
C822   H849    1.082   .     S
C822   N853    1.367   .     A
C822   C1256   1.417   .     S
C823   N853    1.367   .     A
C823   H850    1.082   .     S
C823   C1253   1.417   .     S
C824   N854    1.367   .     A
C824   H851    1.082   .     S
C825   H840    1.111   .     S
C825   H838    1.111   .     S
C825   N855    1.447   .     S
C825   H839    1.110   .     S
C826   H843    1.111   .     S
C826   H842    1.111   .     S
C826   H844    1.110   .     S
C826   N856    1.447   .     S
C827   O860    1.289   .     A
C827   O858    1.293   .     A
C828   O863    1.289   .     A
C828   C830    1.434   .     S
C828   O861    1.286   .     A
C829   O864    1.289   .     A
C829   C831    1.434   .     S
C829   O862    1.286   .     A
C831   C734    1.335   1_655 S
C831   H749    1.087   1_655 S
C832   N855    1.423   .     S
C833   N856    1.423   .     S
C833   C530    1.390   1_565 S
C834   H846    1.084   .     S
C834   C544    1.390   1_565 S
Cu835  O861    1.957   .     S
Cu835  Cu836   2.679   .     S
Cu835  O860    1.964   .     S
Cu835  N853    2.014   .     S
Cu835  O864    1.960   .     S
Cu835  O857    1.961   .     S
Cu836  N854    2.014   .     S
Cu836  O858    1.961   .     S
Cu836  O863    1.960   .     S
Cu836  O859    1.964   .     S
Cu836  O862    1.957   .     S
H837   C734    1.087   1_655 S
H841   N856    1.032   .     S
H852   N855    1.032   .     S
C865   C868    1.448   .     S
C865   O905    1.293   .     A
C865   O907    1.289   .     A
C866   C868    1.398   .     A
C866   H895    1.084   .     S
C866   C1169   1.390   1_545 S
C867   C882    1.398   .     A
C867   C881    1.408   .     A
C867   C875    1.448   .     S
C868   C880    1.408   .     A
C869   H896    1.082   .     S
C869   N902    1.367   .     A
C870   H897    1.082   .     S
C870   N901    1.367   .     A
C870   C8      1.417   1_556 S
C871   N901    1.367   .     A
C871   H898    1.082   .     S
C871   C5      1.417   1_556 S
C872   N902    1.367   .     A
C872   H899    1.082   .     S
C873   H888    1.111   .     S
C873   H886    1.111   .     S
C873   N903    1.447   .     S
C873   H887    1.110   .     S
C874   H891    1.111   .     S
C874   H890    1.111   .     S
C874   H892    1.110   .     S
C874   N904    1.447   .     S
C875   O908    1.289   .     A
C875   O906    1.293   .     A
C876   O911    1.289   .     A
C876   C878    1.434   .     S
C876   O909    1.286   .     A
C877   O912    1.289   .     A
C877   C879    1.434   .     S
C877   O910    1.286   .     A
C878   C975    1.335   1_455 S
C878   H981    1.087   1_455 S
C879   C926    1.335   .     S
C879   H941    1.087   .     S
C880   N903    1.423   .     S
C880   C1170   1.390   1_545 S
C881   N904    1.423   .     S
C881   C1010   1.390   .     S
C882   H894    1.084   .     S
C882   C1024   1.390   .     S
Cu883  O909    1.957   .     S
Cu883  Cu884   2.679   .     S
Cu883  O908    1.964   .     S
Cu883  N901    2.014   .     S
Cu883  O912    1.960   .     S
Cu883  O905    1.961   .     S
Cu884  N902    2.014   .     S
Cu884  O906    1.961   .     S
Cu884  O911    1.960   .     S
Cu884  O907    1.964   .     S
Cu884  O910    1.957   .     S
H885   C926    1.087   .     S
H889   N904    1.032   .     S
H893   C975    1.087   1_455 S
H900   N903    1.032   .     S
C913   C916    1.448   .     S
C913   O953    1.293   .     A
C913   O955    1.289   .     A
C914   C916    1.398   .     A
C914   H943    1.084   .     S
C914   C1217   1.390   1_545 S
C915   C930    1.398   .     A
C915   C929    1.408   .     A
C915   C923    1.448   .     S
C916   C928    1.408   .     A
C917   H944    1.082   .     S
C917   N950    1.367   .     A
C918   H945    1.082   .     S
C918   N949    1.367   .     A
C918   C56     1.417   1_556 S
C919   N949    1.367   .     A
C919   H946    1.082   .     S
C919   C53     1.417   1_556 S
C920   N950    1.367   .     A
C920   H947    1.082   .     S
C921   H936    1.111   .     S
C921   H934    1.111   .     S
C921   N951    1.447   .     S
C921   H935    1.110   .     S
C922   H939    1.111   .     S
C922   H938    1.111   .     S
C922   H940    1.110   .     S
C922   N952    1.447   .     S
C923   O956    1.289   .     A
C923   O954    1.293   .     A
C924   O959    1.289   .     A
C924   C926    1.434   .     S
C924   O957    1.286   .     A
C925   O960    1.289   .     A
C925   C927    1.434   .     S
C925   O958    1.286   .     A
C927   C974    1.335   .     S
C927   H989    1.087   .     S
C928   N951    1.423   .     S
C928   C1218   1.390   1_545 S
C929   N952    1.423   .     S
C929   C1058   1.390   .     S
C930   H942    1.084   .     S
C930   C1072   1.390   .     S
Cu931  O957    1.957   .     S
Cu931  Cu932   2.679   .     S
Cu931  O956    1.964   .     S
Cu931  N949    2.014   .     S
Cu931  O960    1.960   .     S
Cu931  O953    1.961   .     S
Cu932  N950    2.014   .     S
Cu932  O954    1.961   .     S
Cu932  O959    1.960   .     S
Cu932  O955    1.964   .     S
Cu932  O958    1.957   .     S
H933   C974    1.087   .     S
H937   N952    1.032   .     S
H948   N951    1.032   .     S
C961   C964    1.448   .     S
C961   O1001   1.293   .     A
C961   O1003   1.289   .     A
C962   C964    1.398   .     A
C962   H991    1.084   .     S
C962   C1265   1.390   1_545 S
C963   C978    1.398   .     A
C963   C977    1.408   .     A
C963   C971    1.448   .     S
C964   C976    1.408   .     A
C965   H992    1.082   .     S
C965   N998    1.367   .     A
C966   H993    1.082   .     S
C966   N997    1.367   .     A
C966   C104    1.417   1_556 S
C967   N997    1.367   .     A
C967   H994    1.082   .     S
C967   C101    1.417   1_556 S
C968   N998    1.367   .     A
C968   H995    1.082   .     S
C969   H984    1.111   .     S
C969   H982    1.111   .     S
C969   N999    1.447   .     S
C969   H983    1.110   .     S
C970   H987    1.111   .     S
C970   H986    1.111   .     S
C970   H988    1.110   .     S
C970   N1000   1.447   .     S
C971   O1004   1.289   .     A
C971   O1002   1.293   .     A
C972   O1007   1.289   .     A
C972   C974    1.434   .     S
C972   O1005   1.286   .     A
C973   O1008   1.289   .     A
C973   C975    1.434   .     S
C973   O1006   1.286   .     A
C975   C878    1.335   1_655 S
C975   H893    1.087   1_655 S
C976   N999    1.423   .     S
C976   C1266   1.390   1_545 S
C977   N1000   1.423   .     S
C977   C1106   1.390   .     S
C978   H990    1.084   .     S
C978   C1120   1.390   .     S
Cu979  O1005   1.957   .     S
Cu979  Cu980   2.679   .     S
Cu979  O1004   1.964   .     S
Cu979  N997    2.014   .     S
Cu979  O1008   1.960   .     S
Cu979  O1001   1.961   .     S
Cu980  N998    2.014   .     S
Cu980  O1002   1.961   .     S
Cu980  O1007   1.960   .     S
Cu980  O1003   1.964   .     S
Cu980  O1006   1.957   .     S
H981   C878    1.087   1_655 S
H985   N1000   1.032   .     S
H996   N999    1.032   .     S
C1009  C1012   1.448   .     S
C1009  O1049   1.293   .     A
C1009  O1051   1.289   .     A
C1010  C1012   1.398   .     A
C1010  H1039   1.084   .     S
C1011  C1026   1.398   .     A
C1011  C1025   1.408   .     A
C1011  C1019   1.448   .     S
C1012  C1024   1.408   .     A
C1013  H1040   1.082   .     S
C1013  N1046   1.367   .     A
C1014  H1041   1.082   .     S
C1014  N1045   1.367   .     A
C1014  C152    1.417   1_556 S
C1015  N1045   1.367   .     A
C1015  H1042   1.082   .     S
C1015  C149    1.417   1_556 S
C1016  N1046   1.367   .     A
C1016  H1043   1.082   .     S
C1017  H1032   1.111   .     S
C1017  H1030   1.111   .     S
C1017  N1047   1.447   .     S
C1017  H1031   1.110   .     S
C1018  H1035   1.111   .     S
C1018  H1034   1.111   .     S
C1018  H1036   1.110   .     S
C1018  N1048   1.447   .     S
C1019  O1052   1.289   .     A
C1019  O1050   1.293   .     A
C1020  O1055   1.289   .     A
C1020  C1022   1.434   .     S
C1020  O1053   1.286   .     A
C1021  O1056   1.289   .     A
C1021  C1023   1.434   .     S
C1021  O1054   1.286   .     A
C1022  C1119   1.335   1_455 S
C1022  H1125   1.087   1_455 S
C1023  C1070   1.335   .     S
C1023  H1085   1.087   .     S
C1024  N1047   1.423   .     S
C1025  N1048   1.423   .     S
C1025  C1154   1.390   .     S
C1026  H1038   1.084   .     S
C1026  C1168   1.390   .     S
Cu1027 O1053   1.957   .     S
Cu1027 Cu1028  2.679   .     S
Cu1027 O1052   1.964   .     S
Cu1027 N1045   2.014   .     S
Cu1027 O1056   1.960   .     S
Cu1027 O1049   1.961   .     S
Cu1028 N1046   2.014   .     S
Cu1028 O1050   1.961   .     S
Cu1028 O1055   1.960   .     S
Cu1028 O1051   1.964   .     S
Cu1028 O1054   1.957   .     S
H1029  C1070   1.087   .     S
H1033  N1048   1.032   .     S
H1037  C1119   1.087   1_455 S
H1044  N1047   1.032   .     S
C1057  C1060   1.448   .     S
C1057  O1097   1.293   .     A
C1057  O1099   1.289   .     A
C1058  C1060   1.398   .     A
C1058  H1087   1.084   .     S
C1059  C1074   1.398   .     A
C1059  C1073   1.408   .     A
C1059  C1067   1.448   .     S
C1060  C1072   1.408   .     A
C1061  H1088   1.082   .     S
C1061  N1094   1.367   .     A
C1062  H1089   1.082   .     S
C1062  N1093   1.367   .     A
C1062  C200    1.417   1_556 S
C1063  N1093   1.367   .     A
C1063  H1090   1.082   .     S
C1063  C197    1.417   1_556 S
C1064  N1094   1.367   .     A
C1064  H1091   1.082   .     S
C1065  H1080   1.111   .     S
C1065  H1078   1.111   .     S
C1065  N1095   1.447   .     S
C1065  H1079   1.110   .     S
C1066  H1083   1.111   .     S
C1066  H1082   1.111   .     S
C1066  H1084   1.110   .     S
C1066  N1096   1.447   .     S
C1067  O1100   1.289   .     A
C1067  O1098   1.293   .     A
C1068  O1103   1.289   .     A
C1068  C1070   1.434   .     S
C1068  O1101   1.286   .     A
C1069  O1104   1.289   .     A
C1069  C1071   1.434   .     S
C1069  O1102   1.286   .     A
C1071  C1118   1.335   .     S
C1071  H1133   1.087   .     S
C1072  N1095   1.423   .     S
C1073  N1096   1.423   .     S
C1073  C1202   1.390   .     S
C1074  H1086   1.084   .     S
C1074  C1216   1.390   .     S
Cu1075 O1101   1.957   .     S
Cu1075 Cu1076  2.679   .     S
Cu1075 O1100   1.964   .     S
Cu1075 N1093   2.014   .     S
Cu1075 O1104   1.960   .     S
Cu1075 O1097   1.961   .     S
Cu1076 N1094   2.014   .     S
Cu1076 O1098   1.961   .     S
Cu1076 O1103   1.960   .     S
Cu1076 O1099   1.964   .     S
Cu1076 O1102   1.957   .     S
H1077  C1118   1.087   .     S
H1081  N1096   1.032   .     S
H1092  N1095   1.032   .     S
C1105  C1108   1.448   .     S
C1105  O1145   1.293   .     A
C1105  O1147   1.289   .     A
C1106  C1108   1.398   .     A
C1106  H1135   1.084   .     S
C1107  C1122   1.398   .     A
C1107  C1121   1.408   .     A
C1107  C1115   1.448   .     S
C1108  C1120   1.408   .     A
C1109  H1136   1.082   .     S
C1109  N1142   1.367   .     A
C1110  H1137   1.082   .     S
C1110  N1141   1.367   .     A
C1110  C248    1.417   1_556 S
C1111  N1141   1.367   .     A
C1111  H1138   1.082   .     S
C1111  C245    1.417   1_556 S
C1112  N1142   1.367   .     A
C1112  H1139   1.082   .     S
C1113  H1128   1.111   .     S
C1113  H1126   1.111   .     S
C1113  N1143   1.447   .     S
C1113  H1127   1.110   .     S
C1114  H1131   1.111   .     S
C1114  H1130   1.111   .     S
C1114  H1132   1.110   .     S
C1114  N1144   1.447   .     S
C1115  O1148   1.289   .     A
C1115  O1146   1.293   .     A
C1116  O1151   1.289   .     A
C1116  C1118   1.434   .     S
C1116  O1149   1.286   .     A
C1117  O1152   1.289   .     A
C1117  C1119   1.434   .     S
C1117  O1150   1.286   .     A
C1119  C1022   1.335   1_655 S
C1119  H1037   1.087   1_655 S
C1120  N1143   1.423   .     S
C1121  N1144   1.423   .     S
C1121  C1250   1.390   .     S
C1122  H1134   1.084   .     S
C1122  C1264   1.390   .     S
Cu1123 O1149   1.957   .     S
Cu1123 Cu1124  2.679   .     S
Cu1123 O1148   1.964   .     S
Cu1123 N1141   2.014   .     S
Cu1123 O1152   1.960   .     S
Cu1123 O1145   1.961   .     S
Cu1124 N1142   2.014   .     S
Cu1124 O1146   1.961   .     S
Cu1124 O1151   1.960   .     S
Cu1124 O1147   1.964   .     S
Cu1124 O1150   1.957   .     S
H1125  C1022   1.087   1_655 S
H1129  N1144   1.032   .     S
H1140  N1143   1.032   .     S
C1153  C1156   1.448   .     S
C1153  O1193   1.293   .     A
C1153  O1195   1.289   .     A
C1154  C1156   1.398   .     A
C1154  H1183   1.084   .     S
C1155  C1170   1.398   .     A
C1155  C1169   1.408   .     A
C1155  C1163   1.448   .     S
C1156  C1168   1.408   .     A
C1157  H1184   1.082   .     S
C1157  N1190   1.367   .     A
C1158  H1185   1.082   .     S
C1158  N1189   1.367   .     A
C1158  C296    1.417   1_556 S
C1159  N1189   1.367   .     A
C1159  H1186   1.082   .     S
C1159  C293    1.417   1_556 S
C1160  N1190   1.367   .     A
C1160  H1187   1.082   .     S
C1161  H1176   1.111   .     S
C1161  H1174   1.111   .     S
C1161  N1191   1.447   .     S
C1161  H1175   1.110   .     S
C1162  H1179   1.111   .     S
C1162  H1178   1.111   .     S
C1162  H1180   1.110   .     S
C1162  N1192   1.447   .     S
C1163  O1196   1.289   .     A
C1163  O1194   1.293   .     A
C1164  O1199   1.289   .     A
C1164  C1166   1.434   .     S
C1164  O1197   1.286   .     A
C1165  O1200   1.289   .     A
C1165  C1167   1.434   .     S
C1165  O1198   1.286   .     A
C1166  C1263   1.335   1_455 S
C1166  H1269   1.087   1_455 S
C1167  C1214   1.335   .     S
C1167  H1229   1.087   .     S
C1168  N1191   1.423   .     S
C1169  N1192   1.423   .     S
C1169  C866    1.390   1_565 S
C1170  H1182   1.084   .     S
C1170  C880    1.390   1_565 S
Cu1171 O1197   1.957   .     S
Cu1171 Cu1172  2.679   .     S
Cu1171 O1196   1.964   .     S
Cu1171 N1189   2.014   .     S
Cu1171 O1200   1.960   .     S
Cu1171 O1193   1.961   .     S
Cu1172 N1190   2.014   .     S
Cu1172 O1194   1.961   .     S
Cu1172 O1199   1.960   .     S
Cu1172 O1195   1.964   .     S
Cu1172 O1198   1.957   .     S
H1173  C1214   1.087   .     S
H1177  N1192   1.032   .     S
H1181  C1263   1.087   1_455 S
H1188  N1191   1.032   .     S
C1201  C1204   1.448   .     S
C1201  O1241   1.293   .     A
C1201  O1243   1.289   .     A
C1202  C1204   1.398   .     A
C1202  H1231   1.084   .     S
C1203  C1218   1.398   .     A
C1203  C1217   1.408   .     A
C1203  C1211   1.448   .     S
C1204  C1216   1.408   .     A
C1205  H1232   1.082   .     S
C1205  N1238   1.367   .     A
C1206  H1233   1.082   .     S
C1206  N1237   1.367   .     A
C1206  C344    1.417   1_556 S
C1207  N1237   1.367   .     A
C1207  H1234   1.082   .     S
C1207  C341    1.417   1_556 S
C1208  N1238   1.367   .     A
C1208  H1235   1.082   .     S
C1209  H1224   1.111   .     S
C1209  H1222   1.111   .     S
C1209  N1239   1.447   .     S
C1209  H1223   1.110   .     S
C1210  H1227   1.111   .     S
C1210  H1226   1.111   .     S
C1210  H1228   1.110   .     S
C1210  N1240   1.447   .     S
C1211  O1244   1.289   .     A
C1211  O1242   1.293   .     A
C1212  O1247   1.289   .     A
C1212  C1214   1.434   .     S
C1212  O1245   1.286   .     A
C1213  O1248   1.289   .     A
C1213  C1215   1.434   .     S
C1213  O1246   1.286   .     A
C1215  C1262   1.335   .     S
C1215  H1277   1.087   .     S
C1216  N1239   1.423   .     S
C1217  N1240   1.423   .     S
C1217  C914    1.390   1_565 S
C1218  H1230   1.084   .     S
C1218  C928    1.390   1_565 S
Cu1219 O1245   1.957   .     S
Cu1219 Cu1220  2.679   .     S
Cu1219 O1244   1.964   .     S
Cu1219 N1237   2.014   .     S
Cu1219 O1248   1.960   .     S
Cu1219 O1241   1.961   .     S
Cu1220 N1238   2.014   .     S
Cu1220 O1242   1.961   .     S
Cu1220 O1247   1.960   .     S
Cu1220 O1243   1.964   .     S
Cu1220 O1246   1.957   .     S
H1221  C1262   1.087   .     S
H1225  N1240   1.032   .     S
H1236  N1239   1.032   .     S
C1249  C1252   1.448   .     S
C1249  O1289   1.293   .     A
C1249  O1291   1.289   .     A
C1250  C1252   1.398   .     A
C1250  H1279   1.084   .     S
C1251  C1266   1.398   .     A
C1251  C1265   1.408   .     A
C1251  C1259   1.448   .     S
C1252  C1264   1.408   .     A
C1253  H1280   1.082   .     S
C1253  N1286   1.367   .     A
C1254  H1281   1.082   .     S
C1254  N1285   1.367   .     A
C1254  C392    1.417   1_556 S
C1255  N1285   1.367   .     A
C1255  H1282   1.082   .     S
C1255  C389    1.417   1_556 S
C1256  N1286   1.367   .     A
C1256  H1283   1.082   .     S
C1257  H1272   1.111   .     S
C1257  H1270   1.111   .     S
C1257  N1287   1.447   .     S
C1257  H1271   1.110   .     S
C1258  H1275   1.111   .     S
C1258  H1274   1.111   .     S
C1258  H1276   1.110   .     S
C1258  N1288   1.447   .     S
C1259  O1292   1.289   .     A
C1259  O1290   1.293   .     A
C1260  O1295   1.289   .     A
C1260  C1262   1.434   .     S
C1260  O1293   1.286   .     A
C1261  O1296   1.289   .     A
C1261  C1263   1.434   .     S
C1261  O1294   1.286   .     A
C1263  C1166   1.335   1_655 S
C1263  H1181   1.087   1_655 S
C1264  N1287   1.423   .     S
C1265  N1288   1.423   .     S
C1265  C962    1.390   1_565 S
C1266  H1278   1.084   .     S
C1266  C976    1.390   1_565 S
Cu1267 O1293   1.957   .     S
Cu1267 Cu1268  2.679   .     S
Cu1267 O1292   1.964   .     S
Cu1267 N1285   2.014   .     S
Cu1267 O1296   1.960   .     S
Cu1267 O1289   1.961   .     S
Cu1268 N1286   2.014   .     S
Cu1268 O1290   1.961   .     S
Cu1268 O1295   1.960   .     S
Cu1268 O1291   1.964   .     S
Cu1268 O1294   1.957   .     S
H1269  C1166   1.087   1_655 S
H1273  N1288   1.032   .     S
H1284  N1287   1.032   .     S
