data_str_m2_o10_o18_pcu_sym.75
_audit_creation_date              2020-01-03
_audit_creation_method            'Materials Studio'
_symmetry_space_group_name_H-M    'P1'
_symmetry_Int_Tables_number       1
_symmetry_cell_setting            triclinic
loop_
_symmetry_equiv_pos_as_xyz
  x,y,z
_cell_length_a                    22.3229
_cell_length_b                    26.1705
_cell_length_c                    31.4416
_cell_angle_alpha                 93.8927
_cell_angle_beta                  74.9269
_cell_angle_gamma                 102.4032
loop_
_atom_site_label
_atom_site_type_symbol
_atom_site_fract_x
_atom_site_fract_y
_atom_site_fract_z
_atom_site_U_iso_or_equiv
_atom_site_adp_type
_atom_site_occupancy
C1     C     0.18184   0.26636   0.24964   0.00000  Uiso   1.00
C2     C     0.20544   0.17119   0.16686   0.00000  Uiso   1.00
C3     C     0.10420   0.15391   0.38067   0.00000  Uiso   1.00
C4     C     0.22938   0.18050   0.11952   0.00000  Uiso   1.00
C5     C     0.03022   0.10729   0.44289   0.00000  Uiso   1.00
C6     C     0.30248   0.22975   0.05831   0.00000  Uiso   1.00
C7     C     0.04749   0.11892   0.39819   0.00000  Uiso   1.00
C8     C     0.28471   0.21742   0.10288   0.00000  Uiso   1.00
C9     C     0.14351   0.17619   0.40792   0.00000  Uiso   1.00
C10    C     0.19112   0.15784   0.09170   0.00000  Uiso   1.00
C11    C     0.13233   0.15844   0.45104   0.00000  Uiso   1.00
C12    C     0.15148   0.06697   0.25037   0.00000  Uiso   1.00
C13    C     0.20200   0.17698   0.04909   0.00000  Uiso   1.00
C14    C     0.07207   0.12707   0.46944   0.00000  Uiso   1.00
C15    C     0.26165   0.20931   0.03122   0.00000  Uiso   1.00
C16    C     0.17769   0.17270   0.47688   0.00000  Uiso   1.00
C17    C     0.15666   0.16340   0.02333   0.00000  Uiso   1.00
C18    C     0.05753   0.14646   0.08900   0.00000  Uiso   1.00
C19    C     0.27591   0.19035   0.41120   0.00000  Uiso   1.00
C20    C     0.24922   0.01117   0.20705   0.00000  Uiso   1.00
C21    C     0.08412   0.32218   0.29300   0.00000  Uiso   1.00
C22    C     0.09109   0.14130   0.04201   0.00000  Uiso   1.00
C23    C     0.24316   0.19556   0.45841   0.00000  Uiso   1.00
C24    C     0.05227   0.11885   0.01455   0.00000  Uiso   1.00
C25    C     0.28160   0.21817   0.48623   0.00000  Uiso   1.00
C26    C     0.19104   0.32103   0.24141   0.00000  Uiso   1.00
C27    C     0.14229   0.01230   0.25861   0.00000  Uiso   1.00
C28    C     0.12792   0.16231   0.33316   0.00000  Uiso   1.00
Cu29   Cu    0.10737   0.16108   0.24516   0.00000  Uiso   1.00
Cu30   Cu    0.22596   0.17225   0.25483   0.00000  Uiso   1.00
H31    H     0.00373   0.09923   0.02889   0.00000  Uiso   1.00
H32    H     0.33230   0.12860   0.21549   0.00000  Uiso   1.00
H33    H     0.01621   0.11707   0.10382   0.00000  Uiso   1.00
H34    H     0.25883   0.15725   0.39175   0.00000  Uiso   1.00
H35    H     0.25079   0.04567   0.18920   0.00000  Uiso   1.00
H36    H     0.08248   0.28759   0.31076   0.00000  Uiso   1.00
H37    H     0.32995   0.23848   0.47235   0.00000  Uiso   1.00
H38    H     0.15215   0.12588   0.10429   0.00000  Uiso   1.00
H39    H     0.18250   0.20775   0.39467   0.00000  Uiso   1.00
H40    H     0.31403   0.23653   0.12424   0.00000  Uiso   1.00
H41    H     0.01659   0.10097   0.37749   0.00000  Uiso   1.00
H42    H     0.31786   0.08241   0.45661   0.00000  Uiso   1.00
H43    H     0.01413   0.25590   0.04519   0.00000  Uiso   1.00
H44    H     0.00104   0.20474   0.28451   0.00000  Uiso   1.00
N45    N     0.31506   0.18068   0.26212   0.00000  Uiso   1.00
N46    N     0.01827   0.15265   0.23788   0.00000  Uiso   1.00
O47    O     0.12815   0.23809   0.24686   0.00000  Uiso   1.00
O48    O     0.32273   0.22256   0.39364   0.00000  Uiso   1.00
O49    O     0.29580   0.32460   0.19746   0.00000  Uiso   1.00
O50    O     0.03765   0.00887   0.30273   0.00000  Uiso   1.00
O51    O     0.20518   0.09524   0.25314   0.00000  Uiso   1.00
O52    O     0.22829   0.24753   0.25502   0.00000  Uiso   1.00
O53    O     0.10504   0.08580   0.24497   0.00000  Uiso   1.00
O54    O     0.08851   0.15930   0.30854   0.00000  Uiso   1.00
O55    O     0.24482   0.17403   0.19145   0.00000  Uiso   1.00
O56    O     0.18866   0.16874   0.31671   0.00000  Uiso   1.00
O57    O     0.14468   0.16460   0.18329   0.00000  Uiso   1.00
O58    O     0.07302   0.18509   0.11082   0.00000  Uiso   1.00
C59    C     0.51518   0.26636   0.24964   0.00000  Uiso   1.00
C60    C     0.53877   0.17119   0.16686   0.00000  Uiso   1.00
C61    C     0.43753   0.15391   0.38067   0.00000  Uiso   1.00
C62    C     0.56271   0.18050   0.11952   0.00000  Uiso   1.00
C63    C     0.36356   0.10729   0.44289   0.00000  Uiso   1.00
C64    C     0.63581   0.22975   0.05831   0.00000  Uiso   1.00
C65    C     0.38083   0.11892   0.39819   0.00000  Uiso   1.00
C66    C     0.61804   0.21742   0.10288   0.00000  Uiso   1.00
C67    C     0.47684   0.17619   0.40792   0.00000  Uiso   1.00
C68    C     0.52445   0.15784   0.09170   0.00000  Uiso   1.00
C69    C     0.46566   0.15844   0.45104   0.00000  Uiso   1.00
C70    C     0.48482   0.06697   0.25037   0.00000  Uiso   1.00
C71    C     0.53533   0.17698   0.04909   0.00000  Uiso   1.00
C72    C     0.40540   0.12707   0.46944   0.00000  Uiso   1.00
C73    C     0.59498   0.20931   0.03122   0.00000  Uiso   1.00
C74    C     0.51102   0.17270   0.47688   0.00000  Uiso   1.00
C75    C     0.49000   0.16340   0.02333   0.00000  Uiso   1.00
C76    C     0.39086   0.14646   0.08900   0.00000  Uiso   1.00
C77    C     0.60924   0.19035   0.41120   0.00000  Uiso   1.00
C78    C     0.58255   0.01117   0.20705   0.00000  Uiso   1.00
C79    C     0.41746   0.32218   0.29300   0.00000  Uiso   1.00
C80    C     0.42442   0.14130   0.04201   0.00000  Uiso   1.00
C81    C     0.57649   0.19556   0.45841   0.00000  Uiso   1.00
C82    C     0.38560   0.11885   0.01455   0.00000  Uiso   1.00
C83    C     0.61493   0.21817   0.48623   0.00000  Uiso   1.00
C84    C     0.52437   0.32103   0.24141   0.00000  Uiso   1.00
C85    C     0.47562   0.01230   0.25861   0.00000  Uiso   1.00
C86    C     0.46125   0.16231   0.33316   0.00000  Uiso   1.00
Cu87   Cu    0.44071   0.16108   0.24516   0.00000  Uiso   1.00
Cu88   Cu    0.55929   0.17225   0.25483   0.00000  Uiso   1.00
H89    H     0.33706   0.09923   0.02889   0.00000  Uiso   1.00
H90    H     0.66563   0.12860   0.21549   0.00000  Uiso   1.00
H91    H     0.34955   0.11707   0.10382   0.00000  Uiso   1.00
H92    H     0.59217   0.15725   0.39175   0.00000  Uiso   1.00
H93    H     0.58413   0.04567   0.18920   0.00000  Uiso   1.00
H94    H     0.41582   0.28759   0.31076   0.00000  Uiso   1.00
H95    H     0.66328   0.23848   0.47235   0.00000  Uiso   1.00
H96    H     0.48549   0.12588   0.10429   0.00000  Uiso   1.00
H97    H     0.51583   0.20775   0.39467   0.00000  Uiso   1.00
H98    H     0.64737   0.23653   0.12424   0.00000  Uiso   1.00
H99    H     0.34992   0.10097   0.37749   0.00000  Uiso   1.00
H100   H     0.65119   0.08241   0.45661   0.00000  Uiso   1.00
H101   H     0.34746   0.25590   0.04519   0.00000  Uiso   1.00
H102   H     0.33437   0.20474   0.28451   0.00000  Uiso   1.00
N103   N     0.64839   0.18068   0.26212   0.00000  Uiso   1.00
N104   N     0.35161   0.15265   0.23788   0.00000  Uiso   1.00
O105   O     0.46148   0.23809   0.24686   0.00000  Uiso   1.00
O106   O     0.65607   0.22256   0.39364   0.00000  Uiso   1.00
O107   O     0.62914   0.32460   0.19746   0.00000  Uiso   1.00
O108   O     0.37098   0.00887   0.30273   0.00000  Uiso   1.00
O109   O     0.53852   0.09524   0.25314   0.00000  Uiso   1.00
O110   O     0.56163   0.24753   0.25502   0.00000  Uiso   1.00
O111   O     0.43837   0.08580   0.24497   0.00000  Uiso   1.00
O112   O     0.42185   0.15930   0.30854   0.00000  Uiso   1.00
O113   O     0.57815   0.17403   0.19145   0.00000  Uiso   1.00
O114   O     0.52199   0.16874   0.31671   0.00000  Uiso   1.00
O115   O     0.47801   0.16460   0.18329   0.00000  Uiso   1.00
O116   O     0.40635   0.18509   0.11082   0.00000  Uiso   1.00
C117   C     0.84851   0.26636   0.24964   0.00000  Uiso   1.00
C118   C     0.87210   0.17119   0.16686   0.00000  Uiso   1.00
C119   C     0.77087   0.15391   0.38067   0.00000  Uiso   1.00
C120   C     0.89604   0.18050   0.11952   0.00000  Uiso   1.00
C121   C     0.69689   0.10729   0.44289   0.00000  Uiso   1.00
C122   C     0.96914   0.22975   0.05831   0.00000  Uiso   1.00
C123   C     0.71416   0.11892   0.39819   0.00000  Uiso   1.00
C124   C     0.95138   0.21742   0.10288   0.00000  Uiso   1.00
C125   C     0.81017   0.17619   0.40792   0.00000  Uiso   1.00
C126   C     0.85779   0.15784   0.09170   0.00000  Uiso   1.00
C127   C     0.79899   0.15844   0.45104   0.00000  Uiso   1.00
C128   C     0.81815   0.06697   0.25037   0.00000  Uiso   1.00
C129   C     0.86866   0.17698   0.04909   0.00000  Uiso   1.00
C130   C     0.73873   0.12707   0.46944   0.00000  Uiso   1.00
C131   C     0.92831   0.20931   0.03122   0.00000  Uiso   1.00
C132   C     0.84435   0.17270   0.47688   0.00000  Uiso   1.00
C133   C     0.82333   0.16340   0.02333   0.00000  Uiso   1.00
C134   C     0.72419   0.14646   0.08900   0.00000  Uiso   1.00
C135   C     0.94257   0.19035   0.41120   0.00000  Uiso   1.00
C136   C     0.91589   0.01117   0.20705   0.00000  Uiso   1.00
C137   C     0.75079   0.32218   0.29300   0.00000  Uiso   1.00
C138   C     0.75775   0.14130   0.04201   0.00000  Uiso   1.00
C139   C     0.90983   0.19556   0.45841   0.00000  Uiso   1.00
C140   C     0.71893   0.11885   0.01455   0.00000  Uiso   1.00
C141   C     0.94827   0.21817   0.48623   0.00000  Uiso   1.00
C142   C     0.85770   0.32103   0.24141   0.00000  Uiso   1.00
C143   C     0.80895   0.01230   0.25861   0.00000  Uiso   1.00
C144   C     0.79458   0.16231   0.33316   0.00000  Uiso   1.00
Cu145  Cu    0.77404   0.16108   0.24516   0.00000  Uiso   1.00
Cu146  Cu    0.89263   0.17225   0.25483   0.00000  Uiso   1.00
H147   H     0.67040   0.09923   0.02889   0.00000  Uiso   1.00
H148   H     0.99896   0.12860   0.21549   0.00000  Uiso   1.00
H149   H     0.68288   0.11707   0.10382   0.00000  Uiso   1.00
H150   H     0.92550   0.15725   0.39175   0.00000  Uiso   1.00
H151   H     0.91746   0.04567   0.18920   0.00000  Uiso   1.00
H152   H     0.74915   0.28759   0.31076   0.00000  Uiso   1.00
H153   H     0.99661   0.23848   0.47235   0.00000  Uiso   1.00
H154   H     0.81882   0.12588   0.10429   0.00000  Uiso   1.00
H155   H     0.84916   0.20775   0.39467   0.00000  Uiso   1.00
H156   H     0.98070   0.23653   0.12424   0.00000  Uiso   1.00
H157   H     0.68326   0.10097   0.37749   0.00000  Uiso   1.00
H158   H     0.98452   0.08241   0.45661   0.00000  Uiso   1.00
H159   H     0.68080   0.25590   0.04519   0.00000  Uiso   1.00
H160   H     0.66771   0.20474   0.28451   0.00000  Uiso   1.00
N161   N     0.98173   0.18068   0.26212   0.00000  Uiso   1.00
N162   N     0.68494   0.15265   0.23788   0.00000  Uiso   1.00
O163   O     0.79482   0.23809   0.24686   0.00000  Uiso   1.00
O164   O     0.98940   0.22256   0.39364   0.00000  Uiso   1.00
O165   O     0.96247   0.32460   0.19746   0.00000  Uiso   1.00
O166   O     0.70431   0.00887   0.30273   0.00000  Uiso   1.00
O167   O     0.87185   0.09524   0.25314   0.00000  Uiso   1.00
O168   O     0.89496   0.24753   0.25502   0.00000  Uiso   1.00
O169   O     0.77171   0.08580   0.24497   0.00000  Uiso   1.00
O170   O     0.75518   0.15930   0.30854   0.00000  Uiso   1.00
O171   O     0.91149   0.17403   0.19145   0.00000  Uiso   1.00
O172   O     0.85532   0.16874   0.31671   0.00000  Uiso   1.00
O173   O     0.81134   0.16460   0.18329   0.00000  Uiso   1.00
O174   O     0.73968   0.18509   0.11082   0.00000  Uiso   1.00
C175   C     0.18184   0.59970   0.24964   0.00000  Uiso   1.00
C176   C     0.20544   0.50452   0.16686   0.00000  Uiso   1.00
C177   C     0.10420   0.48724   0.38067   0.00000  Uiso   1.00
C178   C     0.22938   0.51383   0.11952   0.00000  Uiso   1.00
C179   C     0.03022   0.44062   0.44289   0.00000  Uiso   1.00
C180   C     0.30248   0.56308   0.05831   0.00000  Uiso   1.00
C181   C     0.04749   0.45225   0.39819   0.00000  Uiso   1.00
C182   C     0.28471   0.55076   0.10288   0.00000  Uiso   1.00
C183   C     0.14351   0.50952   0.40792   0.00000  Uiso   1.00
C184   C     0.19112   0.49117   0.09170   0.00000  Uiso   1.00
C185   C     0.13233   0.49177   0.45104   0.00000  Uiso   1.00
C186   C     0.15148   0.40030   0.25037   0.00000  Uiso   1.00
C187   C     0.20200   0.51031   0.04909   0.00000  Uiso   1.00
C188   C     0.07207   0.46041   0.46944   0.00000  Uiso   1.00
C189   C     0.26165   0.54265   0.03122   0.00000  Uiso   1.00
C190   C     0.17769   0.50604   0.47688   0.00000  Uiso   1.00
C191   C     0.15666   0.49674   0.02333   0.00000  Uiso   1.00
C192   C     0.05753   0.47979   0.08900   0.00000  Uiso   1.00
C193   C     0.27591   0.52369   0.41120   0.00000  Uiso   1.00
C194   C     0.24922   0.34451   0.20705   0.00000  Uiso   1.00
C195   C     0.08412   0.65551   0.29300   0.00000  Uiso   1.00
C196   C     0.09109   0.47463   0.04201   0.00000  Uiso   1.00
C197   C     0.24316   0.52889   0.45841   0.00000  Uiso   1.00
C198   C     0.05227   0.45218   0.01455   0.00000  Uiso   1.00
C199   C     0.28160   0.55151   0.48623   0.00000  Uiso   1.00
C200   C     0.19104   0.65436   0.24141   0.00000  Uiso   1.00
C201   C     0.14229   0.34564   0.25861   0.00000  Uiso   1.00
C202   C     0.12792   0.49564   0.33316   0.00000  Uiso   1.00
Cu203  Cu    0.10737   0.49441   0.24516   0.00000  Uiso   1.00
Cu204  Cu    0.22596   0.50559   0.25483   0.00000  Uiso   1.00
H205   H     0.00373   0.43257   0.02889   0.00000  Uiso   1.00
H206   H     0.33230   0.46193   0.21549   0.00000  Uiso   1.00
H207   H     0.01621   0.45040   0.10382   0.00000  Uiso   1.00
H208   H     0.25883   0.49058   0.39175   0.00000  Uiso   1.00
H209   H     0.25079   0.37901   0.18920   0.00000  Uiso   1.00
H210   H     0.08248   0.62092   0.31076   0.00000  Uiso   1.00
H211   H     0.32995   0.57181   0.47235   0.00000  Uiso   1.00
H212   H     0.15215   0.45922   0.10429   0.00000  Uiso   1.00
H213   H     0.18250   0.54108   0.39467   0.00000  Uiso   1.00
H214   H     0.31403   0.56986   0.12424   0.00000  Uiso   1.00
H215   H     0.01659   0.43430   0.37749   0.00000  Uiso   1.00
H216   H     0.31786   0.41574   0.45661   0.00000  Uiso   1.00
H217   H     0.01413   0.58923   0.04519   0.00000  Uiso   1.00
H218   H     0.00104   0.53808   0.28451   0.00000  Uiso   1.00
N219   N     0.31506   0.51401   0.26212   0.00000  Uiso   1.00
N220   N     0.01827   0.48599   0.23788   0.00000  Uiso   1.00
O221   O     0.12815   0.57142   0.24686   0.00000  Uiso   1.00
O222   O     0.32273   0.55590   0.39364   0.00000  Uiso   1.00
O223   O     0.29580   0.65794   0.19746   0.00000  Uiso   1.00
O224   O     0.03765   0.34221   0.30273   0.00000  Uiso   1.00
O225   O     0.20518   0.42858   0.25314   0.00000  Uiso   1.00
O226   O     0.22829   0.58086   0.25502   0.00000  Uiso   1.00
O227   O     0.10504   0.41914   0.24497   0.00000  Uiso   1.00
O228   O     0.08851   0.49263   0.30854   0.00000  Uiso   1.00
O229   O     0.24482   0.50737   0.19145   0.00000  Uiso   1.00
O230   O     0.18866   0.50207   0.31671   0.00000  Uiso   1.00
O231   O     0.14468   0.49793   0.18329   0.00000  Uiso   1.00
O232   O     0.07302   0.51842   0.11082   0.00000  Uiso   1.00
C233   C     0.51518   0.59970   0.24964   0.00000  Uiso   1.00
C234   C     0.53877   0.50452   0.16686   0.00000  Uiso   1.00
C235   C     0.43753   0.48724   0.38067   0.00000  Uiso   1.00
C236   C     0.56271   0.51383   0.11952   0.00000  Uiso   1.00
C237   C     0.36356   0.44062   0.44289   0.00000  Uiso   1.00
C238   C     0.63581   0.56308   0.05831   0.00000  Uiso   1.00
C239   C     0.38083   0.45225   0.39819   0.00000  Uiso   1.00
C240   C     0.61804   0.55076   0.10288   0.00000  Uiso   1.00
C241   C     0.47684   0.50952   0.40792   0.00000  Uiso   1.00
C242   C     0.52445   0.49117   0.09170   0.00000  Uiso   1.00
C243   C     0.46566   0.49177   0.45104   0.00000  Uiso   1.00
C244   C     0.48482   0.40030   0.25037   0.00000  Uiso   1.00
C245   C     0.53533   0.51031   0.04909   0.00000  Uiso   1.00
C246   C     0.40540   0.46041   0.46944   0.00000  Uiso   1.00
C247   C     0.59498   0.54265   0.03122   0.00000  Uiso   1.00
C248   C     0.51102   0.50604   0.47688   0.00000  Uiso   1.00
C249   C     0.49000   0.49674   0.02333   0.00000  Uiso   1.00
C250   C     0.39086   0.47979   0.08900   0.00000  Uiso   1.00
C251   C     0.60924   0.52369   0.41120   0.00000  Uiso   1.00
C252   C     0.58255   0.34451   0.20705   0.00000  Uiso   1.00
C253   C     0.41746   0.65551   0.29300   0.00000  Uiso   1.00
C254   C     0.42442   0.47463   0.04201   0.00000  Uiso   1.00
C255   C     0.57649   0.52889   0.45841   0.00000  Uiso   1.00
C256   C     0.38560   0.45218   0.01455   0.00000  Uiso   1.00
C257   C     0.61493   0.55151   0.48623   0.00000  Uiso   1.00
C258   C     0.52437   0.65436   0.24141   0.00000  Uiso   1.00
C259   C     0.47562   0.34564   0.25861   0.00000  Uiso   1.00
C260   C     0.46125   0.49564   0.33316   0.00000  Uiso   1.00
Cu261  Cu    0.44071   0.49441   0.24516   0.00000  Uiso   1.00
Cu262  Cu    0.55929   0.50559   0.25483   0.00000  Uiso   1.00
H263   H     0.33706   0.43257   0.02889   0.00000  Uiso   1.00
H264   H     0.66563   0.46193   0.21549   0.00000  Uiso   1.00
H265   H     0.34955   0.45040   0.10382   0.00000  Uiso   1.00
H266   H     0.59217   0.49058   0.39175   0.00000  Uiso   1.00
H267   H     0.58413   0.37901   0.18920   0.00000  Uiso   1.00
H268   H     0.41582   0.62092   0.31076   0.00000  Uiso   1.00
H269   H     0.66328   0.57181   0.47235   0.00000  Uiso   1.00
H270   H     0.48549   0.45922   0.10429   0.00000  Uiso   1.00
H271   H     0.51583   0.54108   0.39467   0.00000  Uiso   1.00
H272   H     0.64737   0.56986   0.12424   0.00000  Uiso   1.00
H273   H     0.34992   0.43430   0.37749   0.00000  Uiso   1.00
H274   H     0.65119   0.41574   0.45661   0.00000  Uiso   1.00
H275   H     0.34746   0.58923   0.04519   0.00000  Uiso   1.00
H276   H     0.33437   0.53808   0.28451   0.00000  Uiso   1.00
N277   N     0.64839   0.51401   0.26212   0.00000  Uiso   1.00
N278   N     0.35161   0.48599   0.23788   0.00000  Uiso   1.00
O279   O     0.46148   0.57142   0.24686   0.00000  Uiso   1.00
O280   O     0.65607   0.55590   0.39364   0.00000  Uiso   1.00
O281   O     0.62914   0.65794   0.19746   0.00000  Uiso   1.00
O282   O     0.37098   0.34221   0.30273   0.00000  Uiso   1.00
O283   O     0.53852   0.42858   0.25314   0.00000  Uiso   1.00
O284   O     0.56163   0.58086   0.25502   0.00000  Uiso   1.00
O285   O     0.43837   0.41914   0.24497   0.00000  Uiso   1.00
O286   O     0.42185   0.49263   0.30854   0.00000  Uiso   1.00
O287   O     0.57815   0.50737   0.19145   0.00000  Uiso   1.00
O288   O     0.52199   0.50207   0.31671   0.00000  Uiso   1.00
O289   O     0.47801   0.49793   0.18329   0.00000  Uiso   1.00
O290   O     0.40635   0.51842   0.11082   0.00000  Uiso   1.00
C291   C     0.84851   0.59970   0.24964   0.00000  Uiso   1.00
C292   C     0.87210   0.50452   0.16686   0.00000  Uiso   1.00
C293   C     0.77087   0.48724   0.38067   0.00000  Uiso   1.00
C294   C     0.89604   0.51383   0.11952   0.00000  Uiso   1.00
C295   C     0.69689   0.44062   0.44289   0.00000  Uiso   1.00
C296   C     0.96914   0.56308   0.05831   0.00000  Uiso   1.00
C297   C     0.71416   0.45225   0.39819   0.00000  Uiso   1.00
C298   C     0.95138   0.55076   0.10288   0.00000  Uiso   1.00
C299   C     0.81017   0.50952   0.40792   0.00000  Uiso   1.00
C300   C     0.85779   0.49117   0.09170   0.00000  Uiso   1.00
C301   C     0.79899   0.49177   0.45104   0.00000  Uiso   1.00
C302   C     0.81815   0.40030   0.25037   0.00000  Uiso   1.00
C303   C     0.86866   0.51031   0.04909   0.00000  Uiso   1.00
C304   C     0.73873   0.46041   0.46944   0.00000  Uiso   1.00
C305   C     0.92831   0.54265   0.03122   0.00000  Uiso   1.00
C306   C     0.84435   0.50604   0.47688   0.00000  Uiso   1.00
C307   C     0.82333   0.49674   0.02333   0.00000  Uiso   1.00
C308   C     0.72419   0.47979   0.08900   0.00000  Uiso   1.00
C309   C     0.94257   0.52369   0.41120   0.00000  Uiso   1.00
C310   C     0.91589   0.34451   0.20705   0.00000  Uiso   1.00
C311   C     0.75079   0.65551   0.29300   0.00000  Uiso   1.00
C312   C     0.75775   0.47463   0.04201   0.00000  Uiso   1.00
C313   C     0.90983   0.52889   0.45841   0.00000  Uiso   1.00
C314   C     0.71893   0.45218   0.01455   0.00000  Uiso   1.00
C315   C     0.94827   0.55151   0.48623   0.00000  Uiso   1.00
C316   C     0.85770   0.65436   0.24141   0.00000  Uiso   1.00
C317   C     0.80895   0.34564   0.25861   0.00000  Uiso   1.00
C318   C     0.79458   0.49564   0.33316   0.00000  Uiso   1.00
Cu319  Cu    0.77404   0.49441   0.24516   0.00000  Uiso   1.00
Cu320  Cu    0.89263   0.50559   0.25483   0.00000  Uiso   1.00
H321   H     0.67040   0.43257   0.02889   0.00000  Uiso   1.00
H322   H     0.99896   0.46193   0.21549   0.00000  Uiso   1.00
H323   H     0.68288   0.45040   0.10382   0.00000  Uiso   1.00
H324   H     0.92550   0.49058   0.39175   0.00000  Uiso   1.00
H325   H     0.91746   0.37901   0.18920   0.00000  Uiso   1.00
H326   H     0.74915   0.62092   0.31076   0.00000  Uiso   1.00
H327   H     0.99661   0.57181   0.47235   0.00000  Uiso   1.00
H328   H     0.81882   0.45922   0.10429   0.00000  Uiso   1.00
H329   H     0.84916   0.54108   0.39467   0.00000  Uiso   1.00
H330   H     0.98070   0.56986   0.12424   0.00000  Uiso   1.00
H331   H     0.68326   0.43430   0.37749   0.00000  Uiso   1.00
H332   H     0.98452   0.41574   0.45661   0.00000  Uiso   1.00
H333   H     0.68080   0.58923   0.04519   0.00000  Uiso   1.00
H334   H     0.66771   0.53808   0.28451   0.00000  Uiso   1.00
N335   N     0.98173   0.51401   0.26212   0.00000  Uiso   1.00
N336   N     0.68494   0.48599   0.23788   0.00000  Uiso   1.00
O337   O     0.79482   0.57142   0.24686   0.00000  Uiso   1.00
O338   O     0.98940   0.55590   0.39364   0.00000  Uiso   1.00
O339   O     0.96247   0.65794   0.19746   0.00000  Uiso   1.00
O340   O     0.70431   0.34221   0.30273   0.00000  Uiso   1.00
O341   O     0.87185   0.42858   0.25314   0.00000  Uiso   1.00
O342   O     0.89496   0.58086   0.25502   0.00000  Uiso   1.00
O343   O     0.77171   0.41914   0.24497   0.00000  Uiso   1.00
O344   O     0.75518   0.49263   0.30854   0.00000  Uiso   1.00
O345   O     0.91149   0.50737   0.19145   0.00000  Uiso   1.00
O346   O     0.85532   0.50207   0.31671   0.00000  Uiso   1.00
O347   O     0.81134   0.49793   0.18329   0.00000  Uiso   1.00
O348   O     0.73968   0.51842   0.11082   0.00000  Uiso   1.00
C349   C     0.18184   0.93303   0.24964   0.00000  Uiso   1.00
C350   C     0.20544   0.83786   0.16686   0.00000  Uiso   1.00
C351   C     0.10420   0.82058   0.38067   0.00000  Uiso   1.00
C352   C     0.22938   0.84716   0.11952   0.00000  Uiso   1.00
C353   C     0.03022   0.77396   0.44289   0.00000  Uiso   1.00
C354   C     0.30248   0.89641   0.05831   0.00000  Uiso   1.00
C355   C     0.04749   0.78559   0.39819   0.00000  Uiso   1.00
C356   C     0.28471   0.88409   0.10288   0.00000  Uiso   1.00
C357   C     0.14351   0.84286   0.40792   0.00000  Uiso   1.00
C358   C     0.19112   0.82450   0.09170   0.00000  Uiso   1.00
C359   C     0.13233   0.82511   0.45104   0.00000  Uiso   1.00
C360   C     0.15148   0.73364   0.25037   0.00000  Uiso   1.00
C361   C     0.20200   0.84364   0.04909   0.00000  Uiso   1.00
C362   C     0.07207   0.79374   0.46944   0.00000  Uiso   1.00
C363   C     0.26165   0.87598   0.03122   0.00000  Uiso   1.00
C364   C     0.17769   0.83937   0.47688   0.00000  Uiso   1.00
C365   C     0.15666   0.83007   0.02333   0.00000  Uiso   1.00
C366   C     0.05753   0.81312   0.08900   0.00000  Uiso   1.00
C367   C     0.27591   0.85702   0.41120   0.00000  Uiso   1.00
C368   C     0.24922   0.67784   0.20705   0.00000  Uiso   1.00
C369   C     0.08412   0.98884   0.29300   0.00000  Uiso   1.00
C370   C     0.09109   0.80797   0.04201   0.00000  Uiso   1.00
C371   C     0.24316   0.86223   0.45841   0.00000  Uiso   1.00
C372   C     0.05227   0.78552   0.01455   0.00000  Uiso   1.00
C373   C     0.28160   0.88484   0.48623   0.00000  Uiso   1.00
C374   C     0.19104   0.98770   0.24141   0.00000  Uiso   1.00
C375   C     0.14229   0.67897   0.25861   0.00000  Uiso   1.00
C376   C     0.12792   0.82897   0.33316   0.00000  Uiso   1.00
Cu377  Cu    0.10737   0.82775   0.24516   0.00000  Uiso   1.00
Cu378  Cu    0.22596   0.83892   0.25483   0.00000  Uiso   1.00
H379   H     0.00373   0.76590   0.02889   0.00000  Uiso   1.00
H380   H     0.33230   0.79526   0.21549   0.00000  Uiso   1.00
H381   H     0.01621   0.78373   0.10382   0.00000  Uiso   1.00
H382   H     0.25883   0.82391   0.39175   0.00000  Uiso   1.00
H383   H     0.25079   0.71234   0.18920   0.00000  Uiso   1.00
H384   H     0.08248   0.95425   0.31076   0.00000  Uiso   1.00
H385   H     0.32995   0.90515   0.47235   0.00000  Uiso   1.00
H386   H     0.15215   0.79255   0.10429   0.00000  Uiso   1.00
H387   H     0.18250   0.87442   0.39467   0.00000  Uiso   1.00
H388   H     0.31403   0.90320   0.12424   0.00000  Uiso   1.00
H389   H     0.01659   0.76763   0.37749   0.00000  Uiso   1.00
H390   H     0.31786   0.74908   0.45661   0.00000  Uiso   1.00
H391   H     0.01413   0.92256   0.04519   0.00000  Uiso   1.00
H392   H     0.00104   0.87141   0.28451   0.00000  Uiso   1.00
N393   N     0.31506   0.84735   0.26212   0.00000  Uiso   1.00
N394   N     0.01827   0.81932   0.23788   0.00000  Uiso   1.00
O395   O     0.12815   0.90476   0.24686   0.00000  Uiso   1.00
O396   O     0.32273   0.88923   0.39364   0.00000  Uiso   1.00
O397   O     0.29580   0.99127   0.19746   0.00000  Uiso   1.00
O398   O     0.03765   0.67554   0.30273   0.00000  Uiso   1.00
O399   O     0.20518   0.76191   0.25314   0.00000  Uiso   1.00
O400   O     0.22829   0.91420   0.25502   0.00000  Uiso   1.00
O401   O     0.10504   0.75247   0.24497   0.00000  Uiso   1.00
O402   O     0.08851   0.82597   0.30854   0.00000  Uiso   1.00
O403   O     0.24482   0.84070   0.19145   0.00000  Uiso   1.00
O404   O     0.18866   0.83540   0.31671   0.00000  Uiso   1.00
O405   O     0.14468   0.83126   0.18329   0.00000  Uiso   1.00
O406   O     0.07302   0.85176   0.11082   0.00000  Uiso   1.00
C407   C     0.51518   0.93303   0.24964   0.00000  Uiso   1.00
C408   C     0.53877   0.83786   0.16686   0.00000  Uiso   1.00
C409   C     0.43753   0.82058   0.38067   0.00000  Uiso   1.00
C410   C     0.56271   0.84716   0.11952   0.00000  Uiso   1.00
C411   C     0.36356   0.77396   0.44289   0.00000  Uiso   1.00
C412   C     0.63581   0.89641   0.05831   0.00000  Uiso   1.00
C413   C     0.38083   0.78559   0.39819   0.00000  Uiso   1.00
C414   C     0.61804   0.88409   0.10288   0.00000  Uiso   1.00
C415   C     0.47684   0.84286   0.40792   0.00000  Uiso   1.00
C416   C     0.52445   0.82450   0.09170   0.00000  Uiso   1.00
C417   C     0.46566   0.82511   0.45104   0.00000  Uiso   1.00
C418   C     0.48482   0.73364   0.25037   0.00000  Uiso   1.00
C419   C     0.53533   0.84364   0.04909   0.00000  Uiso   1.00
C420   C     0.40540   0.79374   0.46944   0.00000  Uiso   1.00
C421   C     0.59498   0.87598   0.03122   0.00000  Uiso   1.00
C422   C     0.51102   0.83937   0.47688   0.00000  Uiso   1.00
C423   C     0.49000   0.83007   0.02333   0.00000  Uiso   1.00
C424   C     0.39086   0.81312   0.08900   0.00000  Uiso   1.00
C425   C     0.60924   0.85702   0.41120   0.00000  Uiso   1.00
C426   C     0.58255   0.67784   0.20705   0.00000  Uiso   1.00
C427   C     0.41746   0.98884   0.29300   0.00000  Uiso   1.00
C428   C     0.42442   0.80797   0.04201   0.00000  Uiso   1.00
C429   C     0.57649   0.86223   0.45841   0.00000  Uiso   1.00
C430   C     0.38560   0.78552   0.01455   0.00000  Uiso   1.00
C431   C     0.61493   0.88484   0.48623   0.00000  Uiso   1.00
C432   C     0.52437   0.98770   0.24141   0.00000  Uiso   1.00
C433   C     0.47562   0.67897   0.25861   0.00000  Uiso   1.00
C434   C     0.46125   0.82897   0.33316   0.00000  Uiso   1.00
Cu435  Cu    0.44071   0.82775   0.24516   0.00000  Uiso   1.00
Cu436  Cu    0.55929   0.83892   0.25483   0.00000  Uiso   1.00
H437   H     0.33706   0.76590   0.02889   0.00000  Uiso   1.00
H438   H     0.66563   0.79526   0.21549   0.00000  Uiso   1.00
H439   H     0.34955   0.78373   0.10382   0.00000  Uiso   1.00
H440   H     0.59217   0.82391   0.39175   0.00000  Uiso   1.00
H441   H     0.58413   0.71234   0.18920   0.00000  Uiso   1.00
H442   H     0.41582   0.95425   0.31076   0.00000  Uiso   1.00
H443   H     0.66328   0.90515   0.47235   0.00000  Uiso   1.00
H444   H     0.48549   0.79255   0.10429   0.00000  Uiso   1.00
H445   H     0.51583   0.87442   0.39467   0.00000  Uiso   1.00
H446   H     0.64737   0.90320   0.12424   0.00000  Uiso   1.00
H447   H     0.34992   0.76763   0.37749   0.00000  Uiso   1.00
H448   H     0.65119   0.74908   0.45661   0.00000  Uiso   1.00
H449   H     0.34746   0.92256   0.04519   0.00000  Uiso   1.00
H450   H     0.33437   0.87141   0.28451   0.00000  Uiso   1.00
N451   N     0.64839   0.84735   0.26212   0.00000  Uiso   1.00
N452   N     0.35161   0.81932   0.23788   0.00000  Uiso   1.00
O453   O     0.46148   0.90476   0.24686   0.00000  Uiso   1.00
O454   O     0.65607   0.88923   0.39364   0.00000  Uiso   1.00
O455   O     0.62914   0.99127   0.19746   0.00000  Uiso   1.00
O456   O     0.37098   0.67554   0.30273   0.00000  Uiso   1.00
O457   O     0.53852   0.76191   0.25314   0.00000  Uiso   1.00
O458   O     0.56163   0.91420   0.25502   0.00000  Uiso   1.00
O459   O     0.43837   0.75247   0.24497   0.00000  Uiso   1.00
O460   O     0.42185   0.82597   0.30854   0.00000  Uiso   1.00
O461   O     0.57815   0.84070   0.19145   0.00000  Uiso   1.00
O462   O     0.52199   0.83540   0.31671   0.00000  Uiso   1.00
O463   O     0.47801   0.83126   0.18329   0.00000  Uiso   1.00
O464   O     0.40635   0.85176   0.11082   0.00000  Uiso   1.00
C465   C     0.84851   0.93303   0.24964   0.00000  Uiso   1.00
C466   C     0.87210   0.83786   0.16686   0.00000  Uiso   1.00
C467   C     0.77087   0.82058   0.38067   0.00000  Uiso   1.00
C468   C     0.89604   0.84716   0.11952   0.00000  Uiso   1.00
C469   C     0.69689   0.77396   0.44289   0.00000  Uiso   1.00
C470   C     0.96914   0.89641   0.05831   0.00000  Uiso   1.00
C471   C     0.71416   0.78559   0.39819   0.00000  Uiso   1.00
C472   C     0.95138   0.88409   0.10288   0.00000  Uiso   1.00
C473   C     0.81017   0.84286   0.40792   0.00000  Uiso   1.00
C474   C     0.85779   0.82450   0.09170   0.00000  Uiso   1.00
C475   C     0.79899   0.82511   0.45104   0.00000  Uiso   1.00
C476   C     0.81815   0.73364   0.25037   0.00000  Uiso   1.00
C477   C     0.86866   0.84364   0.04909   0.00000  Uiso   1.00
C478   C     0.73873   0.79374   0.46944   0.00000  Uiso   1.00
C479   C     0.92831   0.87598   0.03122   0.00000  Uiso   1.00
C480   C     0.84435   0.83937   0.47688   0.00000  Uiso   1.00
C481   C     0.82333   0.83007   0.02333   0.00000  Uiso   1.00
C482   C     0.72419   0.81312   0.08900   0.00000  Uiso   1.00
C483   C     0.94257   0.85702   0.41120   0.00000  Uiso   1.00
C484   C     0.91589   0.67784   0.20705   0.00000  Uiso   1.00
C485   C     0.75079   0.98884   0.29300   0.00000  Uiso   1.00
C486   C     0.75775   0.80797   0.04201   0.00000  Uiso   1.00
C487   C     0.90983   0.86223   0.45841   0.00000  Uiso   1.00
C488   C     0.71893   0.78552   0.01455   0.00000  Uiso   1.00
C489   C     0.94827   0.88484   0.48623   0.00000  Uiso   1.00
C490   C     0.85770   0.98770   0.24141   0.00000  Uiso   1.00
C491   C     0.80895   0.67897   0.25861   0.00000  Uiso   1.00
C492   C     0.79458   0.82897   0.33316   0.00000  Uiso   1.00
Cu493  Cu    0.77404   0.82775   0.24516   0.00000  Uiso   1.00
Cu494  Cu    0.89263   0.83892   0.25483   0.00000  Uiso   1.00
H495   H     0.67040   0.76590   0.02889   0.00000  Uiso   1.00
H496   H     0.99896   0.79526   0.21549   0.00000  Uiso   1.00
H497   H     0.68288   0.78373   0.10382   0.00000  Uiso   1.00
H498   H     0.92550   0.82391   0.39175   0.00000  Uiso   1.00
H499   H     0.91746   0.71234   0.18920   0.00000  Uiso   1.00
H500   H     0.74915   0.95425   0.31076   0.00000  Uiso   1.00
H501   H     0.99661   0.90515   0.47235   0.00000  Uiso   1.00
H502   H     0.81882   0.79255   0.10429   0.00000  Uiso   1.00
H503   H     0.84916   0.87442   0.39467   0.00000  Uiso   1.00
H504   H     0.98070   0.90320   0.12424   0.00000  Uiso   1.00
H505   H     0.68326   0.76763   0.37749   0.00000  Uiso   1.00
H506   H     0.98452   0.74908   0.45661   0.00000  Uiso   1.00
H507   H     0.68080   0.92256   0.04519   0.00000  Uiso   1.00
H508   H     0.66771   0.87141   0.28451   0.00000  Uiso   1.00
N509   N     0.98173   0.84735   0.26212   0.00000  Uiso   1.00
N510   N     0.68494   0.81932   0.23788   0.00000  Uiso   1.00
O511   O     0.79482   0.90476   0.24686   0.00000  Uiso   1.00
O512   O     0.98940   0.88923   0.39364   0.00000  Uiso   1.00
O513   O     0.96247   0.99127   0.19746   0.00000  Uiso   1.00
O514   O     0.70431   0.67554   0.30273   0.00000  Uiso   1.00
O515   O     0.87185   0.76191   0.25314   0.00000  Uiso   1.00
O516   O     0.89496   0.91420   0.25502   0.00000  Uiso   1.00
O517   O     0.77171   0.75247   0.24497   0.00000  Uiso   1.00
O518   O     0.75518   0.82597   0.30854   0.00000  Uiso   1.00
O519   O     0.91149   0.84070   0.19145   0.00000  Uiso   1.00
O520   O     0.85532   0.83540   0.31671   0.00000  Uiso   1.00
O521   O     0.81134   0.83126   0.18329   0.00000  Uiso   1.00
O522   O     0.73968   0.85176   0.11082   0.00000  Uiso   1.00
C523   C     0.18184   0.26636   0.74964   0.00000  Uiso   1.00
C524   C     0.20544   0.17119   0.66686   0.00000  Uiso   1.00
C525   C     0.10420   0.15391   0.88067   0.00000  Uiso   1.00
C526   C     0.22938   0.18050   0.61952   0.00000  Uiso   1.00
C527   C     0.03022   0.10729   0.94289   0.00000  Uiso   1.00
C528   C     0.30248   0.22975   0.55831   0.00000  Uiso   1.00
C529   C     0.04749   0.11892   0.89819   0.00000  Uiso   1.00
C530   C     0.28471   0.21742   0.60288   0.00000  Uiso   1.00
C531   C     0.14351   0.17619   0.90792   0.00000  Uiso   1.00
C532   C     0.19112   0.15784   0.59170   0.00000  Uiso   1.00
C533   C     0.13233   0.15844   0.95104   0.00000  Uiso   1.00
C534   C     0.15148   0.06697   0.75037   0.00000  Uiso   1.00
C535   C     0.20200   0.17698   0.54909   0.00000  Uiso   1.00
C536   C     0.07207   0.12707   0.96944   0.00000  Uiso   1.00
C537   C     0.26165   0.20931   0.53122   0.00000  Uiso   1.00
C538   C     0.17769   0.17270   0.97688   0.00000  Uiso   1.00
C539   C     0.15666   0.16340   0.52333   0.00000  Uiso   1.00
C540   C     0.05753   0.14646   0.58900   0.00000  Uiso   1.00
C541   C     0.27591   0.19035   0.91120   0.00000  Uiso   1.00
C542   C     0.24922   0.01117   0.70705   0.00000  Uiso   1.00
C543   C     0.08412   0.32218   0.79300   0.00000  Uiso   1.00
C544   C     0.09109   0.14130   0.54201   0.00000  Uiso   1.00
C545   C     0.24316   0.19556   0.95841   0.00000  Uiso   1.00
C546   C     0.05227   0.11885   0.51455   0.00000  Uiso   1.00
C547   C     0.28160   0.21817   0.98623   0.00000  Uiso   1.00
C548   C     0.19104   0.32103   0.74141   0.00000  Uiso   1.00
C549   C     0.14229   0.01230   0.75861   0.00000  Uiso   1.00
C550   C     0.12792   0.16231   0.83316   0.00000  Uiso   1.00
Cu551  Cu    0.10737   0.16108   0.74516   0.00000  Uiso   1.00
Cu552  Cu    0.22596   0.17225   0.75483   0.00000  Uiso   1.00
H553   H     0.00373   0.09923   0.52889   0.00000  Uiso   1.00
H554   H     0.33230   0.12860   0.71549   0.00000  Uiso   1.00
H555   H     0.01621   0.11707   0.60382   0.00000  Uiso   1.00
H556   H     0.25883   0.15725   0.89175   0.00000  Uiso   1.00
H557   H     0.25079   0.04567   0.68920   0.00000  Uiso   1.00
H558   H     0.08248   0.28759   0.81076   0.00000  Uiso   1.00
H559   H     0.32995   0.23848   0.97235   0.00000  Uiso   1.00
H560   H     0.15215   0.12588   0.60429   0.00000  Uiso   1.00
H561   H     0.18250   0.20775   0.89467   0.00000  Uiso   1.00
H562   H     0.31403   0.23653   0.62424   0.00000  Uiso   1.00
H563   H     0.01659   0.10097   0.87749   0.00000  Uiso   1.00
H564   H     0.31786   0.08241   0.95661   0.00000  Uiso   1.00
H565   H     0.01413   0.25590   0.54519   0.00000  Uiso   1.00
H566   H     0.00104   0.20474   0.78451   0.00000  Uiso   1.00
N567   N     0.31506   0.18068   0.76212   0.00000  Uiso   1.00
N568   N     0.01827   0.15265   0.73788   0.00000  Uiso   1.00
O569   O     0.12815   0.23809   0.74686   0.00000  Uiso   1.00
O570   O     0.32273   0.22256   0.89364   0.00000  Uiso   1.00
O571   O     0.29580   0.32460   0.69746   0.00000  Uiso   1.00
O572   O     0.03765   0.00887   0.80273   0.00000  Uiso   1.00
O573   O     0.20518   0.09524   0.75314   0.00000  Uiso   1.00
O574   O     0.22829   0.24753   0.75502   0.00000  Uiso   1.00
O575   O     0.10504   0.08580   0.74497   0.00000  Uiso   1.00
O576   O     0.08851   0.15930   0.80854   0.00000  Uiso   1.00
O577   O     0.24482   0.17403   0.69145   0.00000  Uiso   1.00
O578   O     0.18866   0.16874   0.81671   0.00000  Uiso   1.00
O579   O     0.14468   0.16460   0.68329   0.00000  Uiso   1.00
O580   O     0.07302   0.18509   0.61082   0.00000  Uiso   1.00
C581   C     0.51518   0.26636   0.74964   0.00000  Uiso   1.00
C582   C     0.53877   0.17119   0.66686   0.00000  Uiso   1.00
C583   C     0.43753   0.15391   0.88067   0.00000  Uiso   1.00
C584   C     0.56271   0.18050   0.61952   0.00000  Uiso   1.00
C585   C     0.36356   0.10729   0.94289   0.00000  Uiso   1.00
C586   C     0.63581   0.22975   0.55831   0.00000  Uiso   1.00
C587   C     0.38083   0.11892   0.89819   0.00000  Uiso   1.00
C588   C     0.61804   0.21742   0.60288   0.00000  Uiso   1.00
C589   C     0.47684   0.17619   0.90792   0.00000  Uiso   1.00
C590   C     0.52445   0.15784   0.59170   0.00000  Uiso   1.00
C591   C     0.46566   0.15844   0.95104   0.00000  Uiso   1.00
C592   C     0.48482   0.06697   0.75037   0.00000  Uiso   1.00
C593   C     0.53533   0.17698   0.54909   0.00000  Uiso   1.00
C594   C     0.40540   0.12707   0.96944   0.00000  Uiso   1.00
C595   C     0.59498   0.20931   0.53122   0.00000  Uiso   1.00
C596   C     0.51102   0.17270   0.97688   0.00000  Uiso   1.00
C597   C     0.49000   0.16340   0.52333   0.00000  Uiso   1.00
C598   C     0.39086   0.14646   0.58900   0.00000  Uiso   1.00
C599   C     0.60924   0.19035   0.91120   0.00000  Uiso   1.00
C600   C     0.58255   0.01117   0.70705   0.00000  Uiso   1.00
C601   C     0.41746   0.32218   0.79300   0.00000  Uiso   1.00
C602   C     0.42442   0.14130   0.54201   0.00000  Uiso   1.00
C603   C     0.57649   0.19556   0.95841   0.00000  Uiso   1.00
C604   C     0.38560   0.11885   0.51455   0.00000  Uiso   1.00
C605   C     0.61493   0.21817   0.98623   0.00000  Uiso   1.00
C606   C     0.52437   0.32103   0.74141   0.00000  Uiso   1.00
C607   C     0.47562   0.01230   0.75861   0.00000  Uiso   1.00
C608   C     0.46125   0.16231   0.83316   0.00000  Uiso   1.00
Cu609  Cu    0.44071   0.16108   0.74516   0.00000  Uiso   1.00
Cu610  Cu    0.55929   0.17225   0.75483   0.00000  Uiso   1.00
H611   H     0.33706   0.09923   0.52889   0.00000  Uiso   1.00
H612   H     0.66563   0.12860   0.71549   0.00000  Uiso   1.00
H613   H     0.34955   0.11707   0.60382   0.00000  Uiso   1.00
H614   H     0.59217   0.15725   0.89175   0.00000  Uiso   1.00
H615   H     0.58413   0.04567   0.68920   0.00000  Uiso   1.00
H616   H     0.41582   0.28759   0.81076   0.00000  Uiso   1.00
H617   H     0.66328   0.23848   0.97235   0.00000  Uiso   1.00
H618   H     0.48549   0.12588   0.60429   0.00000  Uiso   1.00
H619   H     0.51583   0.20775   0.89467   0.00000  Uiso   1.00
H620   H     0.64737   0.23653   0.62424   0.00000  Uiso   1.00
H621   H     0.34992   0.10097   0.87749   0.00000  Uiso   1.00
H622   H     0.65119   0.08241   0.95661   0.00000  Uiso   1.00
H623   H     0.34746   0.25590   0.54519   0.00000  Uiso   1.00
H624   H     0.33437   0.20474   0.78451   0.00000  Uiso   1.00
N625   N     0.64839   0.18068   0.76212   0.00000  Uiso   1.00
N626   N     0.35161   0.15265   0.73788   0.00000  Uiso   1.00
O627   O     0.46148   0.23809   0.74686   0.00000  Uiso   1.00
O628   O     0.65607   0.22256   0.89364   0.00000  Uiso   1.00
O629   O     0.62914   0.32460   0.69746   0.00000  Uiso   1.00
O630   O     0.37098   0.00887   0.80273   0.00000  Uiso   1.00
O631   O     0.53852   0.09524   0.75314   0.00000  Uiso   1.00
O632   O     0.56163   0.24753   0.75502   0.00000  Uiso   1.00
O633   O     0.43837   0.08580   0.74497   0.00000  Uiso   1.00
O634   O     0.42185   0.15930   0.80854   0.00000  Uiso   1.00
O635   O     0.57815   0.17403   0.69145   0.00000  Uiso   1.00
O636   O     0.52199   0.16874   0.81671   0.00000  Uiso   1.00
O637   O     0.47801   0.16460   0.68329   0.00000  Uiso   1.00
O638   O     0.40635   0.18509   0.61082   0.00000  Uiso   1.00
C639   C     0.84851   0.26636   0.74964   0.00000  Uiso   1.00
C640   C     0.87210   0.17119   0.66686   0.00000  Uiso   1.00
C641   C     0.77087   0.15391   0.88067   0.00000  Uiso   1.00
C642   C     0.89604   0.18050   0.61952   0.00000  Uiso   1.00
C643   C     0.69689   0.10729   0.94289   0.00000  Uiso   1.00
C644   C     0.96914   0.22975   0.55831   0.00000  Uiso   1.00
C645   C     0.71416   0.11892   0.89819   0.00000  Uiso   1.00
C646   C     0.95138   0.21742   0.60288   0.00000  Uiso   1.00
C647   C     0.81017   0.17619   0.90792   0.00000  Uiso   1.00
C648   C     0.85779   0.15784   0.59170   0.00000  Uiso   1.00
C649   C     0.79899   0.15844   0.95104   0.00000  Uiso   1.00
C650   C     0.81815   0.06697   0.75037   0.00000  Uiso   1.00
C651   C     0.86866   0.17698   0.54909   0.00000  Uiso   1.00
C652   C     0.73873   0.12707   0.96944   0.00000  Uiso   1.00
C653   C     0.92831   0.20931   0.53122   0.00000  Uiso   1.00
C654   C     0.84435   0.17270   0.97688   0.00000  Uiso   1.00
C655   C     0.82333   0.16340   0.52333   0.00000  Uiso   1.00
C656   C     0.72419   0.14646   0.58900   0.00000  Uiso   1.00
C657   C     0.94257   0.19035   0.91120   0.00000  Uiso   1.00
C658   C     0.91589   0.01117   0.70705   0.00000  Uiso   1.00
C659   C     0.75079   0.32218   0.79300   0.00000  Uiso   1.00
C660   C     0.75775   0.14130   0.54201   0.00000  Uiso   1.00
C661   C     0.90983   0.19556   0.95841   0.00000  Uiso   1.00
C662   C     0.71893   0.11885   0.51455   0.00000  Uiso   1.00
C663   C     0.94827   0.21817   0.98623   0.00000  Uiso   1.00
C664   C     0.85770   0.32103   0.74141   0.00000  Uiso   1.00
C665   C     0.80895   0.01230   0.75861   0.00000  Uiso   1.00
C666   C     0.79458   0.16231   0.83316   0.00000  Uiso   1.00
Cu667  Cu    0.77404   0.16108   0.74516   0.00000  Uiso   1.00
Cu668  Cu    0.89263   0.17225   0.75483   0.00000  Uiso   1.00
H669   H     0.67040   0.09923   0.52889   0.00000  Uiso   1.00
H670   H     0.99896   0.12860   0.71549   0.00000  Uiso   1.00
H671   H     0.68288   0.11707   0.60382   0.00000  Uiso   1.00
H672   H     0.92550   0.15725   0.89175   0.00000  Uiso   1.00
H673   H     0.91746   0.04567   0.68920   0.00000  Uiso   1.00
H674   H     0.74915   0.28759   0.81076   0.00000  Uiso   1.00
H675   H     0.99661   0.23848   0.97235   0.00000  Uiso   1.00
H676   H     0.81882   0.12588   0.60429   0.00000  Uiso   1.00
H677   H     0.84916   0.20775   0.89467   0.00000  Uiso   1.00
H678   H     0.98070   0.23653   0.62424   0.00000  Uiso   1.00
H679   H     0.68326   0.10097   0.87749   0.00000  Uiso   1.00
H680   H     0.98452   0.08241   0.95661   0.00000  Uiso   1.00
H681   H     0.68080   0.25590   0.54519   0.00000  Uiso   1.00
H682   H     0.66771   0.20474   0.78451   0.00000  Uiso   1.00
N683   N     0.98173   0.18068   0.76212   0.00000  Uiso   1.00
N684   N     0.68494   0.15265   0.73788   0.00000  Uiso   1.00
O685   O     0.79482   0.23809   0.74686   0.00000  Uiso   1.00
O686   O     0.98940   0.22256   0.89364   0.00000  Uiso   1.00
O687   O     0.96247   0.32460   0.69746   0.00000  Uiso   1.00
O688   O     0.70431   0.00887   0.80273   0.00000  Uiso   1.00
O689   O     0.87185   0.09524   0.75314   0.00000  Uiso   1.00
O690   O     0.89496   0.24753   0.75502   0.00000  Uiso   1.00
O691   O     0.77171   0.08580   0.74497   0.00000  Uiso   1.00
O692   O     0.75518   0.15930   0.80854   0.00000  Uiso   1.00
O693   O     0.91149   0.17403   0.69145   0.00000  Uiso   1.00
O694   O     0.85532   0.16874   0.81671   0.00000  Uiso   1.00
O695   O     0.81134   0.16460   0.68329   0.00000  Uiso   1.00
O696   O     0.73968   0.18509   0.61082   0.00000  Uiso   1.00
C697   C     0.18184   0.59970   0.74964   0.00000  Uiso   1.00
C698   C     0.20544   0.50452   0.66686   0.00000  Uiso   1.00
C699   C     0.10420   0.48724   0.88067   0.00000  Uiso   1.00
C700   C     0.22938   0.51383   0.61952   0.00000  Uiso   1.00
C701   C     0.03022   0.44062   0.94289   0.00000  Uiso   1.00
C702   C     0.30248   0.56308   0.55831   0.00000  Uiso   1.00
C703   C     0.04749   0.45225   0.89819   0.00000  Uiso   1.00
C704   C     0.28471   0.55076   0.60288   0.00000  Uiso   1.00
C705   C     0.14351   0.50952   0.90792   0.00000  Uiso   1.00
C706   C     0.19112   0.49117   0.59170   0.00000  Uiso   1.00
C707   C     0.13233   0.49177   0.95104   0.00000  Uiso   1.00
C708   C     0.15148   0.40030   0.75037   0.00000  Uiso   1.00
C709   C     0.20200   0.51031   0.54909   0.00000  Uiso   1.00
C710   C     0.07207   0.46041   0.96944   0.00000  Uiso   1.00
C711   C     0.26165   0.54265   0.53122   0.00000  Uiso   1.00
C712   C     0.17769   0.50604   0.97688   0.00000  Uiso   1.00
C713   C     0.15666   0.49674   0.52333   0.00000  Uiso   1.00
C714   C     0.05753   0.47979   0.58900   0.00000  Uiso   1.00
C715   C     0.27591   0.52369   0.91120   0.00000  Uiso   1.00
C716   C     0.24922   0.34451   0.70705   0.00000  Uiso   1.00
C717   C     0.08412   0.65551   0.79300   0.00000  Uiso   1.00
C718   C     0.09109   0.47463   0.54201   0.00000  Uiso   1.00
C719   C     0.24316   0.52889   0.95841   0.00000  Uiso   1.00
C720   C     0.05227   0.45218   0.51455   0.00000  Uiso   1.00
C721   C     0.28160   0.55151   0.98623   0.00000  Uiso   1.00
C722   C     0.19104   0.65436   0.74141   0.00000  Uiso   1.00
C723   C     0.14229   0.34564   0.75861   0.00000  Uiso   1.00
C724   C     0.12792   0.49564   0.83316   0.00000  Uiso   1.00
Cu725  Cu    0.10737   0.49441   0.74516   0.00000  Uiso   1.00
Cu726  Cu    0.22596   0.50559   0.75483   0.00000  Uiso   1.00
H727   H     0.00373   0.43257   0.52889   0.00000  Uiso   1.00
H728   H     0.33230   0.46193   0.71549   0.00000  Uiso   1.00
H729   H     0.01621   0.45040   0.60382   0.00000  Uiso   1.00
H730   H     0.25883   0.49058   0.89175   0.00000  Uiso   1.00
H731   H     0.25079   0.37901   0.68920   0.00000  Uiso   1.00
H732   H     0.08248   0.62092   0.81076   0.00000  Uiso   1.00
H733   H     0.32995   0.57181   0.97235   0.00000  Uiso   1.00
H734   H     0.15215   0.45922   0.60429   0.00000  Uiso   1.00
H735   H     0.18250   0.54108   0.89467   0.00000  Uiso   1.00
H736   H     0.31403   0.56986   0.62424   0.00000  Uiso   1.00
H737   H     0.01659   0.43430   0.87749   0.00000  Uiso   1.00
H738   H     0.31786   0.41574   0.95661   0.00000  Uiso   1.00
H739   H     0.01413   0.58923   0.54519   0.00000  Uiso   1.00
H740   H     0.00104   0.53808   0.78451   0.00000  Uiso   1.00
N741   N     0.31506   0.51401   0.76212   0.00000  Uiso   1.00
N742   N     0.01827   0.48599   0.73788   0.00000  Uiso   1.00
O743   O     0.12815   0.57142   0.74686   0.00000  Uiso   1.00
O744   O     0.32273   0.55590   0.89364   0.00000  Uiso   1.00
O745   O     0.29580   0.65794   0.69746   0.00000  Uiso   1.00
O746   O     0.03765   0.34221   0.80273   0.00000  Uiso   1.00
O747   O     0.20518   0.42858   0.75314   0.00000  Uiso   1.00
O748   O     0.22829   0.58086   0.75502   0.00000  Uiso   1.00
O749   O     0.10504   0.41914   0.74497   0.00000  Uiso   1.00
O750   O     0.08851   0.49263   0.80854   0.00000  Uiso   1.00
O751   O     0.24482   0.50737   0.69145   0.00000  Uiso   1.00
O752   O     0.18866   0.50207   0.81671   0.00000  Uiso   1.00
O753   O     0.14468   0.49793   0.68329   0.00000  Uiso   1.00
O754   O     0.07302   0.51842   0.61082   0.00000  Uiso   1.00
C755   C     0.51518   0.59970   0.74964   0.00000  Uiso   1.00
C756   C     0.53877   0.50452   0.66686   0.00000  Uiso   1.00
C757   C     0.43753   0.48724   0.88067   0.00000  Uiso   1.00
C758   C     0.56271   0.51383   0.61952   0.00000  Uiso   1.00
C759   C     0.36356   0.44062   0.94289   0.00000  Uiso   1.00
C760   C     0.63581   0.56308   0.55831   0.00000  Uiso   1.00
C761   C     0.38083   0.45225   0.89819   0.00000  Uiso   1.00
C762   C     0.61804   0.55076   0.60288   0.00000  Uiso   1.00
C763   C     0.47684   0.50952   0.90792   0.00000  Uiso   1.00
C764   C     0.52445   0.49117   0.59170   0.00000  Uiso   1.00
C765   C     0.46566   0.49177   0.95104   0.00000  Uiso   1.00
C766   C     0.48482   0.40030   0.75037   0.00000  Uiso   1.00
C767   C     0.53533   0.51031   0.54909   0.00000  Uiso   1.00
C768   C     0.40540   0.46041   0.96944   0.00000  Uiso   1.00
C769   C     0.59498   0.54265   0.53122   0.00000  Uiso   1.00
C770   C     0.51102   0.50604   0.97688   0.00000  Uiso   1.00
C771   C     0.49000   0.49674   0.52333   0.00000  Uiso   1.00
C772   C     0.39086   0.47979   0.58900   0.00000  Uiso   1.00
C773   C     0.60924   0.52369   0.91120   0.00000  Uiso   1.00
C774   C     0.58255   0.34451   0.70705   0.00000  Uiso   1.00
C775   C     0.41746   0.65551   0.79300   0.00000  Uiso   1.00
C776   C     0.42442   0.47463   0.54201   0.00000  Uiso   1.00
C777   C     0.57649   0.52889   0.95841   0.00000  Uiso   1.00
C778   C     0.38560   0.45218   0.51455   0.00000  Uiso   1.00
C779   C     0.61493   0.55151   0.98623   0.00000  Uiso   1.00
C780   C     0.52437   0.65436   0.74141   0.00000  Uiso   1.00
C781   C     0.47562   0.34564   0.75861   0.00000  Uiso   1.00
C782   C     0.46125   0.49564   0.83316   0.00000  Uiso   1.00
Cu783  Cu    0.44071   0.49441   0.74516   0.00000  Uiso   1.00
Cu784  Cu    0.55929   0.50559   0.75483   0.00000  Uiso   1.00
H785   H     0.33706   0.43257   0.52889   0.00000  Uiso   1.00
H786   H     0.66563   0.46193   0.71549   0.00000  Uiso   1.00
H787   H     0.34955   0.45040   0.60382   0.00000  Uiso   1.00
H788   H     0.59217   0.49058   0.89175   0.00000  Uiso   1.00
H789   H     0.58413   0.37901   0.68920   0.00000  Uiso   1.00
H790   H     0.41582   0.62092   0.81076   0.00000  Uiso   1.00
H791   H     0.66328   0.57181   0.97235   0.00000  Uiso   1.00
H792   H     0.48549   0.45922   0.60429   0.00000  Uiso   1.00
H793   H     0.51583   0.54108   0.89467   0.00000  Uiso   1.00
H794   H     0.64737   0.56986   0.62424   0.00000  Uiso   1.00
H795   H     0.34992   0.43430   0.87749   0.00000  Uiso   1.00
H796   H     0.65119   0.41574   0.95661   0.00000  Uiso   1.00
H797   H     0.34746   0.58923   0.54519   0.00000  Uiso   1.00
H798   H     0.33437   0.53808   0.78451   0.00000  Uiso   1.00
N799   N     0.64839   0.51401   0.76212   0.00000  Uiso   1.00
N800   N     0.35161   0.48599   0.73788   0.00000  Uiso   1.00
O801   O     0.46148   0.57142   0.74686   0.00000  Uiso   1.00
O802   O     0.65607   0.55590   0.89364   0.00000  Uiso   1.00
O803   O     0.62914   0.65794   0.69746   0.00000  Uiso   1.00
O804   O     0.37098   0.34221   0.80273   0.00000  Uiso   1.00
O805   O     0.53852   0.42858   0.75314   0.00000  Uiso   1.00
O806   O     0.56163   0.58086   0.75502   0.00000  Uiso   1.00
O807   O     0.43837   0.41914   0.74497   0.00000  Uiso   1.00
O808   O     0.42185   0.49263   0.80854   0.00000  Uiso   1.00
O809   O     0.57815   0.50737   0.69145   0.00000  Uiso   1.00
O810   O     0.52199   0.50207   0.81671   0.00000  Uiso   1.00
O811   O     0.47801   0.49793   0.68329   0.00000  Uiso   1.00
O812   O     0.40635   0.51842   0.61082   0.00000  Uiso   1.00
C813   C     0.84851   0.59970   0.74964   0.00000  Uiso   1.00
C814   C     0.87210   0.50452   0.66686   0.00000  Uiso   1.00
C815   C     0.77087   0.48724   0.88067   0.00000  Uiso   1.00
C816   C     0.89604   0.51383   0.61952   0.00000  Uiso   1.00
C817   C     0.69689   0.44062   0.94289   0.00000  Uiso   1.00
C818   C     0.96914   0.56308   0.55831   0.00000  Uiso   1.00
C819   C     0.71416   0.45225   0.89819   0.00000  Uiso   1.00
C820   C     0.95138   0.55076   0.60288   0.00000  Uiso   1.00
C821   C     0.81017   0.50952   0.90792   0.00000  Uiso   1.00
C822   C     0.85779   0.49117   0.59170   0.00000  Uiso   1.00
C823   C     0.79899   0.49177   0.95104   0.00000  Uiso   1.00
C824   C     0.81815   0.40030   0.75037   0.00000  Uiso   1.00
C825   C     0.86866   0.51031   0.54909   0.00000  Uiso   1.00
C826   C     0.73873   0.46041   0.96944   0.00000  Uiso   1.00
C827   C     0.92831   0.54265   0.53122   0.00000  Uiso   1.00
C828   C     0.84435   0.50604   0.97688   0.00000  Uiso   1.00
C829   C     0.82333   0.49674   0.52333   0.00000  Uiso   1.00
C830   C     0.72419   0.47979   0.58900   0.00000  Uiso   1.00
C831   C     0.94257   0.52369   0.91120   0.00000  Uiso   1.00
C832   C     0.91589   0.34451   0.70705   0.00000  Uiso   1.00
C833   C     0.75079   0.65551   0.79300   0.00000  Uiso   1.00
C834   C     0.75775   0.47463   0.54201   0.00000  Uiso   1.00
C835   C     0.90983   0.52889   0.95841   0.00000  Uiso   1.00
C836   C     0.71893   0.45218   0.51455   0.00000  Uiso   1.00
C837   C     0.94827   0.55151   0.98623   0.00000  Uiso   1.00
C838   C     0.85770   0.65436   0.74141   0.00000  Uiso   1.00
C839   C     0.80895   0.34564   0.75861   0.00000  Uiso   1.00
C840   C     0.79458   0.49564   0.83316   0.00000  Uiso   1.00
Cu841  Cu    0.77404   0.49441   0.74516   0.00000  Uiso   1.00
Cu842  Cu    0.89263   0.50559   0.75483   0.00000  Uiso   1.00
H843   H     0.67040   0.43257   0.52889   0.00000  Uiso   1.00
H844   H     0.99896   0.46193   0.71549   0.00000  Uiso   1.00
H845   H     0.68288   0.45040   0.60382   0.00000  Uiso   1.00
H846   H     0.92550   0.49058   0.89175   0.00000  Uiso   1.00
H847   H     0.91746   0.37901   0.68920   0.00000  Uiso   1.00
H848   H     0.74915   0.62092   0.81076   0.00000  Uiso   1.00
H849   H     0.99661   0.57181   0.97235   0.00000  Uiso   1.00
H850   H     0.81882   0.45922   0.60429   0.00000  Uiso   1.00
H851   H     0.84916   0.54108   0.89467   0.00000  Uiso   1.00
H852   H     0.98070   0.56986   0.62424   0.00000  Uiso   1.00
H853   H     0.68326   0.43430   0.87749   0.00000  Uiso   1.00
H854   H     0.98452   0.41574   0.95661   0.00000  Uiso   1.00
H855   H     0.68080   0.58923   0.54519   0.00000  Uiso   1.00
H856   H     0.66771   0.53808   0.78451   0.00000  Uiso   1.00
N857   N     0.98173   0.51401   0.76212   0.00000  Uiso   1.00
N858   N     0.68494   0.48599   0.73788   0.00000  Uiso   1.00
O859   O     0.79482   0.57142   0.74686   0.00000  Uiso   1.00
O860   O     0.98940   0.55590   0.89364   0.00000  Uiso   1.00
O861   O     0.96247   0.65794   0.69746   0.00000  Uiso   1.00
O862   O     0.70431   0.34221   0.80273   0.00000  Uiso   1.00
O863   O     0.87185   0.42858   0.75314   0.00000  Uiso   1.00
O864   O     0.89496   0.58086   0.75502   0.00000  Uiso   1.00
O865   O     0.77171   0.41914   0.74497   0.00000  Uiso   1.00
O866   O     0.75518   0.49263   0.80854   0.00000  Uiso   1.00
O867   O     0.91149   0.50737   0.69145   0.00000  Uiso   1.00
O868   O     0.85532   0.50207   0.81671   0.00000  Uiso   1.00
O869   O     0.81134   0.49793   0.68329   0.00000  Uiso   1.00
O870   O     0.73968   0.51842   0.61082   0.00000  Uiso   1.00
C871   C     0.18184   0.93303   0.74964   0.00000  Uiso   1.00
C872   C     0.20544   0.83786   0.66686   0.00000  Uiso   1.00
C873   C     0.10420   0.82058   0.88067   0.00000  Uiso   1.00
C874   C     0.22938   0.84716   0.61952   0.00000  Uiso   1.00
C875   C     0.03022   0.77396   0.94289   0.00000  Uiso   1.00
C876   C     0.30248   0.89641   0.55831   0.00000  Uiso   1.00
C877   C     0.04749   0.78559   0.89819   0.00000  Uiso   1.00
C878   C     0.28471   0.88409   0.60288   0.00000  Uiso   1.00
C879   C     0.14351   0.84286   0.90792   0.00000  Uiso   1.00
C880   C     0.19112   0.82450   0.59170   0.00000  Uiso   1.00
C881   C     0.13233   0.82511   0.95104   0.00000  Uiso   1.00
C882   C     0.15148   0.73364   0.75037   0.00000  Uiso   1.00
C883   C     0.20200   0.84364   0.54909   0.00000  Uiso   1.00
C884   C     0.07207   0.79374   0.96944   0.00000  Uiso   1.00
C885   C     0.26165   0.87598   0.53122   0.00000  Uiso   1.00
C886   C     0.17769   0.83937   0.97688   0.00000  Uiso   1.00
C887   C     0.15666   0.83007   0.52333   0.00000  Uiso   1.00
C888   C     0.05753   0.81312   0.58900   0.00000  Uiso   1.00
C889   C     0.27591   0.85702   0.91120   0.00000  Uiso   1.00
C890   C     0.24922   0.67784   0.70705   0.00000  Uiso   1.00
C891   C     0.08412   0.98884   0.79300   0.00000  Uiso   1.00
C892   C     0.09109   0.80797   0.54201   0.00000  Uiso   1.00
C893   C     0.24316   0.86223   0.95841   0.00000  Uiso   1.00
C894   C     0.05227   0.78552   0.51455   0.00000  Uiso   1.00
C895   C     0.28160   0.88484   0.98623   0.00000  Uiso   1.00
C896   C     0.19104   0.98770   0.74141   0.00000  Uiso   1.00
C897   C     0.14229   0.67897   0.75861   0.00000  Uiso   1.00
C898   C     0.12792   0.82897   0.83316   0.00000  Uiso   1.00
Cu899  Cu    0.10737   0.82775   0.74516   0.00000  Uiso   1.00
Cu900  Cu    0.22596   0.83892   0.75483   0.00000  Uiso   1.00
H901   H     0.00373   0.76590   0.52889   0.00000  Uiso   1.00
H902   H     0.33230   0.79526   0.71549   0.00000  Uiso   1.00
H903   H     0.01621   0.78373   0.60382   0.00000  Uiso   1.00
H904   H     0.25883   0.82391   0.89175   0.00000  Uiso   1.00
H905   H     0.25079   0.71234   0.68920   0.00000  Uiso   1.00
H906   H     0.08248   0.95425   0.81076   0.00000  Uiso   1.00
H907   H     0.32995   0.90515   0.97235   0.00000  Uiso   1.00
H908   H     0.15215   0.79255   0.60429   0.00000  Uiso   1.00
H909   H     0.18250   0.87442   0.89467   0.00000  Uiso   1.00
H910   H     0.31403   0.90320   0.62424   0.00000  Uiso   1.00
H911   H     0.01659   0.76763   0.87749   0.00000  Uiso   1.00
H912   H     0.31786   0.74908   0.95661   0.00000  Uiso   1.00
H913   H     0.01413   0.92256   0.54519   0.00000  Uiso   1.00
H914   H     0.00104   0.87141   0.78451   0.00000  Uiso   1.00
N915   N     0.31506   0.84735   0.76212   0.00000  Uiso   1.00
N916   N     0.01827   0.81932   0.73788   0.00000  Uiso   1.00
O917   O     0.12815   0.90476   0.74686   0.00000  Uiso   1.00
O918   O     0.32273   0.88923   0.89364   0.00000  Uiso   1.00
O919   O     0.29580   0.99127   0.69746   0.00000  Uiso   1.00
O920   O     0.03765   0.67554   0.80273   0.00000  Uiso   1.00
O921   O     0.20518   0.76191   0.75314   0.00000  Uiso   1.00
O922   O     0.22829   0.91420   0.75502   0.00000  Uiso   1.00
O923   O     0.10504   0.75247   0.74497   0.00000  Uiso   1.00
O924   O     0.08851   0.82597   0.80854   0.00000  Uiso   1.00
O925   O     0.24482   0.84070   0.69145   0.00000  Uiso   1.00
O926   O     0.18866   0.83540   0.81671   0.00000  Uiso   1.00
O927   O     0.14468   0.83126   0.68329   0.00000  Uiso   1.00
O928   O     0.07302   0.85176   0.61082   0.00000  Uiso   1.00
C929   C     0.51518   0.93303   0.74964   0.00000  Uiso   1.00
C930   C     0.53877   0.83786   0.66686   0.00000  Uiso   1.00
C931   C     0.43753   0.82058   0.88067   0.00000  Uiso   1.00
C932   C     0.56271   0.84716   0.61952   0.00000  Uiso   1.00
C933   C     0.36356   0.77396   0.94289   0.00000  Uiso   1.00
C934   C     0.63581   0.89641   0.55831   0.00000  Uiso   1.00
C935   C     0.38083   0.78559   0.89819   0.00000  Uiso   1.00
C936   C     0.61804   0.88409   0.60288   0.00000  Uiso   1.00
C937   C     0.47684   0.84286   0.90792   0.00000  Uiso   1.00
C938   C     0.52445   0.82450   0.59170   0.00000  Uiso   1.00
C939   C     0.46566   0.82511   0.95104   0.00000  Uiso   1.00
C940   C     0.48482   0.73364   0.75037   0.00000  Uiso   1.00
C941   C     0.53533   0.84364   0.54909   0.00000  Uiso   1.00
C942   C     0.40540   0.79374   0.96944   0.00000  Uiso   1.00
C943   C     0.59498   0.87598   0.53122   0.00000  Uiso   1.00
C944   C     0.51102   0.83937   0.97688   0.00000  Uiso   1.00
C945   C     0.49000   0.83007   0.52333   0.00000  Uiso   1.00
C946   C     0.39086   0.81312   0.58900   0.00000  Uiso   1.00
C947   C     0.60924   0.85702   0.91120   0.00000  Uiso   1.00
C948   C     0.58255   0.67784   0.70705   0.00000  Uiso   1.00
C949   C     0.41746   0.98884   0.79300   0.00000  Uiso   1.00
C950   C     0.42442   0.80797   0.54201   0.00000  Uiso   1.00
C951   C     0.57649   0.86223   0.95841   0.00000  Uiso   1.00
C952   C     0.38560   0.78552   0.51455   0.00000  Uiso   1.00
C953   C     0.61493   0.88484   0.98623   0.00000  Uiso   1.00
C954   C     0.52437   0.98770   0.74141   0.00000  Uiso   1.00
C955   C     0.47562   0.67897   0.75861   0.00000  Uiso   1.00
C956   C     0.46125   0.82897   0.83316   0.00000  Uiso   1.00
Cu957  Cu    0.44071   0.82775   0.74516   0.00000  Uiso   1.00
Cu958  Cu    0.55929   0.83892   0.75483   0.00000  Uiso   1.00
H959   H     0.33706   0.76590   0.52889   0.00000  Uiso   1.00
H960   H     0.66563   0.79526   0.71549   0.00000  Uiso   1.00
H961   H     0.34955   0.78373   0.60382   0.00000  Uiso   1.00
H962   H     0.59217   0.82391   0.89175   0.00000  Uiso   1.00
H963   H     0.58413   0.71234   0.68920   0.00000  Uiso   1.00
H964   H     0.41582   0.95425   0.81076   0.00000  Uiso   1.00
H965   H     0.66328   0.90515   0.97235   0.00000  Uiso   1.00
H966   H     0.48549   0.79255   0.60429   0.00000  Uiso   1.00
H967   H     0.51583   0.87442   0.89467   0.00000  Uiso   1.00
H968   H     0.64737   0.90320   0.62424   0.00000  Uiso   1.00
H969   H     0.34992   0.76763   0.87749   0.00000  Uiso   1.00
H970   H     0.65119   0.74908   0.95661   0.00000  Uiso   1.00
H971   H     0.34746   0.92256   0.54519   0.00000  Uiso   1.00
H972   H     0.33437   0.87141   0.78451   0.00000  Uiso   1.00
N973   N     0.64839   0.84735   0.76212   0.00000  Uiso   1.00
N974   N     0.35161   0.81932   0.73788   0.00000  Uiso   1.00
O975   O     0.46148   0.90476   0.74686   0.00000  Uiso   1.00
O976   O     0.65607   0.88923   0.89364   0.00000  Uiso   1.00
O977   O     0.62914   0.99127   0.69746   0.00000  Uiso   1.00
O978   O     0.37098   0.67554   0.80273   0.00000  Uiso   1.00
O979   O     0.53852   0.76191   0.75314   0.00000  Uiso   1.00
O980   O     0.56163   0.91420   0.75502   0.00000  Uiso   1.00
O981   O     0.43837   0.75247   0.74497   0.00000  Uiso   1.00
O982   O     0.42185   0.82597   0.80854   0.00000  Uiso   1.00
O983   O     0.57815   0.84070   0.69145   0.00000  Uiso   1.00
O984   O     0.52199   0.83540   0.81671   0.00000  Uiso   1.00
O985   O     0.47801   0.83126   0.68329   0.00000  Uiso   1.00
O986   O     0.40635   0.85176   0.61082   0.00000  Uiso   1.00
C987   C     0.84851   0.93303   0.74964   0.00000  Uiso   1.00
C988   C     0.87210   0.83786   0.66686   0.00000  Uiso   1.00
C989   C     0.77087   0.82058   0.88067   0.00000  Uiso   1.00
C990   C     0.89604   0.84716   0.61952   0.00000  Uiso   1.00
C991   C     0.69689   0.77396   0.94289   0.00000  Uiso   1.00
C992   C     0.96914   0.89641   0.55831   0.00000  Uiso   1.00
C993   C     0.71416   0.78559   0.89819   0.00000  Uiso   1.00
C994   C     0.95138   0.88409   0.60288   0.00000  Uiso   1.00
C995   C     0.81017   0.84286   0.90792   0.00000  Uiso   1.00
C996   C     0.85779   0.82450   0.59170   0.00000  Uiso   1.00
C997   C     0.79899   0.82511   0.95104   0.00000  Uiso   1.00
C998   C     0.81815   0.73364   0.75037   0.00000  Uiso   1.00
C999   C     0.86866   0.84364   0.54909   0.00000  Uiso   1.00
C1000  C     0.73873   0.79374   0.96944   0.00000  Uiso   1.00
C1001  C     0.92831   0.87598   0.53122   0.00000  Uiso   1.00
C1002  C     0.84435   0.83937   0.97688   0.00000  Uiso   1.00
C1003  C     0.82333   0.83007   0.52333   0.00000  Uiso   1.00
C1004  C     0.72419   0.81312   0.58900   0.00000  Uiso   1.00
C1005  C     0.94257   0.85702   0.91120   0.00000  Uiso   1.00
C1006  C     0.91589   0.67784   0.70705   0.00000  Uiso   1.00
C1007  C     0.75079   0.98884   0.79300   0.00000  Uiso   1.00
C1008  C     0.75775   0.80797   0.54201   0.00000  Uiso   1.00
C1009  C     0.90983   0.86223   0.95841   0.00000  Uiso   1.00
C1010  C     0.71893   0.78552   0.51455   0.00000  Uiso   1.00
C1011  C     0.94827   0.88484   0.98623   0.00000  Uiso   1.00
C1012  C     0.85770   0.98770   0.74141   0.00000  Uiso   1.00
C1013  C     0.80895   0.67897   0.75861   0.00000  Uiso   1.00
C1014  C     0.79458   0.82897   0.83316   0.00000  Uiso   1.00
Cu1015 Cu    0.77404   0.82775   0.74516   0.00000  Uiso   1.00
Cu1016 Cu    0.89263   0.83892   0.75483   0.00000  Uiso   1.00
H1017  H     0.67040   0.76590   0.52889   0.00000  Uiso   1.00
H1018  H     0.99896   0.79526   0.71549   0.00000  Uiso   1.00
H1019  H     0.68288   0.78373   0.60382   0.00000  Uiso   1.00
H1020  H     0.92550   0.82391   0.89175   0.00000  Uiso   1.00
H1021  H     0.91746   0.71234   0.68920   0.00000  Uiso   1.00
H1022  H     0.74915   0.95425   0.81076   0.00000  Uiso   1.00
H1023  H     0.99661   0.90515   0.97235   0.00000  Uiso   1.00
H1024  H     0.81882   0.79255   0.60429   0.00000  Uiso   1.00
H1025  H     0.84916   0.87442   0.89467   0.00000  Uiso   1.00
H1026  H     0.98070   0.90320   0.62424   0.00000  Uiso   1.00
H1027  H     0.68326   0.76763   0.87749   0.00000  Uiso   1.00
H1028  H     0.98452   0.74908   0.95661   0.00000  Uiso   1.00
H1029  H     0.68080   0.92256   0.54519   0.00000  Uiso   1.00
H1030  H     0.66771   0.87141   0.78451   0.00000  Uiso   1.00
N1031  N     0.98173   0.84735   0.76212   0.00000  Uiso   1.00
N1032  N     0.68494   0.81932   0.73788   0.00000  Uiso   1.00
O1033  O     0.79482   0.90476   0.74686   0.00000  Uiso   1.00
O1034  O     0.98940   0.88923   0.89364   0.00000  Uiso   1.00
O1035  O     0.96247   0.99127   0.69746   0.00000  Uiso   1.00
O1036  O     0.70431   0.67554   0.80273   0.00000  Uiso   1.00
O1037  O     0.87185   0.76191   0.75314   0.00000  Uiso   1.00
O1038  O     0.89496   0.91420   0.75502   0.00000  Uiso   1.00
O1039  O     0.77171   0.75247   0.74497   0.00000  Uiso   1.00
O1040  O     0.75518   0.82597   0.80854   0.00000  Uiso   1.00
O1041  O     0.91149   0.84070   0.69145   0.00000  Uiso   1.00
O1042  O     0.85532   0.83540   0.81671   0.00000  Uiso   1.00
O1043  O     0.81134   0.83126   0.68329   0.00000  Uiso   1.00
O1044  O     0.73968   0.85176   0.61082   0.00000  Uiso   1.00
loop_
_geom_bond_atom_site_label_1
_geom_bond_atom_site_label_2
_geom_bond_distance
_geom_bond_site_symmetry_2
_ccdc_geom_bond_type
C1     O52     1.292   .     A
C1     C26     1.433   .     S
C1     O47     1.287   .     A
C2     C4      1.463   .     S
C2     O57     1.297   .     A
C2     O55     1.301   .     A
C3     C9      1.396   .     A
C3     C7      1.397   .     A
C3     C28     1.464   .     S
C4     C8      1.397   .     A
C4     C10     1.395   .     A
C5     C14     1.406   .     A
C5     C7      1.394   .     A
C5     H158    1.084   1_455 S
C6     C8      1.394   .     A
C6     C15     1.405   .     A
C6     H101    1.084   .     S
C7     H41     1.083   .     S
C8     H40     1.083   .     S
C9     C11     1.405   .     A
C9     H39     1.078   .     S
C10    H38     1.080   .     S
C10    C13     1.405   .     A
C11    C16     1.431   .     A
C11    C14     1.415   .     A
C12    O53     1.292   .     A
C12    C27     1.433   .     S
C12    O51     1.287   .     A
C13    C17     1.428   .     A
C13    C15     1.413   .     A
C14    C546    1.388   .     S
C15    C547    1.388   1_554 S
C16    C23     1.436   .     A
C16    C539    1.434   .     S
C17    C22     1.434   .     A
C17    C538    1.434   1_554 S
C18    H33     1.086   .     S
C18    C22     1.484   .     S
C18    O58     1.221   .     D
C19    C23     1.486   .     S
C19    O48     1.222   .     D
C19    H34     1.085   .     S
C20    H35     1.085   .     S
C20    C374    1.500   1_545 S
C20    O397    1.221   1_545 S
C21    H36     1.085   .     S
C21    C201    1.500   .     S
C21    O224    1.221   .     S
C22    C24     1.394   .     A
C23    C25     1.398   .     A
C24    H31     1.086   .     S
C24    C536    1.388   1_554 S
C25    H37     1.085   .     S
C25    C537    1.388   .     S
C26    C194    1.500   .     S
C26    C201    1.356   .     S
C27    C374    1.356   1_545 S
C27    C369    1.500   1_545 S
C28    O54     1.302   .     A
C28    O56     1.297   .     A
Cu29   Cu30    2.694   .     S
Cu29   N46     2.025   .     S
Cu29   O53     1.959   .     S
Cu29   O47     1.969   .     S
Cu29   O57     1.907   .     S
Cu29   O54     1.928   .     S
Cu30   O56     1.907   .     S
Cu30   N45     2.025   .     S
Cu30   O51     1.969   .     S
Cu30   O55     1.928   .     S
Cu30   O52     1.959   .     S
H32    N104    1.029   .     S
H42    C63     1.084   .     S
H43    C122    1.084   1_455 S
H44    N161    1.029   1_455 S
N45    H102    1.029   .     S
N45    N104    1.281   .     S
N46    H148    1.029   1_455 S
N46    N161    1.281   1_455 S
O49    C194    1.221   .     S
O50    C369    1.221   1_545 S
C59    O110    1.292   .     A
C59    C84     1.433   .     S
C59    O105    1.287   .     A
C60    C62     1.463   .     S
C60    O115    1.297   .     A
C60    O113    1.301   .     A
C61    C67     1.396   .     A
C61    C65     1.397   .     A
C61    C86     1.464   .     S
C62    C66     1.397   .     A
C62    C68     1.395   .     A
C63    C72     1.406   .     A
C63    C65     1.394   .     A
C64    C66     1.394   .     A
C64    C73     1.405   .     A
C64    H159    1.084   .     S
C65    H99     1.083   .     S
C66    H98     1.083   .     S
C67    C69     1.405   .     A
C67    H97     1.078   .     S
C68    H96     1.080   .     S
C68    C71     1.405   .     A
C69    C74     1.431   .     A
C69    C72     1.415   .     A
C70    O111    1.292   .     A
C70    C85     1.433   .     S
C70    O109    1.287   .     A
C71    C75     1.428   .     A
C71    C73     1.413   .     A
C72    C604    1.388   .     S
C73    C605    1.388   1_554 S
C74    C81     1.436   .     A
C74    C597    1.434   .     S
C75    C80     1.434   .     A
C75    C596    1.434   1_554 S
C76    H91     1.086   .     S
C76    C80     1.484   .     S
C76    O116    1.221   .     D
C77    C81     1.486   .     S
C77    O106    1.222   .     D
C77    H92     1.085   .     S
C78    H93     1.085   .     S
C78    C432    1.500   1_545 S
C78    O455    1.221   1_545 S
C79    H94     1.085   .     S
C79    C259    1.500   .     S
C79    O282    1.221   .     S
C80    C82     1.394   .     A
C81    C83     1.398   .     A
C82    H89     1.086   .     S
C82    C594    1.388   1_554 S
C83    H95     1.085   .     S
C83    C595    1.388   .     S
C84    C252    1.500   .     S
C84    C259    1.356   .     S
C85    C432    1.356   1_545 S
C85    C427    1.500   1_545 S
C86    O112    1.302   .     A
C86    O114    1.297   .     A
Cu87   Cu88    2.694   .     S
Cu87   N104    2.025   .     S
Cu87   O111    1.959   .     S
Cu87   O105    1.969   .     S
Cu87   O115    1.907   .     S
Cu87   O112    1.928   .     S
Cu88   O114    1.907   .     S
Cu88   N103    2.025   .     S
Cu88   O109    1.969   .     S
Cu88   O113    1.928   .     S
Cu88   O110    1.959   .     S
H90    N162    1.029   .     S
H100   C121    1.084   .     S
N103   H160    1.029   .     S
N103   N162    1.281   .     S
O107   C252    1.221   .     S
O108   C427    1.221   1_545 S
C117   O168    1.292   .     A
C117   C142    1.433   .     S
C117   O163    1.287   .     A
C118   C120    1.463   .     S
C118   O173    1.297   .     A
C118   O171    1.301   .     A
C119   C125    1.396   .     A
C119   C123    1.397   .     A
C119   C144    1.464   .     S
C120   C124    1.397   .     A
C120   C126    1.395   .     A
C121   C130    1.406   .     A
C121   C123    1.394   .     A
C122   C124    1.394   .     A
C122   C131    1.405   .     A
C122   H43     1.084   1_655 S
C123   H157    1.083   .     S
C124   H156    1.083   .     S
C125   C127    1.405   .     A
C125   H155    1.078   .     S
C126   H154    1.080   .     S
C126   C129    1.405   .     A
C127   C132    1.431   .     A
C127   C130    1.415   .     A
C128   O169    1.292   .     A
C128   C143    1.433   .     S
C128   O167    1.287   .     A
C129   C133    1.428   .     A
C129   C131    1.413   .     A
C130   C662    1.388   .     S
C131   C663    1.388   1_554 S
C132   C139    1.436   .     A
C132   C655    1.434   .     S
C133   C138    1.434   .     A
C133   C654    1.434   1_554 S
C134   H149    1.086   .     S
C134   C138    1.484   .     S
C134   O174    1.221   .     D
C135   C139    1.486   .     S
C135   O164    1.222   .     D
C135   H150    1.085   .     S
C136   H151    1.085   .     S
C136   C490    1.500   1_545 S
C136   O513    1.221   1_545 S
C137   H152    1.085   .     S
C137   C317    1.500   .     S
C137   O340    1.221   .     S
C138   C140    1.394   .     A
C139   C141    1.398   .     A
C140   H147    1.086   .     S
C140   C652    1.388   1_554 S
C141   H153    1.085   .     S
C141   C653    1.388   .     S
C142   C310    1.500   .     S
C142   C317    1.356   .     S
C143   C490    1.356   1_545 S
C143   C485    1.500   1_545 S
C144   O170    1.302   .     A
C144   O172    1.297   .     A
Cu145  Cu146   2.694   .     S
Cu145  N162    2.025   .     S
Cu145  O169    1.959   .     S
Cu145  O163    1.969   .     S
Cu145  O173    1.907   .     S
Cu145  O170    1.928   .     S
Cu146  O172    1.907   .     S
Cu146  N161    2.025   .     S
Cu146  O167    1.969   .     S
Cu146  O171    1.928   .     S
Cu146  O168    1.959   .     S
H148   N46     1.029   1_655 S
H158   C5      1.084   1_655 S
N161   H44     1.029   1_655 S
N161   N46     1.281   1_655 S
O165   C310    1.221   .     S
O166   C485    1.221   1_545 S
C175   O226    1.292   .     A
C175   C200    1.433   .     S
C175   O221    1.287   .     A
C176   C178    1.463   .     S
C176   O231    1.297   .     A
C176   O229    1.301   .     A
C177   C183    1.396   .     A
C177   C181    1.397   .     A
C177   C202    1.464   .     S
C178   C182    1.397   .     A
C178   C184    1.395   .     A
C179   C188    1.406   .     A
C179   C181    1.394   .     A
C179   H332    1.084   1_455 S
C180   C182    1.394   .     A
C180   C189    1.405   .     A
C180   H275    1.084   .     S
C181   H215    1.083   .     S
C182   H214    1.083   .     S
C183   C185    1.405   .     A
C183   H213    1.078   .     S
C184   H212    1.080   .     S
C184   C187    1.405   .     A
C185   C190    1.431   .     A
C185   C188    1.415   .     A
C186   O227    1.292   .     A
C186   C201    1.433   .     S
C186   O225    1.287   .     A
C187   C191    1.428   .     A
C187   C189    1.413   .     A
C188   C720    1.388   .     S
C189   C721    1.388   1_554 S
C190   C197    1.436   .     A
C190   C713    1.434   .     S
C191   C196    1.434   .     A
C191   C712    1.434   1_554 S
C192   H207    1.086   .     S
C192   C196    1.484   .     S
C192   O232    1.221   .     D
C193   C197    1.486   .     S
C193   O222    1.222   .     D
C193   H208    1.085   .     S
C194   H209    1.085   .     S
C195   H210    1.085   .     S
C195   C375    1.500   .     S
C195   O398    1.221   .     S
C196   C198    1.394   .     A
C197   C199    1.398   .     A
C198   H205    1.086   .     S
C198   C710    1.388   1_554 S
C199   H211    1.085   .     S
C199   C711    1.388   .     S
C200   C368    1.500   .     S
C200   C375    1.356   .     S
C202   O228    1.302   .     A
C202   O230    1.297   .     A
Cu203  Cu204   2.694   .     S
Cu203  N220    2.025   .     S
Cu203  O227    1.959   .     S
Cu203  O221    1.969   .     S
Cu203  O231    1.907   .     S
Cu203  O228    1.928   .     S
Cu204  O230    1.907   .     S
Cu204  N219    2.025   .     S
Cu204  O225    1.969   .     S
Cu204  O229    1.928   .     S
Cu204  O226    1.959   .     S
H206   N278    1.029   .     S
H216   C237    1.084   .     S
H217   C296    1.084   1_455 S
H218   N335    1.029   1_455 S
N219   H276    1.029   .     S
N219   N278    1.281   .     S
N220   H322    1.029   1_455 S
N220   N335    1.281   1_455 S
O223   C368    1.221   .     S
C233   O284    1.292   .     A
C233   C258    1.433   .     S
C233   O279    1.287   .     A
C234   C236    1.463   .     S
C234   O289    1.297   .     A
C234   O287    1.301   .     A
C235   C241    1.396   .     A
C235   C239    1.397   .     A
C235   C260    1.464   .     S
C236   C240    1.397   .     A
C236   C242    1.395   .     A
C237   C246    1.406   .     A
C237   C239    1.394   .     A
C238   C240    1.394   .     A
C238   C247    1.405   .     A
C238   H333    1.084   .     S
C239   H273    1.083   .     S
C240   H272    1.083   .     S
C241   C243    1.405   .     A
C241   H271    1.078   .     S
C242   H270    1.080   .     S
C242   C245    1.405   .     A
C243   C248    1.431   .     A
C243   C246    1.415   .     A
C244   O285    1.292   .     A
C244   C259    1.433   .     S
C244   O283    1.287   .     A
C245   C249    1.428   .     A
C245   C247    1.413   .     A
C246   C778    1.388   .     S
C247   C779    1.388   1_554 S
C248   C255    1.436   .     A
C248   C771    1.434   .     S
C249   C254    1.434   .     A
C249   C770    1.434   1_554 S
C250   H265    1.086   .     S
C250   C254    1.484   .     S
C250   O290    1.221   .     D
C251   C255    1.486   .     S
C251   O280    1.222   .     D
C251   H266    1.085   .     S
C252   H267    1.085   .     S
C253   H268    1.085   .     S
C253   C433    1.500   .     S
C253   O456    1.221   .     S
C254   C256    1.394   .     A
C255   C257    1.398   .     A
C256   H263    1.086   .     S
C256   C768    1.388   1_554 S
C257   H269    1.085   .     S
C257   C769    1.388   .     S
C258   C426    1.500   .     S
C258   C433    1.356   .     S
C260   O286    1.302   .     A
C260   O288    1.297   .     A
Cu261  Cu262   2.694   .     S
Cu261  N278    2.025   .     S
Cu261  O285    1.959   .     S
Cu261  O279    1.969   .     S
Cu261  O289    1.907   .     S
Cu261  O286    1.928   .     S
Cu262  O288    1.907   .     S
Cu262  N277    2.025   .     S
Cu262  O283    1.969   .     S
Cu262  O287    1.928   .     S
Cu262  O284    1.959   .     S
H264   N336    1.029   .     S
H274   C295    1.084   .     S
N277   H334    1.029   .     S
N277   N336    1.281   .     S
O281   C426    1.221   .     S
C291   O342    1.292   .     A
C291   C316    1.433   .     S
C291   O337    1.287   .     A
C292   C294    1.463   .     S
C292   O347    1.297   .     A
C292   O345    1.301   .     A
C293   C299    1.396   .     A
C293   C297    1.397   .     A
C293   C318    1.464   .     S
C294   C298    1.397   .     A
C294   C300    1.395   .     A
C295   C304    1.406   .     A
C295   C297    1.394   .     A
C296   C298    1.394   .     A
C296   C305    1.405   .     A
C296   H217    1.084   1_655 S
C297   H331    1.083   .     S
C298   H330    1.083   .     S
C299   C301    1.405   .     A
C299   H329    1.078   .     S
C300   H328    1.080   .     S
C300   C303    1.405   .     A
C301   C306    1.431   .     A
C301   C304    1.415   .     A
C302   O343    1.292   .     A
C302   C317    1.433   .     S
C302   O341    1.287   .     A
C303   C307    1.428   .     A
C303   C305    1.413   .     A
C304   C836    1.388   .     S
C305   C837    1.388   1_554 S
C306   C313    1.436   .     A
C306   C829    1.434   .     S
C307   C312    1.434   .     A
C307   C828    1.434   1_554 S
C308   H323    1.086   .     S
C308   C312    1.484   .     S
C308   O348    1.221   .     D
C309   C313    1.486   .     S
C309   O338    1.222   .     D
C309   H324    1.085   .     S
C310   H325    1.085   .     S
C311   H326    1.085   .     S
C311   C491    1.500   .     S
C311   O514    1.221   .     S
C312   C314    1.394   .     A
C313   C315    1.398   .     A
C314   H321    1.086   .     S
C314   C826    1.388   1_554 S
C315   H327    1.085   .     S
C315   C827    1.388   .     S
C316   C484    1.500   .     S
C316   C491    1.356   .     S
C318   O344    1.302   .     A
C318   O346    1.297   .     A
Cu319  Cu320   2.694   .     S
Cu319  N336    2.025   .     S
Cu319  O343    1.959   .     S
Cu319  O337    1.969   .     S
Cu319  O347    1.907   .     S
Cu319  O344    1.928   .     S
Cu320  O346    1.907   .     S
Cu320  N335    2.025   .     S
Cu320  O341    1.969   .     S
Cu320  O345    1.928   .     S
Cu320  O342    1.959   .     S
H322   N220    1.029   1_655 S
H332   C179    1.084   1_655 S
N335   H218    1.029   1_655 S
N335   N220    1.281   1_655 S
O339   C484    1.221   .     S
C349   O400    1.292   .     A
C349   C374    1.433   .     S
C349   O395    1.287   .     A
C350   C352    1.463   .     S
C350   O405    1.297   .     A
C350   O403    1.301   .     A
C351   C357    1.396   .     A
C351   C355    1.397   .     A
C351   C376    1.464   .     S
C352   C356    1.397   .     A
C352   C358    1.395   .     A
C353   C362    1.406   .     A
C353   C355    1.394   .     A
C353   H506    1.084   1_455 S
C354   C356    1.394   .     A
C354   C363    1.405   .     A
C354   H449    1.084   .     S
C355   H389    1.083   .     S
C356   H388    1.083   .     S
C357   C359    1.405   .     A
C357   H387    1.078   .     S
C358   H386    1.080   .     S
C358   C361    1.405   .     A
C359   C364    1.431   .     A
C359   C362    1.415   .     A
C360   O401    1.292   .     A
C360   C375    1.433   .     S
C360   O399    1.287   .     A
C361   C365    1.428   .     A
C361   C363    1.413   .     A
C362   C894    1.388   .     S
C363   C895    1.388   1_554 S
C364   C371    1.436   .     A
C364   C887    1.434   .     S
C365   C370    1.434   .     A
C365   C886    1.434   1_554 S
C366   H381    1.086   .     S
C366   C370    1.484   .     S
C366   O406    1.221   .     D
C367   C371    1.486   .     S
C367   O396    1.222   .     D
C367   H382    1.085   .     S
C368   H383    1.085   .     S
C369   H384    1.085   .     S
C369   C27     1.500   1_565 S
C369   O50     1.221   1_565 S
C370   C372    1.394   .     A
C371   C373    1.398   .     A
C372   H379    1.086   .     S
C372   C884    1.388   1_554 S
C373   H385    1.085   .     S
C373   C885    1.388   .     S
C374   C20     1.500   1_565 S
C374   C27     1.356   1_565 S
C376   O402    1.302   .     A
C376   O404    1.297   .     A
Cu377  Cu378   2.694   .     S
Cu377  N394    2.025   .     S
Cu377  O401    1.959   .     S
Cu377  O395    1.969   .     S
Cu377  O405    1.907   .     S
Cu377  O402    1.928   .     S
Cu378  O404    1.907   .     S
Cu378  N393    2.025   .     S
Cu378  O399    1.969   .     S
Cu378  O403    1.928   .     S
Cu378  O400    1.959   .     S
H380   N452    1.029   .     S
H390   C411    1.084   .     S
H391   C470    1.084   1_455 S
H392   N509    1.029   1_455 S
N393   H450    1.029   .     S
N393   N452    1.281   .     S
N394   H496    1.029   1_455 S
N394   N509    1.281   1_455 S
O397   C20     1.221   1_565 S
C407   O458    1.292   .     A
C407   C432    1.433   .     S
C407   O453    1.287   .     A
C408   C410    1.463   .     S
C408   O463    1.297   .     A
C408   O461    1.301   .     A
C409   C415    1.396   .     A
C409   C413    1.397   .     A
C409   C434    1.464   .     S
C410   C414    1.397   .     A
C410   C416    1.395   .     A
C411   C420    1.406   .     A
C411   C413    1.394   .     A
C412   C414    1.394   .     A
C412   C421    1.405   .     A
C412   H507    1.084   .     S
C413   H447    1.083   .     S
C414   H446    1.083   .     S
C415   C417    1.405   .     A
C415   H445    1.078   .     S
C416   H444    1.080   .     S
C416   C419    1.405   .     A
C417   C422    1.431   .     A
C417   C420    1.415   .     A
C418   O459    1.292   .     A
C418   C433    1.433   .     S
C418   O457    1.287   .     A
C419   C423    1.428   .     A
C419   C421    1.413   .     A
C420   C952    1.388   .     S
C421   C953    1.388   1_554 S
C422   C429    1.436   .     A
C422   C945    1.434   .     S
C423   C428    1.434   .     A
C423   C944    1.434   1_554 S
C424   H439    1.086   .     S
C424   C428    1.484   .     S
C424   O464    1.221   .     D
C425   C429    1.486   .     S
C425   O454    1.222   .     D
C425   H440    1.085   .     S
C426   H441    1.085   .     S
C427   H442    1.085   .     S
C427   C85     1.500   1_565 S
C427   O108    1.221   1_565 S
C428   C430    1.394   .     A
C429   C431    1.398   .     A
C430   H437    1.086   .     S
C430   C942    1.388   1_554 S
C431   H443    1.085   .     S
C431   C943    1.388   .     S
C432   C78     1.500   1_565 S
C432   C85     1.356   1_565 S
C434   O460    1.302   .     A
C434   O462    1.297   .     A
Cu435  Cu436   2.694   .     S
Cu435  N452    2.025   .     S
Cu435  O459    1.959   .     S
Cu435  O453    1.969   .     S
Cu435  O463    1.907   .     S
Cu435  O460    1.928   .     S
Cu436  O462    1.907   .     S
Cu436  N451    2.025   .     S
Cu436  O457    1.969   .     S
Cu436  O461    1.928   .     S
Cu436  O458    1.959   .     S
H438   N510    1.029   .     S
H448   C469    1.084   .     S
N451   H508    1.029   .     S
N451   N510    1.281   .     S
O455   C78     1.221   1_565 S
C465   O516    1.292   .     A
C465   C490    1.433   .     S
C465   O511    1.287   .     A
C466   C468    1.463   .     S
C466   O521    1.297   .     A
C466   O519    1.301   .     A
C467   C473    1.396   .     A
C467   C471    1.397   .     A
C467   C492    1.464   .     S
C468   C472    1.397   .     A
C468   C474    1.395   .     A
C469   C478    1.406   .     A
C469   C471    1.394   .     A
C470   C472    1.394   .     A
C470   C479    1.405   .     A
C470   H391    1.084   1_655 S
C471   H505    1.083   .     S
C472   H504    1.083   .     S
C473   C475    1.405   .     A
C473   H503    1.078   .     S
C474   H502    1.080   .     S
C474   C477    1.405   .     A
C475   C480    1.431   .     A
C475   C478    1.415   .     A
C476   O517    1.292   .     A
C476   C491    1.433   .     S
C476   O515    1.287   .     A
C477   C481    1.428   .     A
C477   C479    1.413   .     A
C478   C1010   1.388   .     S
C479   C1011   1.388   1_554 S
C480   C487    1.436   .     A
C480   C1003   1.434   .     S
C481   C486    1.434   .     A
C481   C1002   1.434   1_554 S
C482   H497    1.086   .     S
C482   C486    1.484   .     S
C482   O522    1.221   .     D
C483   C487    1.486   .     S
C483   O512    1.222   .     D
C483   H498    1.085   .     S
C484   H499    1.085   .     S
C485   H500    1.085   .     S
C485   C143    1.500   1_565 S
C485   O166    1.221   1_565 S
C486   C488    1.394   .     A
C487   C489    1.398   .     A
C488   H495    1.086   .     S
C488   C1000   1.388   1_554 S
C489   H501    1.085   .     S
C489   C1001   1.388   .     S
C490   C136    1.500   1_565 S
C490   C143    1.356   1_565 S
C492   O518    1.302   .     A
C492   O520    1.297   .     A
Cu493  Cu494   2.694   .     S
Cu493  N510    2.025   .     S
Cu493  O517    1.959   .     S
Cu493  O511    1.969   .     S
Cu493  O521    1.907   .     S
Cu493  O518    1.928   .     S
Cu494  O520    1.907   .     S
Cu494  N509    2.025   .     S
Cu494  O515    1.969   .     S
Cu494  O519    1.928   .     S
Cu494  O516    1.959   .     S
H496   N394    1.029   1_655 S
H506   C353    1.084   1_655 S
N509   H392    1.029   1_655 S
N509   N394    1.281   1_655 S
O513   C136    1.221   1_565 S
C523   O574    1.292   .     A
C523   C548    1.433   .     S
C523   O569    1.287   .     A
C524   C526    1.463   .     S
C524   O579    1.297   .     A
C524   O577    1.301   .     A
C525   C531    1.396   .     A
C525   C529    1.397   .     A
C525   C550    1.464   .     S
C526   C530    1.397   .     A
C526   C532    1.395   .     A
C527   C536    1.406   .     A
C527   C529    1.394   .     A
C527   H680    1.084   1_455 S
C528   C530    1.394   .     A
C528   C537    1.405   .     A
C528   H623    1.084   .     S
C529   H563    1.083   .     S
C530   H562    1.083   .     S
C531   C533    1.405   .     A
C531   H561    1.078   .     S
C532   H560    1.080   .     S
C532   C535    1.405   .     A
C533   C538    1.431   .     A
C533   C536    1.415   .     A
C534   O575    1.292   .     A
C534   C549    1.433   .     S
C534   O573    1.287   .     A
C535   C539    1.428   .     A
C535   C537    1.413   .     A
C536   C24     1.388   1_556 S
C538   C545    1.436   .     A
C538   C17     1.434   1_556 S
C539   C544    1.434   .     A
C540   H555    1.086   .     S
C540   C544    1.484   .     S
C540   O580    1.221   .     D
C541   C545    1.486   .     S
C541   O570    1.222   .     D
C541   H556    1.085   .     S
C542   H557    1.085   .     S
C542   C896    1.500   1_545 S
C542   O919    1.221   1_545 S
C543   H558    1.085   .     S
C543   C723    1.500   .     S
C543   O746    1.221   .     S
C544   C546    1.394   .     A
C545   C547    1.398   .     A
C546   H553    1.086   .     S
C547   H559    1.085   .     S
C547   C15     1.388   1_556 S
C548   C716    1.500   .     S
C548   C723    1.356   .     S
C549   C896    1.356   1_545 S
C549   C891    1.500   1_545 S
C550   O576    1.302   .     A
C550   O578    1.297   .     A
Cu551  Cu552   2.694   .     S
Cu551  N568    2.025   .     S
Cu551  O575    1.959   .     S
Cu551  O569    1.969   .     S
Cu551  O579    1.907   .     S
Cu551  O576    1.928   .     S
Cu552  O578    1.907   .     S
Cu552  N567    2.025   .     S
Cu552  O573    1.969   .     S
Cu552  O577    1.928   .     S
Cu552  O574    1.959   .     S
H554   N626    1.029   .     S
H564   C585    1.084   .     S
H565   C644    1.084   1_455 S
H566   N683    1.029   1_455 S
N567   H624    1.029   .     S
N567   N626    1.281   .     S
N568   H670    1.029   1_455 S
N568   N683    1.281   1_455 S
O571   C716    1.221   .     S
O572   C891    1.221   1_545 S
C581   O632    1.292   .     A
C581   C606    1.433   .     S
C581   O627    1.287   .     A
C582   C584    1.463   .     S
C582   O637    1.297   .     A
C582   O635    1.301   .     A
C583   C589    1.396   .     A
C583   C587    1.397   .     A
C583   C608    1.464   .     S
C584   C588    1.397   .     A
C584   C590    1.395   .     A
C585   C594    1.406   .     A
C585   C587    1.394   .     A
C586   C588    1.394   .     A
C586   C595    1.405   .     A
C586   H681    1.084   .     S
C587   H621    1.083   .     S
C588   H620    1.083   .     S
C589   C591    1.405   .     A
C589   H619    1.078   .     S
C590   H618    1.080   .     S
C590   C593    1.405   .     A
C591   C596    1.431   .     A
C591   C594    1.415   .     A
C592   O633    1.292   .     A
C592   C607    1.433   .     S
C592   O631    1.287   .     A
C593   C597    1.428   .     A
C593   C595    1.413   .     A
C594   C82     1.388   1_556 S
C596   C603    1.436   .     A
C596   C75     1.434   1_556 S
C597   C602    1.434   .     A
C598   H613    1.086   .     S
C598   C602    1.484   .     S
C598   O638    1.221   .     D
C599   C603    1.486   .     S
C599   O628    1.222   .     D
C599   H614    1.085   .     S
C600   H615    1.085   .     S
C600   C954    1.500   1_545 S
C600   O977    1.221   1_545 S
C601   H616    1.085   .     S
C601   C781    1.500   .     S
C601   O804    1.221   .     S
C602   C604    1.394   .     A
C603   C605    1.398   .     A
C604   H611    1.086   .     S
C605   H617    1.085   .     S
C605   C73     1.388   1_556 S
C606   C774    1.500   .     S
C606   C781    1.356   .     S
C607   C954    1.356   1_545 S
C607   C949    1.500   1_545 S
C608   O634    1.302   .     A
C608   O636    1.297   .     A
Cu609  Cu610   2.694   .     S
Cu609  N626    2.025   .     S
Cu609  O633    1.959   .     S
Cu609  O627    1.969   .     S
Cu609  O637    1.907   .     S
Cu609  O634    1.928   .     S
Cu610  O636    1.907   .     S
Cu610  N625    2.025   .     S
Cu610  O631    1.969   .     S
Cu610  O635    1.928   .     S
Cu610  O632    1.959   .     S
H612   N684    1.029   .     S
H622   C643    1.084   .     S
N625   H682    1.029   .     S
N625   N684    1.281   .     S
O629   C774    1.221   .     S
O630   C949    1.221   1_545 S
C639   O690    1.292   .     A
C639   C664    1.433   .     S
C639   O685    1.287   .     A
C640   C642    1.463   .     S
C640   O695    1.297   .     A
C640   O693    1.301   .     A
C641   C647    1.396   .     A
C641   C645    1.397   .     A
C641   C666    1.464   .     S
C642   C646    1.397   .     A
C642   C648    1.395   .     A
C643   C652    1.406   .     A
C643   C645    1.394   .     A
C644   C646    1.394   .     A
C644   C653    1.405   .     A
C644   H565    1.084   1_655 S
C645   H679    1.083   .     S
C646   H678    1.083   .     S
C647   C649    1.405   .     A
C647   H677    1.078   .     S
C648   H676    1.080   .     S
C648   C651    1.405   .     A
C649   C654    1.431   .     A
C649   C652    1.415   .     A
C650   O691    1.292   .     A
C650   C665    1.433   .     S
C650   O689    1.287   .     A
C651   C655    1.428   .     A
C651   C653    1.413   .     A
C652   C140    1.388   1_556 S
C654   C661    1.436   .     A
C654   C133    1.434   1_556 S
C655   C660    1.434   .     A
C656   H671    1.086   .     S
C656   C660    1.484   .     S
C656   O696    1.221   .     D
C657   C661    1.486   .     S
C657   O686    1.222   .     D
C657   H672    1.085   .     S
C658   H673    1.085   .     S
C658   C1012   1.500   1_545 S
C658   O1035   1.221   1_545 S
C659   H674    1.085   .     S
C659   C839    1.500   .     S
C659   O862    1.221   .     S
C660   C662    1.394   .     A
C661   C663    1.398   .     A
C662   H669    1.086   .     S
C663   H675    1.085   .     S
C663   C131    1.388   1_556 S
C664   C832    1.500   .     S
C664   C839    1.356   .     S
C665   C1012   1.356   1_545 S
C665   C1007   1.500   1_545 S
C666   O692    1.302   .     A
C666   O694    1.297   .     A
Cu667  Cu668   2.694   .     S
Cu667  N684    2.025   .     S
Cu667  O691    1.959   .     S
Cu667  O685    1.969   .     S
Cu667  O695    1.907   .     S
Cu667  O692    1.928   .     S
Cu668  O694    1.907   .     S
Cu668  N683    2.025   .     S
Cu668  O689    1.969   .     S
Cu668  O693    1.928   .     S
Cu668  O690    1.959   .     S
H670   N568    1.029   1_655 S
H680   C527    1.084   1_655 S
N683   H566    1.029   1_655 S
N683   N568    1.281   1_655 S
O687   C832    1.221   .     S
O688   C1007   1.221   1_545 S
C697   O748    1.292   .     A
C697   C722    1.433   .     S
C697   O743    1.287   .     A
C698   C700    1.463   .     S
C698   O753    1.297   .     A
C698   O751    1.301   .     A
C699   C705    1.396   .     A
C699   C703    1.397   .     A
C699   C724    1.464   .     S
C700   C704    1.397   .     A
C700   C706    1.395   .     A
C701   C710    1.406   .     A
C701   C703    1.394   .     A
C701   H854    1.084   1_455 S
C702   C704    1.394   .     A
C702   C711    1.405   .     A
C702   H797    1.084   .     S
C703   H737    1.083   .     S
C704   H736    1.083   .     S
C705   C707    1.405   .     A
C705   H735    1.078   .     S
C706   H734    1.080   .     S
C706   C709    1.405   .     A
C707   C712    1.431   .     A
C707   C710    1.415   .     A
C708   O749    1.292   .     A
C708   C723    1.433   .     S
C708   O747    1.287   .     A
C709   C713    1.428   .     A
C709   C711    1.413   .     A
C710   C198    1.388   1_556 S
C712   C719    1.436   .     A
C712   C191    1.434   1_556 S
C713   C718    1.434   .     A
C714   H729    1.086   .     S
C714   C718    1.484   .     S
C714   O754    1.221   .     D
C715   C719    1.486   .     S
C715   O744    1.222   .     D
C715   H730    1.085   .     S
C716   H731    1.085   .     S
C717   H732    1.085   .     S
C717   C897    1.500   .     S
C717   O920    1.221   .     S
C718   C720    1.394   .     A
C719   C721    1.398   .     A
C720   H727    1.086   .     S
C721   H733    1.085   .     S
C721   C189    1.388   1_556 S
C722   C890    1.500   .     S
C722   C897    1.356   .     S
C724   O750    1.302   .     A
C724   O752    1.297   .     A
Cu725  Cu726   2.694   .     S
Cu725  N742    2.025   .     S
Cu725  O749    1.959   .     S
Cu725  O743    1.969   .     S
Cu725  O753    1.907   .     S
Cu725  O750    1.928   .     S
Cu726  O752    1.907   .     S
Cu726  N741    2.025   .     S
Cu726  O747    1.969   .     S
Cu726  O751    1.928   .     S
Cu726  O748    1.959   .     S
H728   N800    1.029   .     S
H738   C759    1.084   .     S
H739   C818    1.084   1_455 S
H740   N857    1.029   1_455 S
N741   H798    1.029   .     S
N741   N800    1.281   .     S
N742   H844    1.029   1_455 S
N742   N857    1.281   1_455 S
O745   C890    1.221   .     S
C755   O806    1.292   .     A
C755   C780    1.433   .     S
C755   O801    1.287   .     A
C756   C758    1.463   .     S
C756   O811    1.297   .     A
C756   O809    1.301   .     A
C757   C763    1.396   .     A
C757   C761    1.397   .     A
C757   C782    1.464   .     S
C758   C762    1.397   .     A
C758   C764    1.395   .     A
C759   C768    1.406   .     A
C759   C761    1.394   .     A
C760   C762    1.394   .     A
C760   C769    1.405   .     A
C760   H855    1.084   .     S
C761   H795    1.083   .     S
C762   H794    1.083   .     S
C763   C765    1.405   .     A
C763   H793    1.078   .     S
C764   H792    1.080   .     S
C764   C767    1.405   .     A
C765   C770    1.431   .     A
C765   C768    1.415   .     A
C766   O807    1.292   .     A
C766   C781    1.433   .     S
C766   O805    1.287   .     A
C767   C771    1.428   .     A
C767   C769    1.413   .     A
C768   C256    1.388   1_556 S
C770   C777    1.436   .     A
C770   C249    1.434   1_556 S
C771   C776    1.434   .     A
C772   H787    1.086   .     S
C772   C776    1.484   .     S
C772   O812    1.221   .     D
C773   C777    1.486   .     S
C773   O802    1.222   .     D
C773   H788    1.085   .     S
C774   H789    1.085   .     S
C775   H790    1.085   .     S
C775   C955    1.500   .     S
C775   O978    1.221   .     S
C776   C778    1.394   .     A
C777   C779    1.398   .     A
C778   H785    1.086   .     S
C779   H791    1.085   .     S
C779   C247    1.388   1_556 S
C780   C948    1.500   .     S
C780   C955    1.356   .     S
C782   O808    1.302   .     A
C782   O810    1.297   .     A
Cu783  Cu784   2.694   .     S
Cu783  N800    2.025   .     S
Cu783  O807    1.959   .     S
Cu783  O801    1.969   .     S
Cu783  O811    1.907   .     S
Cu783  O808    1.928   .     S
Cu784  O810    1.907   .     S
Cu784  N799    2.025   .     S
Cu784  O805    1.969   .     S
Cu784  O809    1.928   .     S
Cu784  O806    1.959   .     S
H786   N858    1.029   .     S
H796   C817    1.084   .     S
N799   H856    1.029   .     S
N799   N858    1.281   .     S
O803   C948    1.221   .     S
C813   O864    1.292   .     A
C813   C838    1.433   .     S
C813   O859    1.287   .     A
C814   C816    1.463   .     S
C814   O869    1.297   .     A
C814   O867    1.301   .     A
C815   C821    1.396   .     A
C815   C819    1.397   .     A
C815   C840    1.464   .     S
C816   C820    1.397   .     A
C816   C822    1.395   .     A
C817   C826    1.406   .     A
C817   C819    1.394   .     A
C818   C820    1.394   .     A
C818   C827    1.405   .     A
C818   H739    1.084   1_655 S
C819   H853    1.083   .     S
C820   H852    1.083   .     S
C821   C823    1.405   .     A
C821   H851    1.078   .     S
C822   H850    1.080   .     S
C822   C825    1.405   .     A
C823   C828    1.431   .     A
C823   C826    1.415   .     A
C824   O865    1.292   .     A
C824   C839    1.433   .     S
C824   O863    1.287   .     A
C825   C829    1.428   .     A
C825   C827    1.413   .     A
C826   C314    1.388   1_556 S
C828   C835    1.436   .     A
C828   C307    1.434   1_556 S
C829   C834    1.434   .     A
C830   H845    1.086   .     S
C830   C834    1.484   .     S
C830   O870    1.221   .     D
C831   C835    1.486   .     S
C831   O860    1.222   .     D
C831   H846    1.085   .     S
C832   H847    1.085   .     S
C833   H848    1.085   .     S
C833   C1013   1.500   .     S
C833   O1036   1.221   .     S
C834   C836    1.394   .     A
C835   C837    1.398   .     A
C836   H843    1.086   .     S
C837   H849    1.085   .     S
C837   C305    1.388   1_556 S
C838   C1006   1.500   .     S
C838   C1013   1.356   .     S
C840   O866    1.302   .     A
C840   O868    1.297   .     A
Cu841  Cu842   2.694   .     S
Cu841  N858    2.025   .     S
Cu841  O865    1.959   .     S
Cu841  O859    1.969   .     S
Cu841  O869    1.907   .     S
Cu841  O866    1.928   .     S
Cu842  O868    1.907   .     S
Cu842  N857    2.025   .     S
Cu842  O863    1.969   .     S
Cu842  O867    1.928   .     S
Cu842  O864    1.959   .     S
H844   N742    1.029   1_655 S
H854   C701    1.084   1_655 S
N857   H740    1.029   1_655 S
N857   N742    1.281   1_655 S
O861   C1006   1.221   .     S
C871   O922    1.292   .     A
C871   C896    1.433   .     S
C871   O917    1.287   .     A
C872   C874    1.463   .     S
C872   O927    1.297   .     A
C872   O925    1.301   .     A
C873   C879    1.396   .     A
C873   C877    1.397   .     A
C873   C898    1.464   .     S
C874   C878    1.397   .     A
C874   C880    1.395   .     A
C875   C884    1.406   .     A
C875   C877    1.394   .     A
C875   H1028   1.084   1_455 S
C876   C878    1.394   .     A
C876   C885    1.405   .     A
C876   H971    1.084   .     S
C877   H911    1.083   .     S
C878   H910    1.083   .     S
C879   C881    1.405   .     A
C879   H909    1.078   .     S
C880   H908    1.080   .     S
C880   C883    1.405   .     A
C881   C886    1.431   .     A
C881   C884    1.415   .     A
C882   O923    1.292   .     A
C882   C897    1.433   .     S
C882   O921    1.287   .     A
C883   C887    1.428   .     A
C883   C885    1.413   .     A
C884   C372    1.388   1_556 S
C886   C893    1.436   .     A
C886   C365    1.434   1_556 S
C887   C892    1.434   .     A
C888   H903    1.086   .     S
C888   C892    1.484   .     S
C888   O928    1.221   .     D
C889   C893    1.486   .     S
C889   O918    1.222   .     D
C889   H904    1.085   .     S
C890   H905    1.085   .     S
C891   H906    1.085   .     S
C891   C549    1.500   1_565 S
C891   O572    1.221   1_565 S
C892   C894    1.394   .     A
C893   C895    1.398   .     A
C894   H901    1.086   .     S
C895   H907    1.085   .     S
C895   C363    1.388   1_556 S
C896   C542    1.500   1_565 S
C896   C549    1.356   1_565 S
C898   O924    1.302   .     A
C898   O926    1.297   .     A
Cu899  Cu900   2.694   .     S
Cu899  N916    2.025   .     S
Cu899  O923    1.959   .     S
Cu899  O917    1.969   .     S
Cu899  O927    1.907   .     S
Cu899  O924    1.928   .     S
Cu900  O926    1.907   .     S
Cu900  N915    2.025   .     S
Cu900  O921    1.969   .     S
Cu900  O925    1.928   .     S
Cu900  O922    1.959   .     S
H902   N974    1.029   .     S
H912   C933    1.084   .     S
H913   C992    1.084   1_455 S
H914   N1031   1.029   1_455 S
N915   H972    1.029   .     S
N915   N974    1.281   .     S
N916   H1018   1.029   1_455 S
N916   N1031   1.281   1_455 S
O919   C542    1.221   1_565 S
C929   O980    1.292   .     A
C929   C954    1.433   .     S
C929   O975    1.287   .     A
C930   C932    1.463   .     S
C930   O985    1.297   .     A
C930   O983    1.301   .     A
C931   C937    1.396   .     A
C931   C935    1.397   .     A
C931   C956    1.464   .     S
C932   C936    1.397   .     A
C932   C938    1.395   .     A
C933   C942    1.406   .     A
C933   C935    1.394   .     A
C934   C936    1.394   .     A
C934   C943    1.405   .     A
C934   H1029   1.084   .     S
C935   H969    1.083   .     S
C936   H968    1.083   .     S
C937   C939    1.405   .     A
C937   H967    1.078   .     S
C938   H966    1.080   .     S
C938   C941    1.405   .     A
C939   C944    1.431   .     A
C939   C942    1.415   .     A
C940   O981    1.292   .     A
C940   C955    1.433   .     S
C940   O979    1.287   .     A
C941   C945    1.428   .     A
C941   C943    1.413   .     A
C942   C430    1.388   1_556 S
C944   C951    1.436   .     A
C944   C423    1.434   1_556 S
C945   C950    1.434   .     A
C946   H961    1.086   .     S
C946   C950    1.484   .     S
C946   O986    1.221   .     D
C947   C951    1.486   .     S
C947   O976    1.222   .     D
C947   H962    1.085   .     S
C948   H963    1.085   .     S
C949   H964    1.085   .     S
C949   C607    1.500   1_565 S
C949   O630    1.221   1_565 S
C950   C952    1.394   .     A
C951   C953    1.398   .     A
C952   H959    1.086   .     S
C953   H965    1.085   .     S
C953   C421    1.388   1_556 S
C954   C600    1.500   1_565 S
C954   C607    1.356   1_565 S
C956   O982    1.302   .     A
C956   O984    1.297   .     A
Cu957  Cu958   2.694   .     S
Cu957  N974    2.025   .     S
Cu957  O981    1.959   .     S
Cu957  O975    1.969   .     S
Cu957  O985    1.907   .     S
Cu957  O982    1.928   .     S
Cu958  O984    1.907   .     S
Cu958  N973    2.025   .     S
Cu958  O979    1.969   .     S
Cu958  O983    1.928   .     S
Cu958  O980    1.959   .     S
H960   N1032   1.029   .     S
H970   C991    1.084   .     S
N973   H1030   1.029   .     S
N973   N1032   1.281   .     S
O977   C600    1.221   1_565 S
C987   O1038   1.292   .     A
C987   C1012   1.433   .     S
C987   O1033   1.287   .     A
C988   C990    1.463   .     S
C988   O1043   1.297   .     A
C988   O1041   1.301   .     A
C989   C995    1.396   .     A
C989   C993    1.397   .     A
C989   C1014   1.464   .     S
C990   C994    1.397   .     A
C990   C996    1.395   .     A
C991   C1000   1.406   .     A
C991   C993    1.394   .     A
C992   C994    1.394   .     A
C992   C1001   1.405   .     A
C992   H913    1.084   1_655 S
C993   H1027   1.083   .     S
C994   H1026   1.083   .     S
C995   C997    1.405   .     A
C995   H1025   1.078   .     S
C996   H1024   1.080   .     S
C996   C999    1.405   .     A
C997   C1002   1.431   .     A
C997   C1000   1.415   .     A
C998   O1039   1.292   .     A
C998   C1013   1.433   .     S
C998   O1037   1.287   .     A
C999   C1003   1.428   .     A
C999   C1001   1.413   .     A
C1000  C488    1.388   1_556 S
C1002  C1009   1.436   .     A
C1002  C481    1.434   1_556 S
C1003  C1008   1.434   .     A
C1004  H1019   1.086   .     S
C1004  C1008   1.484   .     S
C1004  O1044   1.221   .     D
C1005  C1009   1.486   .     S
C1005  O1034   1.222   .     D
C1005  H1020   1.085   .     S
C1006  H1021   1.085   .     S
C1007  H1022   1.085   .     S
C1007  C665    1.500   1_565 S
C1007  O688    1.221   1_565 S
C1008  C1010   1.394   .     A
C1009  C1011   1.398   .     A
C1010  H1017   1.086   .     S
C1011  H1023   1.085   .     S
C1011  C479    1.388   1_556 S
C1012  C658    1.500   1_565 S
C1012  C665    1.356   1_565 S
C1014  O1040   1.302   .     A
C1014  O1042   1.297   .     A
Cu1015 Cu1016  2.694   .     S
Cu1015 N1032   2.025   .     S
Cu1015 O1039   1.959   .     S
Cu1015 O1033   1.969   .     S
Cu1015 O1043   1.907   .     S
Cu1015 O1040   1.928   .     S
Cu1016 O1042   1.907   .     S
Cu1016 N1031   2.025   .     S
Cu1016 O1037   1.969   .     S
Cu1016 O1041   1.928   .     S
Cu1016 O1038   1.959   .     S
H1018  N916    1.029   1_655 S
H1028  C875    1.084   1_655 S
N1031  H914    1.029   1_655 S
N1031  N916    1.281   1_655 S
O1035  C658    1.221   1_565 S
