data_str_m3_o1_o2_pcu_sym.136
_audit_creation_date              2020-01-03
_audit_creation_method            'Materials Studio'
_symmetry_space_group_name_H-M    'P1'
_symmetry_Int_Tables_number       1
_symmetry_cell_setting            triclinic
loop_
_symmetry_equiv_pos_as_xyz
  x,y,z
_cell_length_a                    31.9091
_cell_length_b                    29.5131
_cell_length_c                    29.9573
_cell_angle_alpha                 90.1402
_cell_angle_beta                  89.5346
_cell_angle_gamma                 91.1169
loop_
_atom_site_label
_atom_site_type_symbol
_atom_site_fract_x
_atom_site_fract_y
_atom_site_fract_z
_atom_site_U_iso_or_equiv
_atom_site_adp_type
_atom_site_occupancy
O1     O     0.10559   0.20487   0.24999   0.00000  Uiso   1.00
O2     O     0.22774   0.12846   0.25000   0.00000  Uiso   1.00
O3     O     0.22774   0.20487   0.25000   0.00000  Uiso   1.00
O4     O     0.10559   0.12846   0.24999   0.00000  Uiso   1.00
N5     N     0.16667   0.28573   0.25000   0.00000  Uiso   1.00
N6     N     0.16667   0.04760   0.25000   0.00000  Uiso   1.00
C7     C     0.08678   0.16619   0.25067   0.00000  Uiso   1.00
C8     C     0.24655   0.16713   0.25032   0.00000  Uiso   1.00
O9     O     0.16666   0.20489   0.18453   0.00000  Uiso   1.00
O10    O     0.16667   0.12845   0.31547   0.00000  Uiso   1.00
O11    O     0.16667   0.20489   0.31547   0.00000  Uiso   1.00
O12    O     0.16666   0.12845   0.18453   0.00000  Uiso   1.00
C13    C     0.16624   0.16661   0.16402   0.00000  Uiso   1.00
C14    C     0.16705   0.16672   0.33614   0.00000  Uiso   1.00
Zn15   Zn    0.16667   0.21771   0.25000   0.00000  Uiso   1.00
Zn16   Zn    0.16667   0.11563   0.25000   0.00000  Uiso   1.00
H17    H     0.20323   0.04305   0.30858   0.00000  Uiso   1.00
H18    H     0.13003   0.29028   0.19149   0.00000  Uiso   1.00
H19    H     0.13016   0.04120   0.19141   0.00000  Uiso   1.00
H20    H     0.20312   0.29214   0.30864   0.00000  Uiso   1.00
C21    C     0.18696   0.02449   0.28256   0.00000  Uiso   1.00
C22    C     0.14633   0.30884   0.21747   0.00000  Uiso   1.00
C23    C     0.14636   0.02347   0.21746   0.00000  Uiso   1.00
C24    C     0.18694   0.30987   0.28257   0.00000  Uiso   1.00
C25    C     0.02169   0.15030   0.21306   0.00000  Uiso   1.00
C26    C     0.31154   0.18219   0.28898   0.00000  Uiso   1.00
C27    C     0.31180   0.15226   0.21214   0.00000  Uiso   1.00
C28    C     0.02158   0.18038   0.28977   0.00000  Uiso   1.00
C29    C     0.19178   0.19625   0.04682   0.00000  Uiso   1.00
C30    C     0.17688   0.12677   0.45312   0.00000  Uiso   1.00
C31    C     0.15264   0.20505   0.45357   0.00000  Uiso   1.00
C32    C     0.13838   0.13555   0.04798   0.00000  Uiso   1.00
C33    C     0.19068   0.19774   0.09296   0.00000  Uiso   1.00
C34    C     0.17675   0.12713   0.40685   0.00000  Uiso   1.00
C35    C     0.15547   0.20577   0.40732   0.00000  Uiso   1.00
C36    C     0.14024   0.13485   0.09413   0.00000  Uiso   1.00
H37    H     0.21043   0.22211   0.11044   0.00000  Uiso   1.00
H38    H     0.18516   0.09675   0.38884   0.00000  Uiso   1.00
H39    H     0.14810   0.23661   0.38971   0.00000  Uiso   1.00
H40    H     0.12113   0.11050   0.11252   0.00000  Uiso   1.00
C41    C     0.16565   0.16646   0.11632   0.00000  Uiso   1.00
C42    C     0.16666   0.16666   0.38413   0.00000  Uiso   1.00
C43    C     0.16472   0.16585   0.02439   0.00000  Uiso   1.00
C44    C     0.16427   0.16571   0.47623   0.00000  Uiso   1.00
C45    C     0.29069   0.16835   0.25005   0.00000  Uiso   1.00
C46    C     0.04263   0.16480   0.25157   0.00000  Uiso   1.00
O47    O     0.21808   0.22573   0.02359   0.00000  Uiso   1.00
C48    C     0.25690   0.20457   0.01654   0.00000  Uiso   1.00
H49    H     0.25268   0.16930   0.00368   0.00000  Uiso   1.00
H50    H     0.27465   0.20371   0.04838   0.00000  Uiso   1.00
C51    C     0.28223   0.23173   0.48202   0.00000  Uiso   1.00
H52    H     0.26355   0.23485   0.45103   0.00000  Uiso   1.00
H53    H     0.28892   0.26626   0.49535   0.00000  Uiso   1.00
C54    C     0.32350   0.20901   0.47065   0.00000  Uiso   1.00
H55    H     0.00983   0.20643   0.00092   0.00000  Uiso   1.00
H56    H     0.00741   0.22945   0.44521   0.00000  Uiso   1.00
H57    H     0.31755   0.17461   0.45672   0.00000  Uiso   1.00
O58    O     0.18705   0.08782   0.47607   0.00000  Uiso   1.00
C59    C     0.23003   0.07804   0.47014   0.00000  Uiso   1.00
H60    H     0.24452   0.07758   0.00369   0.00000  Uiso   1.00
H61    H     0.24821   0.10358   0.44992   0.00000  Uiso   1.00
C62    C     0.23436   0.03113   0.44895   0.00000  Uiso   1.00
H63    H     0.21911   0.00519   0.47085   0.00000  Uiso   1.00
H64    H     0.21844   0.03024   0.41612   0.00000  Uiso   1.00
C65    C     0.28035   0.01949   0.44211   0.00000  Uiso   1.00
H66    H     0.29618   0.04488   0.42007   0.00000  Uiso   1.00
H67    H     0.28264   0.31897   0.42615   0.00000  Uiso   1.00
H68    H     0.29662   0.01885   0.47473   0.00000  Uiso   1.00
O69    O     0.14240   0.24382   0.47715   0.00000  Uiso   1.00
C70    C     0.10059   0.25631   0.46867   0.00000  Uiso   1.00
H71    H     0.08151   0.24877   0.49906   0.00000  Uiso   1.00
H72    H     0.08544   0.23787   0.44027   0.00000  Uiso   1.00
C73    C     0.09972   0.30724   0.45947   0.00000  Uiso   1.00
H74    H     0.11244   0.32608   0.48873   0.00000  Uiso   1.00
H75    H     0.11988   0.31524   0.42996   0.00000  Uiso   1.00
C76    C     0.05528   0.32284   0.45049   0.00000  Uiso   1.00
H77    H     0.04261   0.30592   0.42017   0.00000  Uiso   1.00
H78    H     0.05558   0.02672   0.44505   0.00000  Uiso   1.00
H79    H     0.03451   0.31475   0.47945   0.00000  Uiso   1.00
O80    O     0.11226   0.10522   0.02585   0.00000  Uiso   1.00
C81    C     0.07113   0.12228   0.02414   0.00000  Uiso   1.00
H82    H     0.06311   0.12739   0.48849   0.00000  Uiso   1.00
H83    H     0.06696   0.15557   0.04142   0.00000  Uiso   1.00
C84    C     0.04057   0.08738   0.04448   0.00000  Uiso   1.00
H85    H     0.04379   0.05446   0.02687   0.00000  Uiso   1.00
H86    H     0.04831   0.08226   0.08017   0.00000  Uiso   1.00
C87    C     0.32865   0.10260   0.04105   0.00000  Uiso   1.00
H88    H     0.32449   0.13527   0.05886   0.00000  Uiso   1.00
H89    H     0.30745   0.07669   0.05646   0.00000  Uiso   1.00
H90    H     0.31996   0.10659   0.00549   0.00000  Uiso   1.00
N91    N     0.04445   0.13614   0.17417   0.00000  Uiso   1.00
O92    O     0.06234   0.09692   0.17369   0.00000  Uiso   1.00
O93    O     0.04274   0.15965   0.13758   0.00000  Uiso   1.00
N94    N     0.28865   0.19452   0.32853   0.00000  Uiso   1.00
O95    O     0.26646   0.23102   0.32919   0.00000  Uiso   1.00
O96    O     0.29274   0.17129   0.36504   0.00000  Uiso   1.00
N97    N     0.28942   0.13800   0.17294   0.00000  Uiso   1.00
O98    O     0.26381   0.16543   0.15377   0.00000  Uiso   1.00
O99    O     0.29691   0.09902   0.15445   0.00000  Uiso   1.00
N100   N     0.04410   0.19390   0.32914   0.00000  Uiso   1.00
O101   O     0.07033   0.16641   0.34731   0.00000  Uiso   1.00
O102   O     0.03613   0.23217   0.34883   0.00000  Uiso   1.00
O103   O     0.43892   0.20487   0.24999   0.00000  Uiso   1.00
O104   O     0.56108   0.12846   0.25000   0.00000  Uiso   1.00
O105   O     0.56108   0.20487   0.25000   0.00000  Uiso   1.00
O106   O     0.43892   0.12846   0.24999   0.00000  Uiso   1.00
N107   N     0.50000   0.28573   0.25000   0.00000  Uiso   1.00
N108   N     0.50000   0.04760   0.25000   0.00000  Uiso   1.00
C109   C     0.42011   0.16619   0.25067   0.00000  Uiso   1.00
C110   C     0.57988   0.16713   0.25032   0.00000  Uiso   1.00
O111   O     0.50000   0.20489   0.18453   0.00000  Uiso   1.00
O112   O     0.50000   0.12845   0.31547   0.00000  Uiso   1.00
O113   O     0.50000   0.20489   0.31547   0.00000  Uiso   1.00
O114   O     0.50000   0.12845   0.18453   0.00000  Uiso   1.00
C115   C     0.49958   0.16661   0.16402   0.00000  Uiso   1.00
C116   C     0.50038   0.16672   0.33614   0.00000  Uiso   1.00
Zn117  Zn    0.50000   0.21771   0.25000   0.00000  Uiso   1.00
Zn118  Zn    0.50000   0.11563   0.25000   0.00000  Uiso   1.00
H119   H     0.53656   0.04305   0.30858   0.00000  Uiso   1.00
H120   H     0.46336   0.29028   0.19149   0.00000  Uiso   1.00
H121   H     0.46350   0.04120   0.19141   0.00000  Uiso   1.00
H122   H     0.53645   0.29214   0.30864   0.00000  Uiso   1.00
C123   C     0.52029   0.02449   0.28256   0.00000  Uiso   1.00
C124   C     0.47967   0.30884   0.21747   0.00000  Uiso   1.00
C125   C     0.47969   0.02347   0.21746   0.00000  Uiso   1.00
C126   C     0.52027   0.30987   0.28257   0.00000  Uiso   1.00
C127   C     0.35502   0.15030   0.21306   0.00000  Uiso   1.00
C128   C     0.64488   0.18219   0.28898   0.00000  Uiso   1.00
C129   C     0.64513   0.15226   0.21214   0.00000  Uiso   1.00
C130   C     0.35491   0.18038   0.28977   0.00000  Uiso   1.00
C131   C     0.52511   0.19625   0.04682   0.00000  Uiso   1.00
C132   C     0.51021   0.12677   0.45312   0.00000  Uiso   1.00
C133   C     0.48597   0.20505   0.45357   0.00000  Uiso   1.00
C134   C     0.47171   0.13555   0.04798   0.00000  Uiso   1.00
C135   C     0.52401   0.19774   0.09296   0.00000  Uiso   1.00
C136   C     0.51008   0.12713   0.40685   0.00000  Uiso   1.00
C137   C     0.48881   0.20577   0.40732   0.00000  Uiso   1.00
C138   C     0.47357   0.13485   0.09413   0.00000  Uiso   1.00
H139   H     0.54377   0.22211   0.11044   0.00000  Uiso   1.00
H140   H     0.51850   0.09675   0.38884   0.00000  Uiso   1.00
H141   H     0.48143   0.23661   0.38971   0.00000  Uiso   1.00
H142   H     0.45446   0.11050   0.11252   0.00000  Uiso   1.00
C143   C     0.49899   0.16646   0.11632   0.00000  Uiso   1.00
C144   C     0.50000   0.16666   0.38413   0.00000  Uiso   1.00
C145   C     0.49805   0.16585   0.02439   0.00000  Uiso   1.00
C146   C     0.49760   0.16571   0.47623   0.00000  Uiso   1.00
C147   C     0.62402   0.16835   0.25005   0.00000  Uiso   1.00
C148   C     0.37596   0.16480   0.25157   0.00000  Uiso   1.00
O149   O     0.55141   0.22573   0.02359   0.00000  Uiso   1.00
C150   C     0.59023   0.20457   0.01654   0.00000  Uiso   1.00
H151   H     0.58602   0.16930   0.00368   0.00000  Uiso   1.00
H152   H     0.60798   0.20371   0.04838   0.00000  Uiso   1.00
C153   C     0.61556   0.23173   0.48202   0.00000  Uiso   1.00
H154   H     0.59689   0.23485   0.45103   0.00000  Uiso   1.00
H155   H     0.62225   0.26626   0.49535   0.00000  Uiso   1.00
C156   C     0.65683   0.20901   0.47065   0.00000  Uiso   1.00
H157   H     0.34317   0.20643   0.00092   0.00000  Uiso   1.00
H158   H     0.34074   0.22945   0.44521   0.00000  Uiso   1.00
H159   H     0.65088   0.17461   0.45672   0.00000  Uiso   1.00
O160   O     0.52038   0.08782   0.47607   0.00000  Uiso   1.00
C161   C     0.56336   0.07804   0.47014   0.00000  Uiso   1.00
H162   H     0.57785   0.07758   0.00369   0.00000  Uiso   1.00
H163   H     0.58154   0.10358   0.44992   0.00000  Uiso   1.00
C164   C     0.56769   0.03113   0.44895   0.00000  Uiso   1.00
H165   H     0.55244   0.00519   0.47085   0.00000  Uiso   1.00
H166   H     0.55177   0.03024   0.41612   0.00000  Uiso   1.00
C167   C     0.61369   0.01949   0.44211   0.00000  Uiso   1.00
H168   H     0.62951   0.04488   0.42007   0.00000  Uiso   1.00
H169   H     0.61597   0.31897   0.42615   0.00000  Uiso   1.00
H170   H     0.62995   0.01885   0.47473   0.00000  Uiso   1.00
O171   O     0.47573   0.24382   0.47715   0.00000  Uiso   1.00
C172   C     0.43392   0.25631   0.46867   0.00000  Uiso   1.00
H173   H     0.41484   0.24877   0.49906   0.00000  Uiso   1.00
H174   H     0.41877   0.23787   0.44027   0.00000  Uiso   1.00
C175   C     0.43306   0.30724   0.45947   0.00000  Uiso   1.00
H176   H     0.44578   0.32608   0.48873   0.00000  Uiso   1.00
H177   H     0.45321   0.31524   0.42996   0.00000  Uiso   1.00
C178   C     0.38861   0.32284   0.45049   0.00000  Uiso   1.00
H179   H     0.37594   0.30592   0.42017   0.00000  Uiso   1.00
H180   H     0.38891   0.02672   0.44505   0.00000  Uiso   1.00
H181   H     0.36784   0.31475   0.47945   0.00000  Uiso   1.00
O182   O     0.44560   0.10522   0.02585   0.00000  Uiso   1.00
C183   C     0.40446   0.12228   0.02414   0.00000  Uiso   1.00
H184   H     0.39645   0.12739   0.48849   0.00000  Uiso   1.00
H185   H     0.40029   0.15557   0.04142   0.00000  Uiso   1.00
C186   C     0.37390   0.08738   0.04448   0.00000  Uiso   1.00
H187   H     0.37712   0.05446   0.02687   0.00000  Uiso   1.00
H188   H     0.38165   0.08226   0.08017   0.00000  Uiso   1.00
C189   C     0.66199   0.10260   0.04105   0.00000  Uiso   1.00
H190   H     0.65783   0.13527   0.05886   0.00000  Uiso   1.00
H191   H     0.64078   0.07669   0.05646   0.00000  Uiso   1.00
H192   H     0.65330   0.10659   0.00549   0.00000  Uiso   1.00
N193   N     0.37779   0.13614   0.17417   0.00000  Uiso   1.00
O194   O     0.39567   0.09692   0.17369   0.00000  Uiso   1.00
O195   O     0.37608   0.15965   0.13758   0.00000  Uiso   1.00
N196   N     0.62198   0.19452   0.32853   0.00000  Uiso   1.00
O197   O     0.59979   0.23102   0.32919   0.00000  Uiso   1.00
O198   O     0.62607   0.17129   0.36504   0.00000  Uiso   1.00
N199   N     0.62276   0.13800   0.17294   0.00000  Uiso   1.00
O200   O     0.59714   0.16543   0.15377   0.00000  Uiso   1.00
O201   O     0.63024   0.09902   0.15445   0.00000  Uiso   1.00
N202   N     0.37744   0.19390   0.32914   0.00000  Uiso   1.00
O203   O     0.40366   0.16641   0.34731   0.00000  Uiso   1.00
O204   O     0.36946   0.23217   0.34883   0.00000  Uiso   1.00
O205   O     0.77226   0.20487   0.24999   0.00000  Uiso   1.00
O206   O     0.89441   0.12846   0.25000   0.00000  Uiso   1.00
O207   O     0.89441   0.20487   0.25000   0.00000  Uiso   1.00
O208   O     0.77226   0.12846   0.24999   0.00000  Uiso   1.00
N209   N     0.83333   0.28573   0.25000   0.00000  Uiso   1.00
N210   N     0.83333   0.04760   0.25000   0.00000  Uiso   1.00
C211   C     0.75345   0.16619   0.25067   0.00000  Uiso   1.00
C212   C     0.91322   0.16713   0.25032   0.00000  Uiso   1.00
O213   O     0.83333   0.20489   0.18453   0.00000  Uiso   1.00
O214   O     0.83334   0.12845   0.31547   0.00000  Uiso   1.00
O215   O     0.83334   0.20489   0.31547   0.00000  Uiso   1.00
O216   O     0.83333   0.12845   0.18453   0.00000  Uiso   1.00
C217   C     0.83291   0.16661   0.16402   0.00000  Uiso   1.00
C218   C     0.83372   0.16672   0.33614   0.00000  Uiso   1.00
Zn219  Zn    0.83333   0.21771   0.25000   0.00000  Uiso   1.00
Zn220  Zn    0.83333   0.11563   0.25000   0.00000  Uiso   1.00
H221   H     0.86990   0.04305   0.30858   0.00000  Uiso   1.00
H222   H     0.79670   0.29028   0.19149   0.00000  Uiso   1.00
H223   H     0.79683   0.04120   0.19141   0.00000  Uiso   1.00
H224   H     0.86978   0.29214   0.30864   0.00000  Uiso   1.00
C225   C     0.85363   0.02449   0.28256   0.00000  Uiso   1.00
C226   C     0.81300   0.30884   0.21747   0.00000  Uiso   1.00
C227   C     0.81303   0.02347   0.21746   0.00000  Uiso   1.00
C228   C     0.85361   0.30987   0.28257   0.00000  Uiso   1.00
C229   C     0.68835   0.15030   0.21306   0.00000  Uiso   1.00
C230   C     0.97821   0.18219   0.28898   0.00000  Uiso   1.00
C231   C     0.97846   0.15226   0.21214   0.00000  Uiso   1.00
C232   C     0.68824   0.18038   0.28977   0.00000  Uiso   1.00
C233   C     0.85844   0.19625   0.04682   0.00000  Uiso   1.00
C234   C     0.84354   0.12677   0.45312   0.00000  Uiso   1.00
C235   C     0.81931   0.20505   0.45357   0.00000  Uiso   1.00
C236   C     0.80505   0.13555   0.04798   0.00000  Uiso   1.00
C237   C     0.85735   0.19774   0.09296   0.00000  Uiso   1.00
C238   C     0.84341   0.12713   0.40685   0.00000  Uiso   1.00
C239   C     0.82214   0.20577   0.40732   0.00000  Uiso   1.00
C240   C     0.80691   0.13485   0.09413   0.00000  Uiso   1.00
H241   H     0.87710   0.22211   0.11044   0.00000  Uiso   1.00
H242   H     0.85183   0.09675   0.38884   0.00000  Uiso   1.00
H243   H     0.81477   0.23661   0.38971   0.00000  Uiso   1.00
H244   H     0.78779   0.11050   0.11252   0.00000  Uiso   1.00
C245   C     0.83232   0.16646   0.11632   0.00000  Uiso   1.00
C246   C     0.83333   0.16666   0.38413   0.00000  Uiso   1.00
C247   C     0.83138   0.16585   0.02439   0.00000  Uiso   1.00
C248   C     0.83094   0.16571   0.47623   0.00000  Uiso   1.00
C249   C     0.95735   0.16835   0.25005   0.00000  Uiso   1.00
C250   C     0.70930   0.16480   0.25157   0.00000  Uiso   1.00
O251   O     0.88475   0.22573   0.02359   0.00000  Uiso   1.00
C252   C     0.92357   0.20457   0.01654   0.00000  Uiso   1.00
H253   H     0.91935   0.16930   0.00368   0.00000  Uiso   1.00
H254   H     0.94131   0.20371   0.04838   0.00000  Uiso   1.00
C255   C     0.94889   0.23173   0.48202   0.00000  Uiso   1.00
H256   H     0.93022   0.23485   0.45103   0.00000  Uiso   1.00
H257   H     0.95559   0.26626   0.49535   0.00000  Uiso   1.00
C258   C     0.99017   0.20901   0.47065   0.00000  Uiso   1.00
H259   H     0.67650   0.20643   0.00092   0.00000  Uiso   1.00
H260   H     0.67408   0.22945   0.44521   0.00000  Uiso   1.00
H261   H     0.98422   0.17461   0.45672   0.00000  Uiso   1.00
O262   O     0.85372   0.08782   0.47607   0.00000  Uiso   1.00
C263   C     0.89670   0.07804   0.47014   0.00000  Uiso   1.00
H264   H     0.91119   0.07758   0.00369   0.00000  Uiso   1.00
H265   H     0.91488   0.10358   0.44992   0.00000  Uiso   1.00
C266   C     0.90103   0.03113   0.44895   0.00000  Uiso   1.00
H267   H     0.88577   0.00519   0.47085   0.00000  Uiso   1.00
H268   H     0.88510   0.03024   0.41612   0.00000  Uiso   1.00
C269   C     0.94702   0.01949   0.44211   0.00000  Uiso   1.00
H270   H     0.96284   0.04488   0.42007   0.00000  Uiso   1.00
H271   H     0.94930   0.31897   0.42615   0.00000  Uiso   1.00
H272   H     0.96328   0.01885   0.47473   0.00000  Uiso   1.00
O273   O     0.80907   0.24382   0.47715   0.00000  Uiso   1.00
C274   C     0.76725   0.25631   0.46867   0.00000  Uiso   1.00
H275   H     0.74818   0.24877   0.49906   0.00000  Uiso   1.00
H276   H     0.75211   0.23787   0.44027   0.00000  Uiso   1.00
C277   C     0.76639   0.30724   0.45947   0.00000  Uiso   1.00
H278   H     0.77911   0.32608   0.48873   0.00000  Uiso   1.00
H279   H     0.78655   0.31524   0.42996   0.00000  Uiso   1.00
C280   C     0.72194   0.32284   0.45049   0.00000  Uiso   1.00
H281   H     0.70927   0.30592   0.42017   0.00000  Uiso   1.00
H282   H     0.72225   0.02672   0.44505   0.00000  Uiso   1.00
H283   H     0.70118   0.31475   0.47945   0.00000  Uiso   1.00
O284   O     0.77893   0.10522   0.02585   0.00000  Uiso   1.00
C285   C     0.73780   0.12228   0.02414   0.00000  Uiso   1.00
H286   H     0.72978   0.12739   0.48849   0.00000  Uiso   1.00
H287   H     0.73362   0.15557   0.04142   0.00000  Uiso   1.00
C288   C     0.70724   0.08738   0.04448   0.00000  Uiso   1.00
H289   H     0.71046   0.05446   0.02687   0.00000  Uiso   1.00
H290   H     0.71498   0.08226   0.08017   0.00000  Uiso   1.00
C291   C     0.99532   0.10260   0.04105   0.00000  Uiso   1.00
H292   H     0.99116   0.13527   0.05886   0.00000  Uiso   1.00
H293   H     0.97411   0.07669   0.05646   0.00000  Uiso   1.00
H294   H     0.98663   0.10659   0.00549   0.00000  Uiso   1.00
N295   N     0.71112   0.13614   0.17417   0.00000  Uiso   1.00
O296   O     0.72901   0.09692   0.17369   0.00000  Uiso   1.00
O297   O     0.70941   0.15965   0.13758   0.00000  Uiso   1.00
N298   N     0.95531   0.19452   0.32853   0.00000  Uiso   1.00
O299   O     0.93313   0.23102   0.32919   0.00000  Uiso   1.00
O300   O     0.95940   0.17129   0.36504   0.00000  Uiso   1.00
N301   N     0.95609   0.13800   0.17294   0.00000  Uiso   1.00
O302   O     0.93047   0.16543   0.15377   0.00000  Uiso   1.00
O303   O     0.96358   0.09902   0.15445   0.00000  Uiso   1.00
N304   N     0.71077   0.19390   0.32914   0.00000  Uiso   1.00
O305   O     0.73700   0.16641   0.34731   0.00000  Uiso   1.00
O306   O     0.70279   0.23217   0.34883   0.00000  Uiso   1.00
O307   O     0.10559   0.53821   0.24999   0.00000  Uiso   1.00
O308   O     0.22774   0.46179   0.25000   0.00000  Uiso   1.00
O309   O     0.22774   0.53821   0.25000   0.00000  Uiso   1.00
O310   O     0.10559   0.46179   0.24999   0.00000  Uiso   1.00
N311   N     0.16667   0.61907   0.25000   0.00000  Uiso   1.00
N312   N     0.16667   0.38093   0.25000   0.00000  Uiso   1.00
C313   C     0.08678   0.49952   0.25067   0.00000  Uiso   1.00
C314   C     0.24655   0.50047   0.25032   0.00000  Uiso   1.00
O315   O     0.16666   0.53822   0.18453   0.00000  Uiso   1.00
O316   O     0.16667   0.46178   0.31547   0.00000  Uiso   1.00
O317   O     0.16667   0.53822   0.31547   0.00000  Uiso   1.00
O318   O     0.16666   0.46178   0.18453   0.00000  Uiso   1.00
C319   C     0.16624   0.49994   0.16402   0.00000  Uiso   1.00
C320   C     0.16705   0.50005   0.33614   0.00000  Uiso   1.00
Zn321  Zn    0.16667   0.55104   0.25000   0.00000  Uiso   1.00
Zn322  Zn    0.16667   0.44896   0.25000   0.00000  Uiso   1.00
H323   H     0.20323   0.37639   0.30858   0.00000  Uiso   1.00
H324   H     0.13003   0.62361   0.19149   0.00000  Uiso   1.00
H325   H     0.13016   0.37454   0.19141   0.00000  Uiso   1.00
H326   H     0.20312   0.62548   0.30864   0.00000  Uiso   1.00
C327   C     0.18696   0.35783   0.28256   0.00000  Uiso   1.00
C328   C     0.14633   0.64218   0.21747   0.00000  Uiso   1.00
C329   C     0.14636   0.35680   0.21746   0.00000  Uiso   1.00
C330   C     0.18694   0.64320   0.28257   0.00000  Uiso   1.00
C331   C     0.02169   0.48363   0.21306   0.00000  Uiso   1.00
C332   C     0.31154   0.51552   0.28898   0.00000  Uiso   1.00
C333   C     0.31180   0.48559   0.21214   0.00000  Uiso   1.00
C334   C     0.02158   0.51371   0.28977   0.00000  Uiso   1.00
C335   C     0.19178   0.52958   0.04682   0.00000  Uiso   1.00
C336   C     0.17688   0.46011   0.45312   0.00000  Uiso   1.00
C337   C     0.15264   0.53839   0.45357   0.00000  Uiso   1.00
C338   C     0.13838   0.46888   0.04798   0.00000  Uiso   1.00
C339   C     0.19068   0.53107   0.09296   0.00000  Uiso   1.00
C340   C     0.17675   0.46046   0.40685   0.00000  Uiso   1.00
C341   C     0.15547   0.53910   0.40732   0.00000  Uiso   1.00
C342   C     0.14024   0.46818   0.09413   0.00000  Uiso   1.00
H343   H     0.21043   0.55545   0.11044   0.00000  Uiso   1.00
H344   H     0.18516   0.43008   0.38884   0.00000  Uiso   1.00
H345   H     0.14810   0.56994   0.38971   0.00000  Uiso   1.00
H346   H     0.12113   0.44383   0.11252   0.00000  Uiso   1.00
C347   C     0.16565   0.49979   0.11632   0.00000  Uiso   1.00
C348   C     0.16666   0.49999   0.38413   0.00000  Uiso   1.00
C349   C     0.16472   0.49918   0.02439   0.00000  Uiso   1.00
C350   C     0.16427   0.49904   0.47623   0.00000  Uiso   1.00
C351   C     0.29069   0.50169   0.25005   0.00000  Uiso   1.00
C352   C     0.04263   0.49813   0.25157   0.00000  Uiso   1.00
O353   O     0.21808   0.55906   0.02359   0.00000  Uiso   1.00
C354   C     0.25690   0.53790   0.01654   0.00000  Uiso   1.00
H355   H     0.25268   0.50263   0.00368   0.00000  Uiso   1.00
H356   H     0.27465   0.53705   0.04838   0.00000  Uiso   1.00
C357   C     0.28223   0.56507   0.48202   0.00000  Uiso   1.00
H358   H     0.26355   0.56819   0.45103   0.00000  Uiso   1.00
H359   H     0.28892   0.59959   0.49535   0.00000  Uiso   1.00
C360   C     0.32350   0.54235   0.47065   0.00000  Uiso   1.00
H361   H     0.00983   0.53976   0.00092   0.00000  Uiso   1.00
H362   H     0.00741   0.56279   0.44521   0.00000  Uiso   1.00
H363   H     0.31755   0.50795   0.45672   0.00000  Uiso   1.00
O364   O     0.18705   0.42115   0.47607   0.00000  Uiso   1.00
C365   C     0.23003   0.41137   0.47014   0.00000  Uiso   1.00
H366   H     0.24452   0.41091   0.00369   0.00000  Uiso   1.00
H367   H     0.24821   0.43691   0.44992   0.00000  Uiso   1.00
C368   C     0.23436   0.36446   0.44895   0.00000  Uiso   1.00
H369   H     0.21911   0.33852   0.47085   0.00000  Uiso   1.00
H370   H     0.21844   0.36357   0.41612   0.00000  Uiso   1.00
C371   C     0.28035   0.35283   0.44211   0.00000  Uiso   1.00
H372   H     0.29618   0.37821   0.42007   0.00000  Uiso   1.00
H373   H     0.28264   0.65231   0.42615   0.00000  Uiso   1.00
H374   H     0.29662   0.35218   0.47473   0.00000  Uiso   1.00
O375   O     0.14240   0.57715   0.47715   0.00000  Uiso   1.00
C376   C     0.10059   0.58965   0.46867   0.00000  Uiso   1.00
H377   H     0.08151   0.58210   0.49906   0.00000  Uiso   1.00
H378   H     0.08544   0.57120   0.44027   0.00000  Uiso   1.00
C379   C     0.09972   0.64057   0.45947   0.00000  Uiso   1.00
H380   H     0.11244   0.65941   0.48873   0.00000  Uiso   1.00
H381   H     0.11988   0.64858   0.42996   0.00000  Uiso   1.00
C382   C     0.05528   0.65617   0.45049   0.00000  Uiso   1.00
H383   H     0.04261   0.63925   0.42017   0.00000  Uiso   1.00
H384   H     0.05558   0.36006   0.44505   0.00000  Uiso   1.00
H385   H     0.03451   0.64809   0.47945   0.00000  Uiso   1.00
O386   O     0.11226   0.43855   0.02585   0.00000  Uiso   1.00
C387   C     0.07113   0.45561   0.02414   0.00000  Uiso   1.00
H388   H     0.06311   0.46072   0.48849   0.00000  Uiso   1.00
H389   H     0.06696   0.48890   0.04142   0.00000  Uiso   1.00
C390   C     0.04057   0.42072   0.04448   0.00000  Uiso   1.00
H391   H     0.04379   0.38780   0.02687   0.00000  Uiso   1.00
H392   H     0.04831   0.41559   0.08017   0.00000  Uiso   1.00
C393   C     0.32865   0.43594   0.04105   0.00000  Uiso   1.00
H394   H     0.32449   0.46861   0.05886   0.00000  Uiso   1.00
H395   H     0.30745   0.41003   0.05646   0.00000  Uiso   1.00
H396   H     0.31996   0.43992   0.00549   0.00000  Uiso   1.00
N397   N     0.04445   0.46947   0.17417   0.00000  Uiso   1.00
O398   O     0.06234   0.43026   0.17369   0.00000  Uiso   1.00
O399   O     0.04274   0.49299   0.13758   0.00000  Uiso   1.00
N400   N     0.28865   0.52786   0.32853   0.00000  Uiso   1.00
O401   O     0.26646   0.56435   0.32919   0.00000  Uiso   1.00
O402   O     0.29274   0.50463   0.36504   0.00000  Uiso   1.00
N403   N     0.28942   0.47134   0.17294   0.00000  Uiso   1.00
O404   O     0.26381   0.49876   0.15377   0.00000  Uiso   1.00
O405   O     0.29691   0.43235   0.15445   0.00000  Uiso   1.00
N406   N     0.04410   0.52724   0.32914   0.00000  Uiso   1.00
O407   O     0.07033   0.49974   0.34731   0.00000  Uiso   1.00
O408   O     0.03613   0.56550   0.34883   0.00000  Uiso   1.00
O409   O     0.43892   0.53821   0.24999   0.00000  Uiso   1.00
O410   O     0.56108   0.46179   0.25000   0.00000  Uiso   1.00
O411   O     0.56108   0.53821   0.25000   0.00000  Uiso   1.00
O412   O     0.43892   0.46179   0.24999   0.00000  Uiso   1.00
N413   N     0.50000   0.61907   0.25000   0.00000  Uiso   1.00
N414   N     0.50000   0.38093   0.25000   0.00000  Uiso   1.00
C415   C     0.42011   0.49952   0.25067   0.00000  Uiso   1.00
C416   C     0.57988   0.50047   0.25032   0.00000  Uiso   1.00
O417   O     0.50000   0.53822   0.18453   0.00000  Uiso   1.00
O418   O     0.50000   0.46178   0.31547   0.00000  Uiso   1.00
O419   O     0.50000   0.53822   0.31547   0.00000  Uiso   1.00
O420   O     0.50000   0.46178   0.18453   0.00000  Uiso   1.00
C421   C     0.49958   0.49994   0.16402   0.00000  Uiso   1.00
C422   C     0.50038   0.50005   0.33614   0.00000  Uiso   1.00
Zn423  Zn    0.50000   0.55104   0.25000   0.00000  Uiso   1.00
Zn424  Zn    0.50000   0.44896   0.25000   0.00000  Uiso   1.00
H425   H     0.53656   0.37639   0.30858   0.00000  Uiso   1.00
H426   H     0.46336   0.62361   0.19149   0.00000  Uiso   1.00
H427   H     0.46350   0.37454   0.19141   0.00000  Uiso   1.00
H428   H     0.53645   0.62548   0.30864   0.00000  Uiso   1.00
C429   C     0.52029   0.35783   0.28256   0.00000  Uiso   1.00
C430   C     0.47967   0.64218   0.21747   0.00000  Uiso   1.00
C431   C     0.47969   0.35680   0.21746   0.00000  Uiso   1.00
C432   C     0.52027   0.64320   0.28257   0.00000  Uiso   1.00
C433   C     0.35502   0.48363   0.21306   0.00000  Uiso   1.00
C434   C     0.64488   0.51552   0.28898   0.00000  Uiso   1.00
C435   C     0.64513   0.48559   0.21214   0.00000  Uiso   1.00
C436   C     0.35491   0.51371   0.28977   0.00000  Uiso   1.00
C437   C     0.52511   0.52958   0.04682   0.00000  Uiso   1.00
C438   C     0.51021   0.46011   0.45312   0.00000  Uiso   1.00
C439   C     0.48597   0.53839   0.45357   0.00000  Uiso   1.00
C440   C     0.47171   0.46888   0.04798   0.00000  Uiso   1.00
C441   C     0.52401   0.53107   0.09296   0.00000  Uiso   1.00
C442   C     0.51008   0.46046   0.40685   0.00000  Uiso   1.00
C443   C     0.48881   0.53910   0.40732   0.00000  Uiso   1.00
C444   C     0.47357   0.46818   0.09413   0.00000  Uiso   1.00
H445   H     0.54377   0.55545   0.11044   0.00000  Uiso   1.00
H446   H     0.51850   0.43008   0.38884   0.00000  Uiso   1.00
H447   H     0.48143   0.56994   0.38971   0.00000  Uiso   1.00
H448   H     0.45446   0.44383   0.11252   0.00000  Uiso   1.00
C449   C     0.49899   0.49979   0.11632   0.00000  Uiso   1.00
C450   C     0.50000   0.49999   0.38413   0.00000  Uiso   1.00
C451   C     0.49805   0.49918   0.02439   0.00000  Uiso   1.00
C452   C     0.49760   0.49904   0.47623   0.00000  Uiso   1.00
C453   C     0.62402   0.50169   0.25005   0.00000  Uiso   1.00
C454   C     0.37596   0.49813   0.25157   0.00000  Uiso   1.00
O455   O     0.55141   0.55906   0.02359   0.00000  Uiso   1.00
C456   C     0.59023   0.53790   0.01654   0.00000  Uiso   1.00
H457   H     0.58602   0.50263   0.00368   0.00000  Uiso   1.00
H458   H     0.60798   0.53705   0.04838   0.00000  Uiso   1.00
C459   C     0.61556   0.56507   0.48202   0.00000  Uiso   1.00
H460   H     0.59689   0.56819   0.45103   0.00000  Uiso   1.00
H461   H     0.62225   0.59959   0.49535   0.00000  Uiso   1.00
C462   C     0.65683   0.54235   0.47065   0.00000  Uiso   1.00
H463   H     0.34317   0.53976   0.00092   0.00000  Uiso   1.00
H464   H     0.34074   0.56279   0.44521   0.00000  Uiso   1.00
H465   H     0.65088   0.50795   0.45672   0.00000  Uiso   1.00
O466   O     0.52038   0.42115   0.47607   0.00000  Uiso   1.00
C467   C     0.56336   0.41137   0.47014   0.00000  Uiso   1.00
H468   H     0.57785   0.41091   0.00369   0.00000  Uiso   1.00
H469   H     0.58154   0.43691   0.44992   0.00000  Uiso   1.00
C470   C     0.56769   0.36446   0.44895   0.00000  Uiso   1.00
H471   H     0.55244   0.33852   0.47085   0.00000  Uiso   1.00
H472   H     0.55177   0.36357   0.41612   0.00000  Uiso   1.00
C473   C     0.61369   0.35283   0.44211   0.00000  Uiso   1.00
H474   H     0.62951   0.37821   0.42007   0.00000  Uiso   1.00
H475   H     0.61597   0.65231   0.42615   0.00000  Uiso   1.00
H476   H     0.62995   0.35218   0.47473   0.00000  Uiso   1.00
O477   O     0.47573   0.57715   0.47715   0.00000  Uiso   1.00
C478   C     0.43392   0.58965   0.46867   0.00000  Uiso   1.00
H479   H     0.41484   0.58210   0.49906   0.00000  Uiso   1.00
H480   H     0.41877   0.57120   0.44027   0.00000  Uiso   1.00
C481   C     0.43306   0.64057   0.45947   0.00000  Uiso   1.00
H482   H     0.44578   0.65941   0.48873   0.00000  Uiso   1.00
H483   H     0.45321   0.64858   0.42996   0.00000  Uiso   1.00
C484   C     0.38861   0.65617   0.45049   0.00000  Uiso   1.00
H485   H     0.37594   0.63925   0.42017   0.00000  Uiso   1.00
H486   H     0.38891   0.36006   0.44505   0.00000  Uiso   1.00
H487   H     0.36784   0.64809   0.47945   0.00000  Uiso   1.00
O488   O     0.44560   0.43855   0.02585   0.00000  Uiso   1.00
C489   C     0.40446   0.45561   0.02414   0.00000  Uiso   1.00
H490   H     0.39645   0.46072   0.48849   0.00000  Uiso   1.00
H491   H     0.40029   0.48890   0.04142   0.00000  Uiso   1.00
C492   C     0.37390   0.42072   0.04448   0.00000  Uiso   1.00
H493   H     0.37712   0.38780   0.02687   0.00000  Uiso   1.00
H494   H     0.38165   0.41559   0.08017   0.00000  Uiso   1.00
C495   C     0.66199   0.43594   0.04105   0.00000  Uiso   1.00
H496   H     0.65783   0.46861   0.05886   0.00000  Uiso   1.00
H497   H     0.64078   0.41003   0.05646   0.00000  Uiso   1.00
H498   H     0.65330   0.43992   0.00549   0.00000  Uiso   1.00
N499   N     0.37779   0.46947   0.17417   0.00000  Uiso   1.00
O500   O     0.39567   0.43026   0.17369   0.00000  Uiso   1.00
O501   O     0.37608   0.49299   0.13758   0.00000  Uiso   1.00
N502   N     0.62198   0.52786   0.32853   0.00000  Uiso   1.00
O503   O     0.59979   0.56435   0.32919   0.00000  Uiso   1.00
O504   O     0.62607   0.50463   0.36504   0.00000  Uiso   1.00
N505   N     0.62276   0.47134   0.17294   0.00000  Uiso   1.00
O506   O     0.59714   0.49876   0.15377   0.00000  Uiso   1.00
O507   O     0.63024   0.43235   0.15445   0.00000  Uiso   1.00
N508   N     0.37744   0.52724   0.32914   0.00000  Uiso   1.00
O509   O     0.40366   0.49974   0.34731   0.00000  Uiso   1.00
O510   O     0.36946   0.56550   0.34883   0.00000  Uiso   1.00
O511   O     0.77226   0.53821   0.24999   0.00000  Uiso   1.00
O512   O     0.89441   0.46179   0.25000   0.00000  Uiso   1.00
O513   O     0.89441   0.53821   0.25000   0.00000  Uiso   1.00
O514   O     0.77226   0.46179   0.24999   0.00000  Uiso   1.00
N515   N     0.83333   0.61907   0.25000   0.00000  Uiso   1.00
N516   N     0.83333   0.38093   0.25000   0.00000  Uiso   1.00
C517   C     0.75345   0.49952   0.25067   0.00000  Uiso   1.00
C518   C     0.91322   0.50047   0.25032   0.00000  Uiso   1.00
O519   O     0.83333   0.53822   0.18453   0.00000  Uiso   1.00
O520   O     0.83334   0.46178   0.31547   0.00000  Uiso   1.00
O521   O     0.83334   0.53822   0.31547   0.00000  Uiso   1.00
O522   O     0.83333   0.46178   0.18453   0.00000  Uiso   1.00
C523   C     0.83291   0.49994   0.16402   0.00000  Uiso   1.00
C524   C     0.83372   0.50005   0.33614   0.00000  Uiso   1.00
Zn525  Zn    0.83333   0.55104   0.25000   0.00000  Uiso   1.00
Zn526  Zn    0.83333   0.44896   0.25000   0.00000  Uiso   1.00
H527   H     0.86990   0.37639   0.30858   0.00000  Uiso   1.00
H528   H     0.79670   0.62361   0.19149   0.00000  Uiso   1.00
H529   H     0.79683   0.37454   0.19141   0.00000  Uiso   1.00
H530   H     0.86978   0.62548   0.30864   0.00000  Uiso   1.00
C531   C     0.85363   0.35783   0.28256   0.00000  Uiso   1.00
C532   C     0.81300   0.64218   0.21747   0.00000  Uiso   1.00
C533   C     0.81303   0.35680   0.21746   0.00000  Uiso   1.00
C534   C     0.85361   0.64320   0.28257   0.00000  Uiso   1.00
C535   C     0.68835   0.48363   0.21306   0.00000  Uiso   1.00
C536   C     0.97821   0.51552   0.28898   0.00000  Uiso   1.00
C537   C     0.97846   0.48559   0.21214   0.00000  Uiso   1.00
C538   C     0.68824   0.51371   0.28977   0.00000  Uiso   1.00
C539   C     0.85844   0.52958   0.04682   0.00000  Uiso   1.00
C540   C     0.84354   0.46011   0.45312   0.00000  Uiso   1.00
C541   C     0.81931   0.53839   0.45357   0.00000  Uiso   1.00
C542   C     0.80505   0.46888   0.04798   0.00000  Uiso   1.00
C543   C     0.85735   0.53107   0.09296   0.00000  Uiso   1.00
C544   C     0.84341   0.46046   0.40685   0.00000  Uiso   1.00
C545   C     0.82214   0.53910   0.40732   0.00000  Uiso   1.00
C546   C     0.80691   0.46818   0.09413   0.00000  Uiso   1.00
H547   H     0.87710   0.55545   0.11044   0.00000  Uiso   1.00
H548   H     0.85183   0.43008   0.38884   0.00000  Uiso   1.00
H549   H     0.81477   0.56994   0.38971   0.00000  Uiso   1.00
H550   H     0.78779   0.44383   0.11252   0.00000  Uiso   1.00
C551   C     0.83232   0.49979   0.11632   0.00000  Uiso   1.00
C552   C     0.83333   0.49999   0.38413   0.00000  Uiso   1.00
C553   C     0.83138   0.49918   0.02439   0.00000  Uiso   1.00
C554   C     0.83094   0.49904   0.47623   0.00000  Uiso   1.00
C555   C     0.95735   0.50169   0.25005   0.00000  Uiso   1.00
C556   C     0.70930   0.49813   0.25157   0.00000  Uiso   1.00
O557   O     0.88475   0.55906   0.02359   0.00000  Uiso   1.00
C558   C     0.92357   0.53790   0.01654   0.00000  Uiso   1.00
H559   H     0.91935   0.50263   0.00368   0.00000  Uiso   1.00
H560   H     0.94131   0.53705   0.04838   0.00000  Uiso   1.00
C561   C     0.94889   0.56507   0.48202   0.00000  Uiso   1.00
H562   H     0.93022   0.56819   0.45103   0.00000  Uiso   1.00
H563   H     0.95559   0.59959   0.49535   0.00000  Uiso   1.00
C564   C     0.99017   0.54235   0.47065   0.00000  Uiso   1.00
H565   H     0.67650   0.53976   0.00092   0.00000  Uiso   1.00
H566   H     0.67408   0.56279   0.44521   0.00000  Uiso   1.00
H567   H     0.98422   0.50795   0.45672   0.00000  Uiso   1.00
O568   O     0.85372   0.42115   0.47607   0.00000  Uiso   1.00
C569   C     0.89670   0.41137   0.47014   0.00000  Uiso   1.00
H570   H     0.91119   0.41091   0.00369   0.00000  Uiso   1.00
H571   H     0.91488   0.43691   0.44992   0.00000  Uiso   1.00
C572   C     0.90103   0.36446   0.44895   0.00000  Uiso   1.00
H573   H     0.88577   0.33852   0.47085   0.00000  Uiso   1.00
H574   H     0.88510   0.36357   0.41612   0.00000  Uiso   1.00
C575   C     0.94702   0.35283   0.44211   0.00000  Uiso   1.00
H576   H     0.96284   0.37821   0.42007   0.00000  Uiso   1.00
H577   H     0.94930   0.65231   0.42615   0.00000  Uiso   1.00
H578   H     0.96328   0.35218   0.47473   0.00000  Uiso   1.00
O579   O     0.80907   0.57715   0.47715   0.00000  Uiso   1.00
C580   C     0.76725   0.58965   0.46867   0.00000  Uiso   1.00
H581   H     0.74818   0.58210   0.49906   0.00000  Uiso   1.00
H582   H     0.75211   0.57120   0.44027   0.00000  Uiso   1.00
C583   C     0.76639   0.64057   0.45947   0.00000  Uiso   1.00
H584   H     0.77911   0.65941   0.48873   0.00000  Uiso   1.00
H585   H     0.78655   0.64858   0.42996   0.00000  Uiso   1.00
C586   C     0.72194   0.65617   0.45049   0.00000  Uiso   1.00
H587   H     0.70927   0.63925   0.42017   0.00000  Uiso   1.00
H588   H     0.72225   0.36006   0.44505   0.00000  Uiso   1.00
H589   H     0.70118   0.64809   0.47945   0.00000  Uiso   1.00
O590   O     0.77893   0.43855   0.02585   0.00000  Uiso   1.00
C591   C     0.73780   0.45561   0.02414   0.00000  Uiso   1.00
H592   H     0.72978   0.46072   0.48849   0.00000  Uiso   1.00
H593   H     0.73362   0.48890   0.04142   0.00000  Uiso   1.00
C594   C     0.70724   0.42072   0.04448   0.00000  Uiso   1.00
H595   H     0.71046   0.38780   0.02687   0.00000  Uiso   1.00
H596   H     0.71498   0.41559   0.08017   0.00000  Uiso   1.00
C597   C     0.99532   0.43594   0.04105   0.00000  Uiso   1.00
H598   H     0.99116   0.46861   0.05886   0.00000  Uiso   1.00
H599   H     0.97411   0.41003   0.05646   0.00000  Uiso   1.00
H600   H     0.98663   0.43992   0.00549   0.00000  Uiso   1.00
N601   N     0.71112   0.46947   0.17417   0.00000  Uiso   1.00
O602   O     0.72901   0.43026   0.17369   0.00000  Uiso   1.00
O603   O     0.70941   0.49299   0.13758   0.00000  Uiso   1.00
N604   N     0.95531   0.52786   0.32853   0.00000  Uiso   1.00
O605   O     0.93313   0.56435   0.32919   0.00000  Uiso   1.00
O606   O     0.95940   0.50463   0.36504   0.00000  Uiso   1.00
N607   N     0.95609   0.47134   0.17294   0.00000  Uiso   1.00
O608   O     0.93047   0.49876   0.15377   0.00000  Uiso   1.00
O609   O     0.96358   0.43235   0.15445   0.00000  Uiso   1.00
N610   N     0.71077   0.52724   0.32914   0.00000  Uiso   1.00
O611   O     0.73700   0.49974   0.34731   0.00000  Uiso   1.00
O612   O     0.70279   0.56550   0.34883   0.00000  Uiso   1.00
O613   O     0.10559   0.87154   0.24999   0.00000  Uiso   1.00
O614   O     0.22774   0.79513   0.25000   0.00000  Uiso   1.00
O615   O     0.22774   0.87154   0.25000   0.00000  Uiso   1.00
O616   O     0.10559   0.79513   0.24999   0.00000  Uiso   1.00
N617   N     0.16667   0.95240   0.25000   0.00000  Uiso   1.00
N618   N     0.16667   0.71427   0.25000   0.00000  Uiso   1.00
C619   C     0.08678   0.83285   0.25067   0.00000  Uiso   1.00
C620   C     0.24655   0.83380   0.25032   0.00000  Uiso   1.00
O621   O     0.16666   0.87155   0.18453   0.00000  Uiso   1.00
O622   O     0.16667   0.79511   0.31547   0.00000  Uiso   1.00
O623   O     0.16667   0.87155   0.31547   0.00000  Uiso   1.00
O624   O     0.16666   0.79511   0.18453   0.00000  Uiso   1.00
C625   C     0.16624   0.83328   0.16402   0.00000  Uiso   1.00
C626   C     0.16705   0.83338   0.33614   0.00000  Uiso   1.00
Zn627  Zn    0.16667   0.88437   0.25000   0.00000  Uiso   1.00
Zn628  Zn    0.16667   0.78229   0.25000   0.00000  Uiso   1.00
H629   H     0.20323   0.70972   0.30858   0.00000  Uiso   1.00
H630   H     0.13003   0.95695   0.19149   0.00000  Uiso   1.00
H631   H     0.13016   0.70787   0.19141   0.00000  Uiso   1.00
H632   H     0.20312   0.95881   0.30864   0.00000  Uiso   1.00
C633   C     0.18696   0.69116   0.28256   0.00000  Uiso   1.00
C634   C     0.14633   0.97551   0.21747   0.00000  Uiso   1.00
C635   C     0.14636   0.69014   0.21746   0.00000  Uiso   1.00
C636   C     0.18694   0.97653   0.28257   0.00000  Uiso   1.00
C637   C     0.02169   0.81697   0.21306   0.00000  Uiso   1.00
C638   C     0.31154   0.84886   0.28898   0.00000  Uiso   1.00
C639   C     0.31180   0.81893   0.21214   0.00000  Uiso   1.00
C640   C     0.02158   0.84705   0.28977   0.00000  Uiso   1.00
C641   C     0.19178   0.86292   0.04682   0.00000  Uiso   1.00
C642   C     0.17688   0.79344   0.45312   0.00000  Uiso   1.00
C643   C     0.15264   0.87172   0.45357   0.00000  Uiso   1.00
C644   C     0.13838   0.80222   0.04798   0.00000  Uiso   1.00
C645   C     0.19068   0.86441   0.09296   0.00000  Uiso   1.00
C646   C     0.17675   0.79379   0.40685   0.00000  Uiso   1.00
C647   C     0.15547   0.87243   0.40732   0.00000  Uiso   1.00
C648   C     0.14024   0.80151   0.09413   0.00000  Uiso   1.00
H649   H     0.21043   0.88878   0.11044   0.00000  Uiso   1.00
H650   H     0.18516   0.76342   0.38884   0.00000  Uiso   1.00
H651   H     0.14810   0.90327   0.38971   0.00000  Uiso   1.00
H652   H     0.12113   0.77716   0.11252   0.00000  Uiso   1.00
C653   C     0.16565   0.83313   0.11632   0.00000  Uiso   1.00
C654   C     0.16666   0.83332   0.38413   0.00000  Uiso   1.00
C655   C     0.16472   0.83252   0.02439   0.00000  Uiso   1.00
C656   C     0.16427   0.83237   0.47623   0.00000  Uiso   1.00
C657   C     0.29069   0.83502   0.25005   0.00000  Uiso   1.00
C658   C     0.04263   0.83147   0.25157   0.00000  Uiso   1.00
O659   O     0.21808   0.89239   0.02359   0.00000  Uiso   1.00
C660   C     0.25690   0.87123   0.01654   0.00000  Uiso   1.00
H661   H     0.25268   0.83597   0.00368   0.00000  Uiso   1.00
H662   H     0.27465   0.87038   0.04838   0.00000  Uiso   1.00
C663   C     0.28223   0.89840   0.48202   0.00000  Uiso   1.00
H664   H     0.26355   0.90152   0.45103   0.00000  Uiso   1.00
H665   H     0.28892   0.93293   0.49535   0.00000  Uiso   1.00
C666   C     0.32350   0.87568   0.47065   0.00000  Uiso   1.00
H667   H     0.00983   0.87309   0.00092   0.00000  Uiso   1.00
H668   H     0.00741   0.89612   0.44521   0.00000  Uiso   1.00
H669   H     0.31755   0.84128   0.45672   0.00000  Uiso   1.00
O670   O     0.18705   0.75449   0.47607   0.00000  Uiso   1.00
C671   C     0.23003   0.74470   0.47014   0.00000  Uiso   1.00
H672   H     0.24452   0.74425   0.00369   0.00000  Uiso   1.00
H673   H     0.24821   0.77025   0.44992   0.00000  Uiso   1.00
C674   C     0.23436   0.69780   0.44895   0.00000  Uiso   1.00
H675   H     0.21911   0.67185   0.47085   0.00000  Uiso   1.00
H676   H     0.21844   0.69691   0.41612   0.00000  Uiso   1.00
C677   C     0.28035   0.68616   0.44211   0.00000  Uiso   1.00
H678   H     0.29618   0.71154   0.42007   0.00000  Uiso   1.00
H679   H     0.28264   0.98564   0.42615   0.00000  Uiso   1.00
H680   H     0.29662   0.68552   0.47473   0.00000  Uiso   1.00
O681   O     0.14240   0.91049   0.47715   0.00000  Uiso   1.00
C682   C     0.10059   0.92298   0.46867   0.00000  Uiso   1.00
H683   H     0.08151   0.91543   0.49906   0.00000  Uiso   1.00
H684   H     0.08544   0.90453   0.44027   0.00000  Uiso   1.00
C685   C     0.09972   0.97390   0.45947   0.00000  Uiso   1.00
H686   H     0.11244   0.99275   0.48873   0.00000  Uiso   1.00
H687   H     0.11988   0.98191   0.42996   0.00000  Uiso   1.00
C688   C     0.05528   0.98951   0.45049   0.00000  Uiso   1.00
H689   H     0.04261   0.97258   0.42017   0.00000  Uiso   1.00
H690   H     0.05558   0.69339   0.44505   0.00000  Uiso   1.00
H691   H     0.03451   0.98142   0.47945   0.00000  Uiso   1.00
O692   O     0.11226   0.77188   0.02585   0.00000  Uiso   1.00
C693   C     0.07113   0.78895   0.02414   0.00000  Uiso   1.00
H694   H     0.06311   0.79406   0.48849   0.00000  Uiso   1.00
H695   H     0.06696   0.82223   0.04142   0.00000  Uiso   1.00
C696   C     0.04057   0.75405   0.04448   0.00000  Uiso   1.00
H697   H     0.04379   0.72113   0.02687   0.00000  Uiso   1.00
H698   H     0.04831   0.74893   0.08017   0.00000  Uiso   1.00
C699   C     0.32865   0.76927   0.04105   0.00000  Uiso   1.00
H700   H     0.32449   0.80194   0.05886   0.00000  Uiso   1.00
H701   H     0.30745   0.74336   0.05646   0.00000  Uiso   1.00
H702   H     0.31996   0.77326   0.00549   0.00000  Uiso   1.00
N703   N     0.04445   0.80280   0.17417   0.00000  Uiso   1.00
O704   O     0.06234   0.76359   0.17369   0.00000  Uiso   1.00
O705   O     0.04274   0.82632   0.13758   0.00000  Uiso   1.00
N706   N     0.28865   0.86119   0.32853   0.00000  Uiso   1.00
O707   O     0.26646   0.89769   0.32919   0.00000  Uiso   1.00
O708   O     0.29274   0.83796   0.36504   0.00000  Uiso   1.00
N709   N     0.28942   0.80467   0.17294   0.00000  Uiso   1.00
O710   O     0.26381   0.83210   0.15377   0.00000  Uiso   1.00
O711   O     0.29691   0.76569   0.15445   0.00000  Uiso   1.00
N712   N     0.04410   0.86057   0.32914   0.00000  Uiso   1.00
O713   O     0.07033   0.83308   0.34731   0.00000  Uiso   1.00
O714   O     0.03613   0.89883   0.34883   0.00000  Uiso   1.00
O715   O     0.43892   0.87154   0.24999   0.00000  Uiso   1.00
O716   O     0.56108   0.79513   0.25000   0.00000  Uiso   1.00
O717   O     0.56108   0.87154   0.25000   0.00000  Uiso   1.00
O718   O     0.43892   0.79513   0.24999   0.00000  Uiso   1.00
N719   N     0.50000   0.95240   0.25000   0.00000  Uiso   1.00
N720   N     0.50000   0.71427   0.25000   0.00000  Uiso   1.00
C721   C     0.42011   0.83285   0.25067   0.00000  Uiso   1.00
C722   C     0.57988   0.83380   0.25032   0.00000  Uiso   1.00
O723   O     0.50000   0.87155   0.18453   0.00000  Uiso   1.00
O724   O     0.50000   0.79511   0.31547   0.00000  Uiso   1.00
O725   O     0.50000   0.87155   0.31547   0.00000  Uiso   1.00
O726   O     0.50000   0.79511   0.18453   0.00000  Uiso   1.00
C727   C     0.49958   0.83328   0.16402   0.00000  Uiso   1.00
C728   C     0.50038   0.83338   0.33614   0.00000  Uiso   1.00
Zn729  Zn    0.50000   0.88437   0.25000   0.00000  Uiso   1.00
Zn730  Zn    0.50000   0.78229   0.25000   0.00000  Uiso   1.00
H731   H     0.53656   0.70972   0.30858   0.00000  Uiso   1.00
H732   H     0.46336   0.95695   0.19149   0.00000  Uiso   1.00
H733   H     0.46350   0.70787   0.19141   0.00000  Uiso   1.00
H734   H     0.53645   0.95881   0.30864   0.00000  Uiso   1.00
C735   C     0.52029   0.69116   0.28256   0.00000  Uiso   1.00
C736   C     0.47967   0.97551   0.21747   0.00000  Uiso   1.00
C737   C     0.47969   0.69014   0.21746   0.00000  Uiso   1.00
C738   C     0.52027   0.97653   0.28257   0.00000  Uiso   1.00
C739   C     0.35502   0.81697   0.21306   0.00000  Uiso   1.00
C740   C     0.64488   0.84886   0.28898   0.00000  Uiso   1.00
C741   C     0.64513   0.81893   0.21214   0.00000  Uiso   1.00
C742   C     0.35491   0.84705   0.28977   0.00000  Uiso   1.00
C743   C     0.52511   0.86292   0.04682   0.00000  Uiso   1.00
C744   C     0.51021   0.79344   0.45312   0.00000  Uiso   1.00
C745   C     0.48597   0.87172   0.45357   0.00000  Uiso   1.00
C746   C     0.47171   0.80222   0.04798   0.00000  Uiso   1.00
C747   C     0.52401   0.86441   0.09296   0.00000  Uiso   1.00
C748   C     0.51008   0.79379   0.40685   0.00000  Uiso   1.00
C749   C     0.48881   0.87243   0.40732   0.00000  Uiso   1.00
C750   C     0.47357   0.80151   0.09413   0.00000  Uiso   1.00
H751   H     0.54377   0.88878   0.11044   0.00000  Uiso   1.00
H752   H     0.51850   0.76342   0.38884   0.00000  Uiso   1.00
H753   H     0.48143   0.90327   0.38971   0.00000  Uiso   1.00
H754   H     0.45446   0.77716   0.11252   0.00000  Uiso   1.00
C755   C     0.49899   0.83313   0.11632   0.00000  Uiso   1.00
C756   C     0.50000   0.83332   0.38413   0.00000  Uiso   1.00
C757   C     0.49805   0.83252   0.02439   0.00000  Uiso   1.00
C758   C     0.49760   0.83237   0.47623   0.00000  Uiso   1.00
C759   C     0.62402   0.83502   0.25005   0.00000  Uiso   1.00
C760   C     0.37596   0.83147   0.25157   0.00000  Uiso   1.00
O761   O     0.55141   0.89239   0.02359   0.00000  Uiso   1.00
C762   C     0.59023   0.87123   0.01654   0.00000  Uiso   1.00
H763   H     0.58602   0.83597   0.00368   0.00000  Uiso   1.00
H764   H     0.60798   0.87038   0.04838   0.00000  Uiso   1.00
C765   C     0.61556   0.89840   0.48202   0.00000  Uiso   1.00
H766   H     0.59689   0.90152   0.45103   0.00000  Uiso   1.00
H767   H     0.62225   0.93293   0.49535   0.00000  Uiso   1.00
C768   C     0.65683   0.87568   0.47065   0.00000  Uiso   1.00
H769   H     0.34317   0.87309   0.00092   0.00000  Uiso   1.00
H770   H     0.34074   0.89612   0.44521   0.00000  Uiso   1.00
H771   H     0.65088   0.84128   0.45672   0.00000  Uiso   1.00
O772   O     0.52038   0.75449   0.47607   0.00000  Uiso   1.00
C773   C     0.56336   0.74470   0.47014   0.00000  Uiso   1.00
H774   H     0.57785   0.74425   0.00369   0.00000  Uiso   1.00
H775   H     0.58154   0.77025   0.44992   0.00000  Uiso   1.00
C776   C     0.56769   0.69780   0.44895   0.00000  Uiso   1.00
H777   H     0.55244   0.67185   0.47085   0.00000  Uiso   1.00
H778   H     0.55177   0.69691   0.41612   0.00000  Uiso   1.00
C779   C     0.61369   0.68616   0.44211   0.00000  Uiso   1.00
H780   H     0.62951   0.71154   0.42007   0.00000  Uiso   1.00
H781   H     0.61597   0.98564   0.42615   0.00000  Uiso   1.00
H782   H     0.62995   0.68552   0.47473   0.00000  Uiso   1.00
O783   O     0.47573   0.91049   0.47715   0.00000  Uiso   1.00
C784   C     0.43392   0.92298   0.46867   0.00000  Uiso   1.00
H785   H     0.41484   0.91543   0.49906   0.00000  Uiso   1.00
H786   H     0.41877   0.90453   0.44027   0.00000  Uiso   1.00
C787   C     0.43306   0.97390   0.45947   0.00000  Uiso   1.00
H788   H     0.44578   0.99275   0.48873   0.00000  Uiso   1.00
H789   H     0.45321   0.98191   0.42996   0.00000  Uiso   1.00
C790   C     0.38861   0.98951   0.45049   0.00000  Uiso   1.00
H791   H     0.37594   0.97258   0.42017   0.00000  Uiso   1.00
H792   H     0.38891   0.69339   0.44505   0.00000  Uiso   1.00
H793   H     0.36784   0.98142   0.47945   0.00000  Uiso   1.00
O794   O     0.44560   0.77188   0.02585   0.00000  Uiso   1.00
C795   C     0.40446   0.78895   0.02414   0.00000  Uiso   1.00
H796   H     0.39645   0.79406   0.48849   0.00000  Uiso   1.00
H797   H     0.40029   0.82223   0.04142   0.00000  Uiso   1.00
C798   C     0.37390   0.75405   0.04448   0.00000  Uiso   1.00
H799   H     0.37712   0.72113   0.02687   0.00000  Uiso   1.00
H800   H     0.38165   0.74893   0.08017   0.00000  Uiso   1.00
C801   C     0.66199   0.76927   0.04105   0.00000  Uiso   1.00
H802   H     0.65783   0.80194   0.05886   0.00000  Uiso   1.00
H803   H     0.64078   0.74336   0.05646   0.00000  Uiso   1.00
H804   H     0.65330   0.77326   0.00549   0.00000  Uiso   1.00
N805   N     0.37779   0.80280   0.17417   0.00000  Uiso   1.00
O806   O     0.39567   0.76359   0.17369   0.00000  Uiso   1.00
O807   O     0.37608   0.82632   0.13758   0.00000  Uiso   1.00
N808   N     0.62198   0.86119   0.32853   0.00000  Uiso   1.00
O809   O     0.59979   0.89769   0.32919   0.00000  Uiso   1.00
O810   O     0.62607   0.83796   0.36504   0.00000  Uiso   1.00
N811   N     0.62276   0.80467   0.17294   0.00000  Uiso   1.00
O812   O     0.59714   0.83210   0.15377   0.00000  Uiso   1.00
O813   O     0.63024   0.76569   0.15445   0.00000  Uiso   1.00
N814   N     0.37744   0.86057   0.32914   0.00000  Uiso   1.00
O815   O     0.40366   0.83308   0.34731   0.00000  Uiso   1.00
O816   O     0.36946   0.89883   0.34883   0.00000  Uiso   1.00
O817   O     0.77226   0.87154   0.24999   0.00000  Uiso   1.00
O818   O     0.89441   0.79513   0.25000   0.00000  Uiso   1.00
O819   O     0.89441   0.87154   0.25000   0.00000  Uiso   1.00
O820   O     0.77226   0.79513   0.24999   0.00000  Uiso   1.00
N821   N     0.83333   0.95240   0.25000   0.00000  Uiso   1.00
N822   N     0.83333   0.71427   0.25000   0.00000  Uiso   1.00
C823   C     0.75345   0.83285   0.25067   0.00000  Uiso   1.00
C824   C     0.91322   0.83380   0.25032   0.00000  Uiso   1.00
O825   O     0.83333   0.87155   0.18453   0.00000  Uiso   1.00
O826   O     0.83334   0.79511   0.31547   0.00000  Uiso   1.00
O827   O     0.83334   0.87155   0.31547   0.00000  Uiso   1.00
O828   O     0.83333   0.79511   0.18453   0.00000  Uiso   1.00
C829   C     0.83291   0.83328   0.16402   0.00000  Uiso   1.00
C830   C     0.83372   0.83338   0.33614   0.00000  Uiso   1.00
Zn831  Zn    0.83333   0.88437   0.25000   0.00000  Uiso   1.00
Zn832  Zn    0.83333   0.78229   0.25000   0.00000  Uiso   1.00
H833   H     0.86990   0.70972   0.30858   0.00000  Uiso   1.00
H834   H     0.79670   0.95695   0.19149   0.00000  Uiso   1.00
H835   H     0.79683   0.70787   0.19141   0.00000  Uiso   1.00
H836   H     0.86978   0.95881   0.30864   0.00000  Uiso   1.00
C837   C     0.85363   0.69116   0.28256   0.00000  Uiso   1.00
C838   C     0.81300   0.97551   0.21747   0.00000  Uiso   1.00
C839   C     0.81303   0.69014   0.21746   0.00000  Uiso   1.00
C840   C     0.85361   0.97653   0.28257   0.00000  Uiso   1.00
C841   C     0.68835   0.81697   0.21306   0.00000  Uiso   1.00
C842   C     0.97821   0.84886   0.28898   0.00000  Uiso   1.00
C843   C     0.97846   0.81893   0.21214   0.00000  Uiso   1.00
C844   C     0.68824   0.84705   0.28977   0.00000  Uiso   1.00
C845   C     0.85844   0.86292   0.04682   0.00000  Uiso   1.00
C846   C     0.84354   0.79344   0.45312   0.00000  Uiso   1.00
C847   C     0.81931   0.87172   0.45357   0.00000  Uiso   1.00
C848   C     0.80505   0.80222   0.04798   0.00000  Uiso   1.00
C849   C     0.85735   0.86441   0.09296   0.00000  Uiso   1.00
C850   C     0.84341   0.79379   0.40685   0.00000  Uiso   1.00
C851   C     0.82214   0.87243   0.40732   0.00000  Uiso   1.00
C852   C     0.80691   0.80151   0.09413   0.00000  Uiso   1.00
H853   H     0.87710   0.88878   0.11044   0.00000  Uiso   1.00
H854   H     0.85183   0.76342   0.38884   0.00000  Uiso   1.00
H855   H     0.81477   0.90327   0.38971   0.00000  Uiso   1.00
H856   H     0.78779   0.77716   0.11252   0.00000  Uiso   1.00
C857   C     0.83232   0.83313   0.11632   0.00000  Uiso   1.00
C858   C     0.83333   0.83332   0.38413   0.00000  Uiso   1.00
C859   C     0.83138   0.83252   0.02439   0.00000  Uiso   1.00
C860   C     0.83094   0.83237   0.47623   0.00000  Uiso   1.00
C861   C     0.95735   0.83502   0.25005   0.00000  Uiso   1.00
C862   C     0.70930   0.83147   0.25157   0.00000  Uiso   1.00
O863   O     0.88475   0.89239   0.02359   0.00000  Uiso   1.00
C864   C     0.92357   0.87123   0.01654   0.00000  Uiso   1.00
H865   H     0.91935   0.83597   0.00368   0.00000  Uiso   1.00
H866   H     0.94131   0.87038   0.04838   0.00000  Uiso   1.00
C867   C     0.94889   0.89840   0.48202   0.00000  Uiso   1.00
H868   H     0.93022   0.90152   0.45103   0.00000  Uiso   1.00
H869   H     0.95559   0.93293   0.49535   0.00000  Uiso   1.00
C870   C     0.99017   0.87568   0.47065   0.00000  Uiso   1.00
H871   H     0.67650   0.87309   0.00092   0.00000  Uiso   1.00
H872   H     0.67408   0.89612   0.44521   0.00000  Uiso   1.00
H873   H     0.98422   0.84128   0.45672   0.00000  Uiso   1.00
O874   O     0.85372   0.75449   0.47607   0.00000  Uiso   1.00
C875   C     0.89670   0.74470   0.47014   0.00000  Uiso   1.00
H876   H     0.91119   0.74425   0.00369   0.00000  Uiso   1.00
H877   H     0.91488   0.77025   0.44992   0.00000  Uiso   1.00
C878   C     0.90103   0.69780   0.44895   0.00000  Uiso   1.00
H879   H     0.88577   0.67185   0.47085   0.00000  Uiso   1.00
H880   H     0.88510   0.69691   0.41612   0.00000  Uiso   1.00
C881   C     0.94702   0.68616   0.44211   0.00000  Uiso   1.00
H882   H     0.96284   0.71154   0.42007   0.00000  Uiso   1.00
H883   H     0.94930   0.98564   0.42615   0.00000  Uiso   1.00
H884   H     0.96328   0.68552   0.47473   0.00000  Uiso   1.00
O885   O     0.80907   0.91049   0.47715   0.00000  Uiso   1.00
C886   C     0.76725   0.92298   0.46867   0.00000  Uiso   1.00
H887   H     0.74818   0.91543   0.49906   0.00000  Uiso   1.00
H888   H     0.75211   0.90453   0.44027   0.00000  Uiso   1.00
C889   C     0.76639   0.97390   0.45947   0.00000  Uiso   1.00
H890   H     0.77911   0.99275   0.48873   0.00000  Uiso   1.00
H891   H     0.78655   0.98191   0.42996   0.00000  Uiso   1.00
C892   C     0.72194   0.98951   0.45049   0.00000  Uiso   1.00
H893   H     0.70927   0.97258   0.42017   0.00000  Uiso   1.00
H894   H     0.72225   0.69339   0.44505   0.00000  Uiso   1.00
H895   H     0.70118   0.98142   0.47945   0.00000  Uiso   1.00
O896   O     0.77893   0.77188   0.02585   0.00000  Uiso   1.00
C897   C     0.73780   0.78895   0.02414   0.00000  Uiso   1.00
H898   H     0.72978   0.79406   0.48849   0.00000  Uiso   1.00
H899   H     0.73362   0.82223   0.04142   0.00000  Uiso   1.00
C900   C     0.70724   0.75405   0.04448   0.00000  Uiso   1.00
H901   H     0.71046   0.72113   0.02687   0.00000  Uiso   1.00
H902   H     0.71498   0.74893   0.08017   0.00000  Uiso   1.00
C903   C     0.99532   0.76927   0.04105   0.00000  Uiso   1.00
H904   H     0.99116   0.80194   0.05886   0.00000  Uiso   1.00
H905   H     0.97411   0.74336   0.05646   0.00000  Uiso   1.00
H906   H     0.98663   0.77326   0.00549   0.00000  Uiso   1.00
N907   N     0.71112   0.80280   0.17417   0.00000  Uiso   1.00
O908   O     0.72901   0.76359   0.17369   0.00000  Uiso   1.00
O909   O     0.70941   0.82632   0.13758   0.00000  Uiso   1.00
N910   N     0.95531   0.86119   0.32853   0.00000  Uiso   1.00
O911   O     0.93313   0.89769   0.32919   0.00000  Uiso   1.00
O912   O     0.95940   0.83796   0.36504   0.00000  Uiso   1.00
N913   N     0.95609   0.80467   0.17294   0.00000  Uiso   1.00
O914   O     0.93047   0.83210   0.15377   0.00000  Uiso   1.00
O915   O     0.96358   0.76569   0.15445   0.00000  Uiso   1.00
N916   N     0.71077   0.86057   0.32914   0.00000  Uiso   1.00
O917   O     0.73700   0.83308   0.34731   0.00000  Uiso   1.00
O918   O     0.70279   0.89883   0.34883   0.00000  Uiso   1.00
O919   O     0.10559   0.20487   0.74999   0.00000  Uiso   1.00
O920   O     0.22774   0.12846   0.75000   0.00000  Uiso   1.00
O921   O     0.22774   0.20487   0.75000   0.00000  Uiso   1.00
O922   O     0.10559   0.12846   0.74999   0.00000  Uiso   1.00
N923   N     0.16667   0.28573   0.75000   0.00000  Uiso   1.00
N924   N     0.16667   0.04760   0.75000   0.00000  Uiso   1.00
C925   C     0.08678   0.16619   0.75067   0.00000  Uiso   1.00
C926   C     0.24655   0.16713   0.75032   0.00000  Uiso   1.00
O927   O     0.16666   0.20489   0.68453   0.00000  Uiso   1.00
O928   O     0.16667   0.12845   0.81547   0.00000  Uiso   1.00
O929   O     0.16667   0.20489   0.81547   0.00000  Uiso   1.00
O930   O     0.16666   0.12845   0.68453   0.00000  Uiso   1.00
C931   C     0.16624   0.16661   0.66402   0.00000  Uiso   1.00
C932   C     0.16705   0.16672   0.83614   0.00000  Uiso   1.00
Zn933  Zn    0.16667   0.21771   0.75000   0.00000  Uiso   1.00
Zn934  Zn    0.16667   0.11563   0.75000   0.00000  Uiso   1.00
H935   H     0.20323   0.04305   0.80858   0.00000  Uiso   1.00
H936   H     0.13003   0.29028   0.69149   0.00000  Uiso   1.00
H937   H     0.13016   0.04120   0.69141   0.00000  Uiso   1.00
H938   H     0.20312   0.29214   0.80864   0.00000  Uiso   1.00
C939   C     0.18696   0.02449   0.78256   0.00000  Uiso   1.00
C940   C     0.14633   0.30884   0.71747   0.00000  Uiso   1.00
C941   C     0.14636   0.02347   0.71746   0.00000  Uiso   1.00
C942   C     0.18694   0.30987   0.78257   0.00000  Uiso   1.00
C943   C     0.02169   0.15030   0.71306   0.00000  Uiso   1.00
C944   C     0.31154   0.18219   0.78898   0.00000  Uiso   1.00
C945   C     0.31180   0.15226   0.71214   0.00000  Uiso   1.00
C946   C     0.02158   0.18038   0.78977   0.00000  Uiso   1.00
C947   C     0.19178   0.19625   0.54682   0.00000  Uiso   1.00
C948   C     0.17688   0.12677   0.95312   0.00000  Uiso   1.00
C949   C     0.15264   0.20505   0.95357   0.00000  Uiso   1.00
C950   C     0.13838   0.13555   0.54798   0.00000  Uiso   1.00
C951   C     0.19068   0.19774   0.59296   0.00000  Uiso   1.00
C952   C     0.17675   0.12713   0.90685   0.00000  Uiso   1.00
C953   C     0.15547   0.20577   0.90732   0.00000  Uiso   1.00
C954   C     0.14024   0.13485   0.59413   0.00000  Uiso   1.00
H955   H     0.21043   0.22211   0.61044   0.00000  Uiso   1.00
H956   H     0.18516   0.09675   0.88884   0.00000  Uiso   1.00
H957   H     0.14810   0.23661   0.88971   0.00000  Uiso   1.00
H958   H     0.12113   0.11050   0.61252   0.00000  Uiso   1.00
C959   C     0.16565   0.16646   0.61632   0.00000  Uiso   1.00
C960   C     0.16666   0.16666   0.88413   0.00000  Uiso   1.00
C961   C     0.16472   0.16585   0.52439   0.00000  Uiso   1.00
C962   C     0.16427   0.16571   0.97623   0.00000  Uiso   1.00
C963   C     0.29069   0.16835   0.75005   0.00000  Uiso   1.00
C964   C     0.04263   0.16480   0.75157   0.00000  Uiso   1.00
O965   O     0.21808   0.22573   0.52359   0.00000  Uiso   1.00
C966   C     0.25690   0.20457   0.51654   0.00000  Uiso   1.00
H967   H     0.25268   0.16930   0.50368   0.00000  Uiso   1.00
H968   H     0.27465   0.20371   0.54838   0.00000  Uiso   1.00
C969   C     0.28223   0.23173   0.98202   0.00000  Uiso   1.00
H970   H     0.26355   0.23485   0.95103   0.00000  Uiso   1.00
H971   H     0.28892   0.26626   0.99535   0.00000  Uiso   1.00
C972   C     0.32350   0.20901   0.97065   0.00000  Uiso   1.00
H973   H     0.00983   0.20643   0.50092   0.00000  Uiso   1.00
H974   H     0.00741   0.22945   0.94521   0.00000  Uiso   1.00
H975   H     0.31755   0.17461   0.95672   0.00000  Uiso   1.00
O976   O     0.18705   0.08782   0.97607   0.00000  Uiso   1.00
C977   C     0.23003   0.07804   0.97014   0.00000  Uiso   1.00
H978   H     0.24452   0.07758   0.50369   0.00000  Uiso   1.00
H979   H     0.24821   0.10358   0.94992   0.00000  Uiso   1.00
C980   C     0.23436   0.03113   0.94895   0.00000  Uiso   1.00
H981   H     0.21911   0.00519   0.97085   0.00000  Uiso   1.00
H982   H     0.21844   0.03024   0.91612   0.00000  Uiso   1.00
C983   C     0.28035   0.01949   0.94211   0.00000  Uiso   1.00
H984   H     0.29618   0.04488   0.92007   0.00000  Uiso   1.00
H985   H     0.28264   0.31897   0.92615   0.00000  Uiso   1.00
H986   H     0.29662   0.01885   0.97473   0.00000  Uiso   1.00
O987   O     0.14240   0.24382   0.97715   0.00000  Uiso   1.00
C988   C     0.10059   0.25631   0.96867   0.00000  Uiso   1.00
H989   H     0.08151   0.24877   0.99906   0.00000  Uiso   1.00
H990   H     0.08544   0.23787   0.94027   0.00000  Uiso   1.00
C991   C     0.09972   0.30724   0.95947   0.00000  Uiso   1.00
H992   H     0.11244   0.32608   0.98873   0.00000  Uiso   1.00
H993   H     0.11988   0.31524   0.92996   0.00000  Uiso   1.00
C994   C     0.05528   0.32284   0.95049   0.00000  Uiso   1.00
H995   H     0.04261   0.30592   0.92017   0.00000  Uiso   1.00
H996   H     0.05558   0.02672   0.94505   0.00000  Uiso   1.00
H997   H     0.03451   0.31475   0.97945   0.00000  Uiso   1.00
O998   O     0.11226   0.10522   0.52585   0.00000  Uiso   1.00
C999   C     0.07113   0.12228   0.52414   0.00000  Uiso   1.00
H1000  H     0.06311   0.12739   0.98849   0.00000  Uiso   1.00
H1001  H     0.06696   0.15557   0.54142   0.00000  Uiso   1.00
C1002  C     0.04057   0.08738   0.54448   0.00000  Uiso   1.00
H1003  H     0.04379   0.05446   0.52687   0.00000  Uiso   1.00
H1004  H     0.04831   0.08226   0.58017   0.00000  Uiso   1.00
C1005  C     0.32865   0.10260   0.54105   0.00000  Uiso   1.00
H1006  H     0.32449   0.13527   0.55886   0.00000  Uiso   1.00
H1007  H     0.30745   0.07669   0.55646   0.00000  Uiso   1.00
H1008  H     0.31996   0.10659   0.50549   0.00000  Uiso   1.00
N1009  N     0.04445   0.13614   0.67417   0.00000  Uiso   1.00
O1010  O     0.06234   0.09692   0.67369   0.00000  Uiso   1.00
O1011  O     0.04274   0.15965   0.63758   0.00000  Uiso   1.00
N1012  N     0.28865   0.19452   0.82853   0.00000  Uiso   1.00
O1013  O     0.26646   0.23102   0.82919   0.00000  Uiso   1.00
O1014  O     0.29274   0.17129   0.86504   0.00000  Uiso   1.00
N1015  N     0.28942   0.13800   0.67294   0.00000  Uiso   1.00
O1016  O     0.26381   0.16543   0.65377   0.00000  Uiso   1.00
O1017  O     0.29691   0.09902   0.65445   0.00000  Uiso   1.00
N1018  N     0.04410   0.19390   0.82914   0.00000  Uiso   1.00
O1019  O     0.07033   0.16641   0.84731   0.00000  Uiso   1.00
O1020  O     0.03613   0.23217   0.84883   0.00000  Uiso   1.00
O1021  O     0.43892   0.20487   0.74999   0.00000  Uiso   1.00
O1022  O     0.56108   0.12846   0.75000   0.00000  Uiso   1.00
O1023  O     0.56108   0.20487   0.75000   0.00000  Uiso   1.00
O1024  O     0.43892   0.12846   0.74999   0.00000  Uiso   1.00
N1025  N     0.50000   0.28573   0.75000   0.00000  Uiso   1.00
N1026  N     0.50000   0.04760   0.75000   0.00000  Uiso   1.00
C1027  C     0.42011   0.16619   0.75067   0.00000  Uiso   1.00
C1028  C     0.57988   0.16713   0.75032   0.00000  Uiso   1.00
O1029  O     0.50000   0.20489   0.68453   0.00000  Uiso   1.00
O1030  O     0.50000   0.12845   0.81547   0.00000  Uiso   1.00
O1031  O     0.50000   0.20489   0.81547   0.00000  Uiso   1.00
O1032  O     0.50000   0.12845   0.68453   0.00000  Uiso   1.00
C1033  C     0.49958   0.16661   0.66402   0.00000  Uiso   1.00
C1034  C     0.50038   0.16672   0.83614   0.00000  Uiso   1.00
Zn1035 Zn    0.50000   0.21771   0.75000   0.00000  Uiso   1.00
Zn1036 Zn    0.50000   0.11563   0.75000   0.00000  Uiso   1.00
H1037  H     0.53656   0.04305   0.80858   0.00000  Uiso   1.00
H1038  H     0.46336   0.29028   0.69149   0.00000  Uiso   1.00
H1039  H     0.46350   0.04120   0.69141   0.00000  Uiso   1.00
H1040  H     0.53645   0.29214   0.80864   0.00000  Uiso   1.00
C1041  C     0.52029   0.02449   0.78256   0.00000  Uiso   1.00
C1042  C     0.47967   0.30884   0.71747   0.00000  Uiso   1.00
C1043  C     0.47969   0.02347   0.71746   0.00000  Uiso   1.00
C1044  C     0.52027   0.30987   0.78257   0.00000  Uiso   1.00
C1045  C     0.35502   0.15030   0.71306   0.00000  Uiso   1.00
C1046  C     0.64488   0.18219   0.78898   0.00000  Uiso   1.00
C1047  C     0.64513   0.15226   0.71214   0.00000  Uiso   1.00
C1048  C     0.35491   0.18038   0.78977   0.00000  Uiso   1.00
C1049  C     0.52511   0.19625   0.54682   0.00000  Uiso   1.00
C1050  C     0.51021   0.12677   0.95312   0.00000  Uiso   1.00
C1051  C     0.48597   0.20505   0.95357   0.00000  Uiso   1.00
C1052  C     0.47171   0.13555   0.54798   0.00000  Uiso   1.00
C1053  C     0.52401   0.19774   0.59296   0.00000  Uiso   1.00
C1054  C     0.51008   0.12713   0.90685   0.00000  Uiso   1.00
C1055  C     0.48881   0.20577   0.90732   0.00000  Uiso   1.00
C1056  C     0.47357   0.13485   0.59413   0.00000  Uiso   1.00
H1057  H     0.54377   0.22211   0.61044   0.00000  Uiso   1.00
H1058  H     0.51850   0.09675   0.88884   0.00000  Uiso   1.00
H1059  H     0.48143   0.23661   0.88971   0.00000  Uiso   1.00
H1060  H     0.45446   0.11050   0.61252   0.00000  Uiso   1.00
C1061  C     0.49899   0.16646   0.61632   0.00000  Uiso   1.00
C1062  C     0.50000   0.16666   0.88413   0.00000  Uiso   1.00
C1063  C     0.49805   0.16585   0.52439   0.00000  Uiso   1.00
C1064  C     0.49760   0.16571   0.97623   0.00000  Uiso   1.00
C1065  C     0.62402   0.16835   0.75005   0.00000  Uiso   1.00
C1066  C     0.37596   0.16480   0.75157   0.00000  Uiso   1.00
O1067  O     0.55141   0.22573   0.52359   0.00000  Uiso   1.00
C1068  C     0.59023   0.20457   0.51654   0.00000  Uiso   1.00
H1069  H     0.58602   0.16930   0.50368   0.00000  Uiso   1.00
H1070  H     0.60798   0.20371   0.54838   0.00000  Uiso   1.00
C1071  C     0.61556   0.23173   0.98202   0.00000  Uiso   1.00
H1072  H     0.59689   0.23485   0.95103   0.00000  Uiso   1.00
H1073  H     0.62225   0.26626   0.99535   0.00000  Uiso   1.00
C1074  C     0.65683   0.20901   0.97065   0.00000  Uiso   1.00
H1075  H     0.34317   0.20643   0.50092   0.00000  Uiso   1.00
H1076  H     0.34074   0.22945   0.94521   0.00000  Uiso   1.00
H1077  H     0.65088   0.17461   0.95672   0.00000  Uiso   1.00
O1078  O     0.52038   0.08782   0.97607   0.00000  Uiso   1.00
C1079  C     0.56336   0.07804   0.97014   0.00000  Uiso   1.00
H1080  H     0.57785   0.07758   0.50369   0.00000  Uiso   1.00
H1081  H     0.58154   0.10358   0.94992   0.00000  Uiso   1.00
C1082  C     0.56769   0.03113   0.94895   0.00000  Uiso   1.00
H1083  H     0.55244   0.00519   0.97085   0.00000  Uiso   1.00
H1084  H     0.55177   0.03024   0.91612   0.00000  Uiso   1.00
C1085  C     0.61369   0.01949   0.94211   0.00000  Uiso   1.00
H1086  H     0.62951   0.04488   0.92007   0.00000  Uiso   1.00
H1087  H     0.61597   0.31897   0.92615   0.00000  Uiso   1.00
H1088  H     0.62995   0.01885   0.97473   0.00000  Uiso   1.00
O1089  O     0.47573   0.24382   0.97715   0.00000  Uiso   1.00
C1090  C     0.43392   0.25631   0.96867   0.00000  Uiso   1.00
H1091  H     0.41484   0.24877   0.99906   0.00000  Uiso   1.00
H1092  H     0.41877   0.23787   0.94027   0.00000  Uiso   1.00
C1093  C     0.43306   0.30724   0.95947   0.00000  Uiso   1.00
H1094  H     0.44578   0.32608   0.98873   0.00000  Uiso   1.00
H1095  H     0.45321   0.31524   0.92996   0.00000  Uiso   1.00
C1096  C     0.38861   0.32284   0.95049   0.00000  Uiso   1.00
H1097  H     0.37594   0.30592   0.92017   0.00000  Uiso   1.00
H1098  H     0.38891   0.02672   0.94505   0.00000  Uiso   1.00
H1099  H     0.36784   0.31475   0.97945   0.00000  Uiso   1.00
O1100  O     0.44560   0.10522   0.52585   0.00000  Uiso   1.00
C1101  C     0.40446   0.12228   0.52414   0.00000  Uiso   1.00
H1102  H     0.39645   0.12739   0.98849   0.00000  Uiso   1.00
H1103  H     0.40029   0.15557   0.54142   0.00000  Uiso   1.00
C1104  C     0.37390   0.08738   0.54448   0.00000  Uiso   1.00
H1105  H     0.37712   0.05446   0.52687   0.00000  Uiso   1.00
H1106  H     0.38165   0.08226   0.58017   0.00000  Uiso   1.00
C1107  C     0.66199   0.10260   0.54105   0.00000  Uiso   1.00
H1108  H     0.65783   0.13527   0.55886   0.00000  Uiso   1.00
H1109  H     0.64078   0.07669   0.55646   0.00000  Uiso   1.00
H1110  H     0.65330   0.10659   0.50549   0.00000  Uiso   1.00
N1111  N     0.37779   0.13614   0.67417   0.00000  Uiso   1.00
O1112  O     0.39567   0.09692   0.67369   0.00000  Uiso   1.00
O1113  O     0.37608   0.15965   0.63758   0.00000  Uiso   1.00
N1114  N     0.62198   0.19452   0.82853   0.00000  Uiso   1.00
O1115  O     0.59979   0.23102   0.82919   0.00000  Uiso   1.00
O1116  O     0.62607   0.17129   0.86504   0.00000  Uiso   1.00
N1117  N     0.62276   0.13800   0.67294   0.00000  Uiso   1.00
O1118  O     0.59714   0.16543   0.65377   0.00000  Uiso   1.00
O1119  O     0.63024   0.09902   0.65445   0.00000  Uiso   1.00
N1120  N     0.37744   0.19390   0.82914   0.00000  Uiso   1.00
O1121  O     0.40366   0.16641   0.84731   0.00000  Uiso   1.00
O1122  O     0.36946   0.23217   0.84883   0.00000  Uiso   1.00
O1123  O     0.77226   0.20487   0.74999   0.00000  Uiso   1.00
O1124  O     0.89441   0.12846   0.75000   0.00000  Uiso   1.00
O1125  O     0.89441   0.20487   0.75000   0.00000  Uiso   1.00
O1126  O     0.77226   0.12846   0.74999   0.00000  Uiso   1.00
N1127  N     0.83333   0.28573   0.75000   0.00000  Uiso   1.00
N1128  N     0.83333   0.04760   0.75000   0.00000  Uiso   1.00
C1129  C     0.75345   0.16619   0.75067   0.00000  Uiso   1.00
C1130  C     0.91322   0.16713   0.75032   0.00000  Uiso   1.00
O1131  O     0.83333   0.20489   0.68453   0.00000  Uiso   1.00
O1132  O     0.83334   0.12845   0.81547   0.00000  Uiso   1.00
O1133  O     0.83334   0.20489   0.81547   0.00000  Uiso   1.00
O1134  O     0.83333   0.12845   0.68453   0.00000  Uiso   1.00
C1135  C     0.83291   0.16661   0.66402   0.00000  Uiso   1.00
C1136  C     0.83372   0.16672   0.83614   0.00000  Uiso   1.00
Zn1137 Zn    0.83333   0.21771   0.75000   0.00000  Uiso   1.00
Zn1138 Zn    0.83333   0.11563   0.75000   0.00000  Uiso   1.00
H1139  H     0.86990   0.04305   0.80858   0.00000  Uiso   1.00
H1140  H     0.79670   0.29028   0.69149   0.00000  Uiso   1.00
H1141  H     0.79683   0.04120   0.69141   0.00000  Uiso   1.00
H1142  H     0.86978   0.29214   0.80864   0.00000  Uiso   1.00
C1143  C     0.85363   0.02449   0.78256   0.00000  Uiso   1.00
C1144  C     0.81300   0.30884   0.71747   0.00000  Uiso   1.00
C1145  C     0.81303   0.02347   0.71746   0.00000  Uiso   1.00
C1146  C     0.85361   0.30987   0.78257   0.00000  Uiso   1.00
C1147  C     0.68835   0.15030   0.71306   0.00000  Uiso   1.00
C1148  C     0.97821   0.18219   0.78898   0.00000  Uiso   1.00
C1149  C     0.97846   0.15226   0.71214   0.00000  Uiso   1.00
C1150  C     0.68824   0.18038   0.78977   0.00000  Uiso   1.00
C1151  C     0.85844   0.19625   0.54682   0.00000  Uiso   1.00
C1152  C     0.84354   0.12677   0.95312   0.00000  Uiso   1.00
C1153  C     0.81931   0.20505   0.95357   0.00000  Uiso   1.00
C1154  C     0.80505   0.13555   0.54798   0.00000  Uiso   1.00
C1155  C     0.85735   0.19774   0.59296   0.00000  Uiso   1.00
C1156  C     0.84341   0.12713   0.90685   0.00000  Uiso   1.00
C1157  C     0.82214   0.20577   0.90732   0.00000  Uiso   1.00
C1158  C     0.80691   0.13485   0.59413   0.00000  Uiso   1.00
H1159  H     0.87710   0.22211   0.61044   0.00000  Uiso   1.00
H1160  H     0.85183   0.09675   0.88884   0.00000  Uiso   1.00
H1161  H     0.81477   0.23661   0.88971   0.00000  Uiso   1.00
H1162  H     0.78779   0.11050   0.61252   0.00000  Uiso   1.00
C1163  C     0.83232   0.16646   0.61632   0.00000  Uiso   1.00
C1164  C     0.83333   0.16666   0.88413   0.00000  Uiso   1.00
C1165  C     0.83138   0.16585   0.52439   0.00000  Uiso   1.00
C1166  C     0.83094   0.16571   0.97623   0.00000  Uiso   1.00
C1167  C     0.95735   0.16835   0.75005   0.00000  Uiso   1.00
C1168  C     0.70930   0.16480   0.75157   0.00000  Uiso   1.00
O1169  O     0.88475   0.22573   0.52359   0.00000  Uiso   1.00
C1170  C     0.92357   0.20457   0.51654   0.00000  Uiso   1.00
H1171  H     0.91935   0.16930   0.50368   0.00000  Uiso   1.00
H1172  H     0.94131   0.20371   0.54838   0.00000  Uiso   1.00
C1173  C     0.94889   0.23173   0.98202   0.00000  Uiso   1.00
H1174  H     0.93022   0.23485   0.95103   0.00000  Uiso   1.00
H1175  H     0.95559   0.26626   0.99535   0.00000  Uiso   1.00
C1176  C     0.99017   0.20901   0.97065   0.00000  Uiso   1.00
H1177  H     0.67650   0.20643   0.50092   0.00000  Uiso   1.00
H1178  H     0.67408   0.22945   0.94521   0.00000  Uiso   1.00
H1179  H     0.98422   0.17461   0.95672   0.00000  Uiso   1.00
O1180  O     0.85372   0.08782   0.97607   0.00000  Uiso   1.00
C1181  C     0.89670   0.07804   0.97014   0.00000  Uiso   1.00
H1182  H     0.91119   0.07758   0.50369   0.00000  Uiso   1.00
H1183  H     0.91488   0.10358   0.94992   0.00000  Uiso   1.00
C1184  C     0.90103   0.03113   0.94895   0.00000  Uiso   1.00
H1185  H     0.88577   0.00519   0.97085   0.00000  Uiso   1.00
H1186  H     0.88510   0.03024   0.91612   0.00000  Uiso   1.00
C1187  C     0.94702   0.01949   0.94211   0.00000  Uiso   1.00
H1188  H     0.96284   0.04488   0.92007   0.00000  Uiso   1.00
H1189  H     0.94930   0.31897   0.92615   0.00000  Uiso   1.00
H1190  H     0.96328   0.01885   0.97473   0.00000  Uiso   1.00
O1191  O     0.80907   0.24382   0.97715   0.00000  Uiso   1.00
C1192  C     0.76725   0.25631   0.96867   0.00000  Uiso   1.00
H1193  H     0.74818   0.24877   0.99906   0.00000  Uiso   1.00
H1194  H     0.75211   0.23787   0.94027   0.00000  Uiso   1.00
C1195  C     0.76639   0.30724   0.95947   0.00000  Uiso   1.00
H1196  H     0.77911   0.32608   0.98873   0.00000  Uiso   1.00
H1197  H     0.78655   0.31524   0.92996   0.00000  Uiso   1.00
C1198  C     0.72194   0.32284   0.95049   0.00000  Uiso   1.00
H1199  H     0.70927   0.30592   0.92017   0.00000  Uiso   1.00
H1200  H     0.72225   0.02672   0.94505   0.00000  Uiso   1.00
H1201  H     0.70118   0.31475   0.97945   0.00000  Uiso   1.00
O1202  O     0.77893   0.10522   0.52585   0.00000  Uiso   1.00
C1203  C     0.73780   0.12228   0.52414   0.00000  Uiso   1.00
H1204  H     0.72978   0.12739   0.98849   0.00000  Uiso   1.00
H1205  H     0.73362   0.15557   0.54142   0.00000  Uiso   1.00
C1206  C     0.70724   0.08738   0.54448   0.00000  Uiso   1.00
H1207  H     0.71046   0.05446   0.52687   0.00000  Uiso   1.00
H1208  H     0.71498   0.08226   0.58017   0.00000  Uiso   1.00
C1209  C     0.99532   0.10260   0.54105   0.00000  Uiso   1.00
H1210  H     0.99116   0.13527   0.55886   0.00000  Uiso   1.00
H1211  H     0.97411   0.07669   0.55646   0.00000  Uiso   1.00
H1212  H     0.98663   0.10659   0.50549   0.00000  Uiso   1.00
N1213  N     0.71112   0.13614   0.67417   0.00000  Uiso   1.00
O1214  O     0.72901   0.09692   0.67369   0.00000  Uiso   1.00
O1215  O     0.70941   0.15965   0.63758   0.00000  Uiso   1.00
N1216  N     0.95531   0.19452   0.82853   0.00000  Uiso   1.00
O1217  O     0.93313   0.23102   0.82919   0.00000  Uiso   1.00
O1218  O     0.95940   0.17129   0.86504   0.00000  Uiso   1.00
N1219  N     0.95609   0.13800   0.67294   0.00000  Uiso   1.00
O1220  O     0.93047   0.16543   0.65377   0.00000  Uiso   1.00
O1221  O     0.96358   0.09902   0.65445   0.00000  Uiso   1.00
N1222  N     0.71077   0.19390   0.82914   0.00000  Uiso   1.00
O1223  O     0.73700   0.16641   0.84731   0.00000  Uiso   1.00
O1224  O     0.70279   0.23217   0.84883   0.00000  Uiso   1.00
O1225  O     0.10559   0.53821   0.74999   0.00000  Uiso   1.00
O1226  O     0.22774   0.46179   0.75000   0.00000  Uiso   1.00
O1227  O     0.22774   0.53821   0.75000   0.00000  Uiso   1.00
O1228  O     0.10559   0.46179   0.74999   0.00000  Uiso   1.00
N1229  N     0.16667   0.61907   0.75000   0.00000  Uiso   1.00
N1230  N     0.16667   0.38093   0.75000   0.00000  Uiso   1.00
C1231  C     0.08678   0.49952   0.75067   0.00000  Uiso   1.00
C1232  C     0.24655   0.50047   0.75032   0.00000  Uiso   1.00
O1233  O     0.16666   0.53822   0.68453   0.00000  Uiso   1.00
O1234  O     0.16667   0.46178   0.81547   0.00000  Uiso   1.00
O1235  O     0.16667   0.53822   0.81547   0.00000  Uiso   1.00
O1236  O     0.16666   0.46178   0.68453   0.00000  Uiso   1.00
C1237  C     0.16624   0.49994   0.66402   0.00000  Uiso   1.00
C1238  C     0.16705   0.50005   0.83614   0.00000  Uiso   1.00
Zn1239 Zn    0.16667   0.55104   0.75000   0.00000  Uiso   1.00
Zn1240 Zn    0.16667   0.44896   0.75000   0.00000  Uiso   1.00
H1241  H     0.20323   0.37639   0.80858   0.00000  Uiso   1.00
H1242  H     0.13003   0.62361   0.69149   0.00000  Uiso   1.00
H1243  H     0.13016   0.37454   0.69141   0.00000  Uiso   1.00
H1244  H     0.20312   0.62548   0.80864   0.00000  Uiso   1.00
C1245  C     0.18696   0.35783   0.78256   0.00000  Uiso   1.00
C1246  C     0.14633   0.64218   0.71747   0.00000  Uiso   1.00
C1247  C     0.14636   0.35680   0.71746   0.00000  Uiso   1.00
C1248  C     0.18694   0.64320   0.78257   0.00000  Uiso   1.00
C1249  C     0.02169   0.48363   0.71306   0.00000  Uiso   1.00
C1250  C     0.31154   0.51552   0.78898   0.00000  Uiso   1.00
C1251  C     0.31180   0.48559   0.71214   0.00000  Uiso   1.00
C1252  C     0.02158   0.51371   0.78977   0.00000  Uiso   1.00
C1253  C     0.19178   0.52958   0.54682   0.00000  Uiso   1.00
C1254  C     0.17688   0.46011   0.95312   0.00000  Uiso   1.00
C1255  C     0.15264   0.53839   0.95357   0.00000  Uiso   1.00
C1256  C     0.13838   0.46888   0.54798   0.00000  Uiso   1.00
C1257  C     0.19068   0.53107   0.59296   0.00000  Uiso   1.00
C1258  C     0.17675   0.46046   0.90685   0.00000  Uiso   1.00
C1259  C     0.15547   0.53910   0.90732   0.00000  Uiso   1.00
C1260  C     0.14024   0.46818   0.59413   0.00000  Uiso   1.00
H1261  H     0.21043   0.55545   0.61044   0.00000  Uiso   1.00
H1262  H     0.18516   0.43008   0.88884   0.00000  Uiso   1.00
H1263  H     0.14810   0.56994   0.88971   0.00000  Uiso   1.00
H1264  H     0.12113   0.44383   0.61252   0.00000  Uiso   1.00
C1265  C     0.16565   0.49979   0.61632   0.00000  Uiso   1.00
C1266  C     0.16666   0.49999   0.88413   0.00000  Uiso   1.00
C1267  C     0.16472   0.49918   0.52439   0.00000  Uiso   1.00
C1268  C     0.16427   0.49904   0.97623   0.00000  Uiso   1.00
C1269  C     0.29069   0.50169   0.75005   0.00000  Uiso   1.00
C1270  C     0.04263   0.49813   0.75157   0.00000  Uiso   1.00
O1271  O     0.21808   0.55906   0.52359   0.00000  Uiso   1.00
C1272  C     0.25690   0.53790   0.51654   0.00000  Uiso   1.00
H1273  H     0.25268   0.50263   0.50368   0.00000  Uiso   1.00
H1274  H     0.27465   0.53705   0.54838   0.00000  Uiso   1.00
C1275  C     0.28223   0.56507   0.98202   0.00000  Uiso   1.00
H1276  H     0.26355   0.56819   0.95103   0.00000  Uiso   1.00
H1277  H     0.28892   0.59959   0.99535   0.00000  Uiso   1.00
C1278  C     0.32350   0.54235   0.97065   0.00000  Uiso   1.00
H1279  H     0.00983   0.53976   0.50092   0.00000  Uiso   1.00
H1280  H     0.00741   0.56279   0.94521   0.00000  Uiso   1.00
H1281  H     0.31755   0.50795   0.95672   0.00000  Uiso   1.00
O1282  O     0.18705   0.42115   0.97607   0.00000  Uiso   1.00
C1283  C     0.23003   0.41137   0.97014   0.00000  Uiso   1.00
H1284  H     0.24452   0.41091   0.50369   0.00000  Uiso   1.00
H1285  H     0.24821   0.43691   0.94992   0.00000  Uiso   1.00
C1286  C     0.23436   0.36446   0.94895   0.00000  Uiso   1.00
H1287  H     0.21911   0.33852   0.97085   0.00000  Uiso   1.00
H1288  H     0.21844   0.36357   0.91612   0.00000  Uiso   1.00
C1289  C     0.28035   0.35283   0.94211   0.00000  Uiso   1.00
H1290  H     0.29618   0.37821   0.92007   0.00000  Uiso   1.00
H1291  H     0.28264   0.65231   0.92615   0.00000  Uiso   1.00
H1292  H     0.29662   0.35218   0.97473   0.00000  Uiso   1.00
O1293  O     0.14240   0.57715   0.97715   0.00000  Uiso   1.00
C1294  C     0.10059   0.58965   0.96867   0.00000  Uiso   1.00
H1295  H     0.08151   0.58210   0.99906   0.00000  Uiso   1.00
H1296  H     0.08544   0.57120   0.94027   0.00000  Uiso   1.00
C1297  C     0.09972   0.64057   0.95947   0.00000  Uiso   1.00
H1298  H     0.11244   0.65941   0.98873   0.00000  Uiso   1.00
H1299  H     0.11988   0.64858   0.92996   0.00000  Uiso   1.00
C1300  C     0.05528   0.65617   0.95049   0.00000  Uiso   1.00
H1301  H     0.04261   0.63925   0.92017   0.00000  Uiso   1.00
H1302  H     0.05558   0.36006   0.94505   0.00000  Uiso   1.00
H1303  H     0.03451   0.64809   0.97945   0.00000  Uiso   1.00
O1304  O     0.11226   0.43855   0.52585   0.00000  Uiso   1.00
C1305  C     0.07113   0.45561   0.52414   0.00000  Uiso   1.00
H1306  H     0.06311   0.46072   0.98849   0.00000  Uiso   1.00
H1307  H     0.06696   0.48890   0.54142   0.00000  Uiso   1.00
C1308  C     0.04057   0.42072   0.54448   0.00000  Uiso   1.00
H1309  H     0.04379   0.38780   0.52687   0.00000  Uiso   1.00
H1310  H     0.04831   0.41559   0.58017   0.00000  Uiso   1.00
C1311  C     0.32865   0.43594   0.54105   0.00000  Uiso   1.00
H1312  H     0.32449   0.46861   0.55886   0.00000  Uiso   1.00
H1313  H     0.30745   0.41003   0.55646   0.00000  Uiso   1.00
H1314  H     0.31996   0.43992   0.50549   0.00000  Uiso   1.00
N1315  N     0.04445   0.46947   0.67417   0.00000  Uiso   1.00
O1316  O     0.06234   0.43026   0.67369   0.00000  Uiso   1.00
O1317  O     0.04274   0.49299   0.63758   0.00000  Uiso   1.00
N1318  N     0.28865   0.52786   0.82853   0.00000  Uiso   1.00
O1319  O     0.26646   0.56435   0.82919   0.00000  Uiso   1.00
O1320  O     0.29274   0.50463   0.86504   0.00000  Uiso   1.00
N1321  N     0.28942   0.47134   0.67294   0.00000  Uiso   1.00
O1322  O     0.26381   0.49876   0.65377   0.00000  Uiso   1.00
O1323  O     0.29691   0.43235   0.65445   0.00000  Uiso   1.00
N1324  N     0.04410   0.52724   0.82914   0.00000  Uiso   1.00
O1325  O     0.07033   0.49974   0.84731   0.00000  Uiso   1.00
O1326  O     0.03613   0.56550   0.84883   0.00000  Uiso   1.00
O1327  O     0.43892   0.53821   0.74999   0.00000  Uiso   1.00
O1328  O     0.56108   0.46179   0.75000   0.00000  Uiso   1.00
O1329  O     0.56108   0.53821   0.75000   0.00000  Uiso   1.00
O1330  O     0.43892   0.46179   0.74999   0.00000  Uiso   1.00
N1331  N     0.50000   0.61907   0.75000   0.00000  Uiso   1.00
N1332  N     0.50000   0.38093   0.75000   0.00000  Uiso   1.00
C1333  C     0.42011   0.49952   0.75067   0.00000  Uiso   1.00
C1334  C     0.57988   0.50047   0.75032   0.00000  Uiso   1.00
O1335  O     0.50000   0.53822   0.68453   0.00000  Uiso   1.00
O1336  O     0.50000   0.46178   0.81547   0.00000  Uiso   1.00
O1337  O     0.50000   0.53822   0.81547   0.00000  Uiso   1.00
O1338  O     0.50000   0.46178   0.68453   0.00000  Uiso   1.00
C1339  C     0.49958   0.49994   0.66402   0.00000  Uiso   1.00
C1340  C     0.50038   0.50005   0.83614   0.00000  Uiso   1.00
Zn1341 Zn    0.50000   0.55104   0.75000   0.00000  Uiso   1.00
Zn1342 Zn    0.50000   0.44896   0.75000   0.00000  Uiso   1.00
H1343  H     0.53656   0.37639   0.80858   0.00000  Uiso   1.00
H1344  H     0.46336   0.62361   0.69149   0.00000  Uiso   1.00
H1345  H     0.46350   0.37454   0.69141   0.00000  Uiso   1.00
H1346  H     0.53645   0.62548   0.80864   0.00000  Uiso   1.00
C1347  C     0.52029   0.35783   0.78256   0.00000  Uiso   1.00
C1348  C     0.47967   0.64218   0.71747   0.00000  Uiso   1.00
C1349  C     0.47969   0.35680   0.71746   0.00000  Uiso   1.00
C1350  C     0.52027   0.64320   0.78257   0.00000  Uiso   1.00
C1351  C     0.35502   0.48363   0.71306   0.00000  Uiso   1.00
C1352  C     0.64488   0.51552   0.78898   0.00000  Uiso   1.00
C1353  C     0.64513   0.48559   0.71214   0.00000  Uiso   1.00
C1354  C     0.35491   0.51371   0.78977   0.00000  Uiso   1.00
C1355  C     0.52511   0.52958   0.54682   0.00000  Uiso   1.00
C1356  C     0.51021   0.46011   0.95312   0.00000  Uiso   1.00
C1357  C     0.48597   0.53839   0.95357   0.00000  Uiso   1.00
C1358  C     0.47171   0.46888   0.54798   0.00000  Uiso   1.00
C1359  C     0.52401   0.53107   0.59296   0.00000  Uiso   1.00
C1360  C     0.51008   0.46046   0.90685   0.00000  Uiso   1.00
C1361  C     0.48881   0.53910   0.90732   0.00000  Uiso   1.00
C1362  C     0.47357   0.46818   0.59413   0.00000  Uiso   1.00
H1363  H     0.54377   0.55545   0.61044   0.00000  Uiso   1.00
H1364  H     0.51850   0.43008   0.88884   0.00000  Uiso   1.00
H1365  H     0.48143   0.56994   0.88971   0.00000  Uiso   1.00
H1366  H     0.45446   0.44383   0.61252   0.00000  Uiso   1.00
C1367  C     0.49899   0.49979   0.61632   0.00000  Uiso   1.00
C1368  C     0.50000   0.49999   0.88413   0.00000  Uiso   1.00
C1369  C     0.49805   0.49918   0.52439   0.00000  Uiso   1.00
C1370  C     0.49760   0.49904   0.97623   0.00000  Uiso   1.00
C1371  C     0.62402   0.50169   0.75005   0.00000  Uiso   1.00
C1372  C     0.37596   0.49813   0.75157   0.00000  Uiso   1.00
O1373  O     0.55141   0.55906   0.52359   0.00000  Uiso   1.00
C1374  C     0.59023   0.53790   0.51654   0.00000  Uiso   1.00
H1375  H     0.58602   0.50263   0.50368   0.00000  Uiso   1.00
H1376  H     0.60798   0.53705   0.54838   0.00000  Uiso   1.00
C1377  C     0.61556   0.56507   0.98202   0.00000  Uiso   1.00
H1378  H     0.59689   0.56819   0.95103   0.00000  Uiso   1.00
H1379  H     0.62225   0.59959   0.99535   0.00000  Uiso   1.00
C1380  C     0.65683   0.54235   0.97065   0.00000  Uiso   1.00
H1381  H     0.34317   0.53976   0.50092   0.00000  Uiso   1.00
H1382  H     0.34074   0.56279   0.94521   0.00000  Uiso   1.00
H1383  H     0.65088   0.50795   0.95672   0.00000  Uiso   1.00
O1384  O     0.52038   0.42115   0.97607   0.00000  Uiso   1.00
C1385  C     0.56336   0.41137   0.97014   0.00000  Uiso   1.00
H1386  H     0.57785   0.41091   0.50369   0.00000  Uiso   1.00
H1387  H     0.58154   0.43691   0.94992   0.00000  Uiso   1.00
C1388  C     0.56769   0.36446   0.94895   0.00000  Uiso   1.00
H1389  H     0.55244   0.33852   0.97085   0.00000  Uiso   1.00
H1390  H     0.55177   0.36357   0.91612   0.00000  Uiso   1.00
C1391  C     0.61369   0.35283   0.94211   0.00000  Uiso   1.00
H1392  H     0.62951   0.37821   0.92007   0.00000  Uiso   1.00
H1393  H     0.61597   0.65231   0.92615   0.00000  Uiso   1.00
H1394  H     0.62995   0.35218   0.97473   0.00000  Uiso   1.00
O1395  O     0.47573   0.57715   0.97715   0.00000  Uiso   1.00
C1396  C     0.43392   0.58965   0.96867   0.00000  Uiso   1.00
H1397  H     0.41484   0.58210   0.99906   0.00000  Uiso   1.00
H1398  H     0.41877   0.57120   0.94027   0.00000  Uiso   1.00
C1399  C     0.43306   0.64057   0.95947   0.00000  Uiso   1.00
H1400  H     0.44578   0.65941   0.98873   0.00000  Uiso   1.00
H1401  H     0.45321   0.64858   0.92996   0.00000  Uiso   1.00
C1402  C     0.38861   0.65617   0.95049   0.00000  Uiso   1.00
H1403  H     0.37594   0.63925   0.92017   0.00000  Uiso   1.00
H1404  H     0.38891   0.36006   0.94505   0.00000  Uiso   1.00
H1405  H     0.36784   0.64809   0.97945   0.00000  Uiso   1.00
O1406  O     0.44560   0.43855   0.52585   0.00000  Uiso   1.00
C1407  C     0.40446   0.45561   0.52414   0.00000  Uiso   1.00
H1408  H     0.39645   0.46072   0.98849   0.00000  Uiso   1.00
H1409  H     0.40029   0.48890   0.54142   0.00000  Uiso   1.00
C1410  C     0.37390   0.42072   0.54448   0.00000  Uiso   1.00
H1411  H     0.37712   0.38780   0.52687   0.00000  Uiso   1.00
H1412  H     0.38165   0.41559   0.58017   0.00000  Uiso   1.00
C1413  C     0.66199   0.43594   0.54105   0.00000  Uiso   1.00
H1414  H     0.65783   0.46861   0.55886   0.00000  Uiso   1.00
H1415  H     0.64078   0.41003   0.55646   0.00000  Uiso   1.00
H1416  H     0.65330   0.43992   0.50549   0.00000  Uiso   1.00
N1417  N     0.37779   0.46947   0.67417   0.00000  Uiso   1.00
O1418  O     0.39567   0.43026   0.67369   0.00000  Uiso   1.00
O1419  O     0.37608   0.49299   0.63758   0.00000  Uiso   1.00
N1420  N     0.62198   0.52786   0.82853   0.00000  Uiso   1.00
O1421  O     0.59979   0.56435   0.82919   0.00000  Uiso   1.00
O1422  O     0.62607   0.50463   0.86504   0.00000  Uiso   1.00
N1423  N     0.62276   0.47134   0.67294   0.00000  Uiso   1.00
O1424  O     0.59714   0.49876   0.65377   0.00000  Uiso   1.00
O1425  O     0.63024   0.43235   0.65445   0.00000  Uiso   1.00
N1426  N     0.37744   0.52724   0.82914   0.00000  Uiso   1.00
O1427  O     0.40366   0.49974   0.84731   0.00000  Uiso   1.00
O1428  O     0.36946   0.56550   0.84883   0.00000  Uiso   1.00
O1429  O     0.77226   0.53821   0.74999   0.00000  Uiso   1.00
O1430  O     0.89441   0.46179   0.75000   0.00000  Uiso   1.00
O1431  O     0.89441   0.53821   0.75000   0.00000  Uiso   1.00
O1432  O     0.77226   0.46179   0.74999   0.00000  Uiso   1.00
N1433  N     0.83333   0.61907   0.75000   0.00000  Uiso   1.00
N1434  N     0.83333   0.38093   0.75000   0.00000  Uiso   1.00
C1435  C     0.75345   0.49952   0.75067   0.00000  Uiso   1.00
C1436  C     0.91322   0.50047   0.75032   0.00000  Uiso   1.00
O1437  O     0.83333   0.53822   0.68453   0.00000  Uiso   1.00
O1438  O     0.83334   0.46178   0.81547   0.00000  Uiso   1.00
O1439  O     0.83334   0.53822   0.81547   0.00000  Uiso   1.00
O1440  O     0.83333   0.46178   0.68453   0.00000  Uiso   1.00
C1441  C     0.83291   0.49994   0.66402   0.00000  Uiso   1.00
C1442  C     0.83372   0.50005   0.83614   0.00000  Uiso   1.00
Zn1443 Zn    0.83333   0.55104   0.75000   0.00000  Uiso   1.00
Zn1444 Zn    0.83333   0.44896   0.75000   0.00000  Uiso   1.00
H1445  H     0.86990   0.37639   0.80858   0.00000  Uiso   1.00
H1446  H     0.79670   0.62361   0.69149   0.00000  Uiso   1.00
H1447  H     0.79683   0.37454   0.69141   0.00000  Uiso   1.00
H1448  H     0.86978   0.62548   0.80864   0.00000  Uiso   1.00
C1449  C     0.85363   0.35783   0.78256   0.00000  Uiso   1.00
C1450  C     0.81300   0.64218   0.71747   0.00000  Uiso   1.00
C1451  C     0.81303   0.35680   0.71746   0.00000  Uiso   1.00
C1452  C     0.85361   0.64320   0.78257   0.00000  Uiso   1.00
C1453  C     0.68835   0.48363   0.71306   0.00000  Uiso   1.00
C1454  C     0.97821   0.51552   0.78898   0.00000  Uiso   1.00
C1455  C     0.97846   0.48559   0.71214   0.00000  Uiso   1.00
C1456  C     0.68824   0.51371   0.78977   0.00000  Uiso   1.00
C1457  C     0.85844   0.52958   0.54682   0.00000  Uiso   1.00
C1458  C     0.84354   0.46011   0.95312   0.00000  Uiso   1.00
C1459  C     0.81931   0.53839   0.95357   0.00000  Uiso   1.00
C1460  C     0.80505   0.46888   0.54798   0.00000  Uiso   1.00
C1461  C     0.85735   0.53107   0.59296   0.00000  Uiso   1.00
C1462  C     0.84341   0.46046   0.90685   0.00000  Uiso   1.00
C1463  C     0.82214   0.53910   0.90732   0.00000  Uiso   1.00
C1464  C     0.80691   0.46818   0.59413   0.00000  Uiso   1.00
H1465  H     0.87710   0.55545   0.61044   0.00000  Uiso   1.00
H1466  H     0.85183   0.43008   0.88884   0.00000  Uiso   1.00
H1467  H     0.81477   0.56994   0.88971   0.00000  Uiso   1.00
H1468  H     0.78779   0.44383   0.61252   0.00000  Uiso   1.00
C1469  C     0.83232   0.49979   0.61632   0.00000  Uiso   1.00
C1470  C     0.83333   0.49999   0.88413   0.00000  Uiso   1.00
C1471  C     0.83138   0.49918   0.52439   0.00000  Uiso   1.00
C1472  C     0.83094   0.49904   0.97623   0.00000  Uiso   1.00
C1473  C     0.95735   0.50169   0.75005   0.00000  Uiso   1.00
C1474  C     0.70930   0.49813   0.75157   0.00000  Uiso   1.00
O1475  O     0.88475   0.55906   0.52359   0.00000  Uiso   1.00
C1476  C     0.92357   0.53790   0.51654   0.00000  Uiso   1.00
H1477  H     0.91935   0.50263   0.50368   0.00000  Uiso   1.00
H1478  H     0.94131   0.53705   0.54838   0.00000  Uiso   1.00
C1479  C     0.94889   0.56507   0.98202   0.00000  Uiso   1.00
H1480  H     0.93022   0.56819   0.95103   0.00000  Uiso   1.00
H1481  H     0.95559   0.59959   0.99535   0.00000  Uiso   1.00
C1482  C     0.99017   0.54235   0.97065   0.00000  Uiso   1.00
H1483  H     0.67650   0.53976   0.50092   0.00000  Uiso   1.00
H1484  H     0.67408   0.56279   0.94521   0.00000  Uiso   1.00
H1485  H     0.98422   0.50795   0.95672   0.00000  Uiso   1.00
O1486  O     0.85372   0.42115   0.97607   0.00000  Uiso   1.00
C1487  C     0.89670   0.41137   0.97014   0.00000  Uiso   1.00
H1488  H     0.91119   0.41091   0.50369   0.00000  Uiso   1.00
H1489  H     0.91488   0.43691   0.94992   0.00000  Uiso   1.00
C1490  C     0.90103   0.36446   0.94895   0.00000  Uiso   1.00
H1491  H     0.88577   0.33852   0.97085   0.00000  Uiso   1.00
H1492  H     0.88510   0.36357   0.91612   0.00000  Uiso   1.00
C1493  C     0.94702   0.35283   0.94211   0.00000  Uiso   1.00
H1494  H     0.96284   0.37821   0.92007   0.00000  Uiso   1.00
H1495  H     0.94930   0.65231   0.92615   0.00000  Uiso   1.00
H1496  H     0.96328   0.35218   0.97473   0.00000  Uiso   1.00
O1497  O     0.80907   0.57715   0.97715   0.00000  Uiso   1.00
C1498  C     0.76725   0.58965   0.96867   0.00000  Uiso   1.00
H1499  H     0.74818   0.58210   0.99906   0.00000  Uiso   1.00
H1500  H     0.75211   0.57120   0.94027   0.00000  Uiso   1.00
C1501  C     0.76639   0.64057   0.95947   0.00000  Uiso   1.00
H1502  H     0.77911   0.65941   0.98873   0.00000  Uiso   1.00
H1503  H     0.78655   0.64858   0.92996   0.00000  Uiso   1.00
C1504  C     0.72194   0.65617   0.95049   0.00000  Uiso   1.00
H1505  H     0.70927   0.63925   0.92017   0.00000  Uiso   1.00
H1506  H     0.72225   0.36006   0.94505   0.00000  Uiso   1.00
H1507  H     0.70118   0.64809   0.97945   0.00000  Uiso   1.00
O1508  O     0.77893   0.43855   0.52585   0.00000  Uiso   1.00
C1509  C     0.73780   0.45561   0.52414   0.00000  Uiso   1.00
H1510  H     0.72978   0.46072   0.98849   0.00000  Uiso   1.00
H1511  H     0.73362   0.48890   0.54142   0.00000  Uiso   1.00
C1512  C     0.70724   0.42072   0.54448   0.00000  Uiso   1.00
H1513  H     0.71046   0.38780   0.52687   0.00000  Uiso   1.00
H1514  H     0.71498   0.41559   0.58017   0.00000  Uiso   1.00
C1515  C     0.99532   0.43594   0.54105   0.00000  Uiso   1.00
H1516  H     0.99116   0.46861   0.55886   0.00000  Uiso   1.00
H1517  H     0.97411   0.41003   0.55646   0.00000  Uiso   1.00
H1518  H     0.98663   0.43992   0.50549   0.00000  Uiso   1.00
N1519  N     0.71112   0.46947   0.67417   0.00000  Uiso   1.00
O1520  O     0.72901   0.43026   0.67369   0.00000  Uiso   1.00
O1521  O     0.70941   0.49299   0.63758   0.00000  Uiso   1.00
N1522  N     0.95531   0.52786   0.82853   0.00000  Uiso   1.00
O1523  O     0.93313   0.56435   0.82919   0.00000  Uiso   1.00
O1524  O     0.95940   0.50463   0.86504   0.00000  Uiso   1.00
N1525  N     0.95609   0.47134   0.67294   0.00000  Uiso   1.00
O1526  O     0.93047   0.49876   0.65377   0.00000  Uiso   1.00
O1527  O     0.96358   0.43235   0.65445   0.00000  Uiso   1.00
N1528  N     0.71077   0.52724   0.82914   0.00000  Uiso   1.00
O1529  O     0.73700   0.49974   0.84731   0.00000  Uiso   1.00
O1530  O     0.70279   0.56550   0.84883   0.00000  Uiso   1.00
O1531  O     0.10559   0.87154   0.74999   0.00000  Uiso   1.00
O1532  O     0.22774   0.79513   0.75000   0.00000  Uiso   1.00
O1533  O     0.22774   0.87154   0.75000   0.00000  Uiso   1.00
O1534  O     0.10559   0.79513   0.74999   0.00000  Uiso   1.00
N1535  N     0.16667   0.95240   0.75000   0.00000  Uiso   1.00
N1536  N     0.16667   0.71427   0.75000   0.00000  Uiso   1.00
C1537  C     0.08678   0.83285   0.75067   0.00000  Uiso   1.00
C1538  C     0.24655   0.83380   0.75032   0.00000  Uiso   1.00
O1539  O     0.16666   0.87155   0.68453   0.00000  Uiso   1.00
O1540  O     0.16667   0.79511   0.81547   0.00000  Uiso   1.00
O1541  O     0.16667   0.87155   0.81547   0.00000  Uiso   1.00
O1542  O     0.16666   0.79511   0.68453   0.00000  Uiso   1.00
C1543  C     0.16624   0.83328   0.66402   0.00000  Uiso   1.00
C1544  C     0.16705   0.83338   0.83614   0.00000  Uiso   1.00
Zn1545 Zn    0.16667   0.88437   0.75000   0.00000  Uiso   1.00
Zn1546 Zn    0.16667   0.78229   0.75000   0.00000  Uiso   1.00
H1547  H     0.20323   0.70972   0.80858   0.00000  Uiso   1.00
H1548  H     0.13003   0.95695   0.69149   0.00000  Uiso   1.00
H1549  H     0.13016   0.70787   0.69141   0.00000  Uiso   1.00
H1550  H     0.20312   0.95881   0.80864   0.00000  Uiso   1.00
C1551  C     0.18696   0.69116   0.78256   0.00000  Uiso   1.00
C1552  C     0.14633   0.97551   0.71747   0.00000  Uiso   1.00
C1553  C     0.14636   0.69014   0.71746   0.00000  Uiso   1.00
C1554  C     0.18694   0.97653   0.78257   0.00000  Uiso   1.00
C1555  C     0.02169   0.81697   0.71306   0.00000  Uiso   1.00
C1556  C     0.31154   0.84886   0.78898   0.00000  Uiso   1.00
C1557  C     0.31180   0.81893   0.71214   0.00000  Uiso   1.00
C1558  C     0.02158   0.84705   0.78977   0.00000  Uiso   1.00
C1559  C     0.19178   0.86292   0.54682   0.00000  Uiso   1.00
C1560  C     0.17688   0.79344   0.95312   0.00000  Uiso   1.00
C1561  C     0.15264   0.87172   0.95357   0.00000  Uiso   1.00
C1562  C     0.13838   0.80222   0.54798   0.00000  Uiso   1.00
C1563  C     0.19068   0.86441   0.59296   0.00000  Uiso   1.00
C1564  C     0.17675   0.79379   0.90685   0.00000  Uiso   1.00
C1565  C     0.15547   0.87243   0.90732   0.00000  Uiso   1.00
C1566  C     0.14024   0.80151   0.59413   0.00000  Uiso   1.00
H1567  H     0.21043   0.88878   0.61044   0.00000  Uiso   1.00
H1568  H     0.18516   0.76342   0.88884   0.00000  Uiso   1.00
H1569  H     0.14810   0.90327   0.88971   0.00000  Uiso   1.00
H1570  H     0.12113   0.77716   0.61252   0.00000  Uiso   1.00
C1571  C     0.16565   0.83313   0.61632   0.00000  Uiso   1.00
C1572  C     0.16666   0.83332   0.88413   0.00000  Uiso   1.00
C1573  C     0.16472   0.83252   0.52439   0.00000  Uiso   1.00
C1574  C     0.16427   0.83237   0.97623   0.00000  Uiso   1.00
C1575  C     0.29069   0.83502   0.75005   0.00000  Uiso   1.00
C1576  C     0.04263   0.83147   0.75157   0.00000  Uiso   1.00
O1577  O     0.21808   0.89239   0.52359   0.00000  Uiso   1.00
C1578  C     0.25690   0.87123   0.51654   0.00000  Uiso   1.00
H1579  H     0.25268   0.83597   0.50368   0.00000  Uiso   1.00
H1580  H     0.27465   0.87038   0.54838   0.00000  Uiso   1.00
C1581  C     0.28223   0.89840   0.98202   0.00000  Uiso   1.00
H1582  H     0.26355   0.90152   0.95103   0.00000  Uiso   1.00
H1583  H     0.28892   0.93293   0.99535   0.00000  Uiso   1.00
C1584  C     0.32350   0.87568   0.97065   0.00000  Uiso   1.00
H1585  H     0.00983   0.87309   0.50092   0.00000  Uiso   1.00
H1586  H     0.00741   0.89612   0.94521   0.00000  Uiso   1.00
H1587  H     0.31755   0.84128   0.95672   0.00000  Uiso   1.00
O1588  O     0.18705   0.75449   0.97607   0.00000  Uiso   1.00
C1589  C     0.23003   0.74470   0.97014   0.00000  Uiso   1.00
H1590  H     0.24452   0.74425   0.50369   0.00000  Uiso   1.00
H1591  H     0.24821   0.77025   0.94992   0.00000  Uiso   1.00
C1592  C     0.23436   0.69780   0.94895   0.00000  Uiso   1.00
H1593  H     0.21911   0.67185   0.97085   0.00000  Uiso   1.00
H1594  H     0.21844   0.69691   0.91612   0.00000  Uiso   1.00
C1595  C     0.28035   0.68616   0.94211   0.00000  Uiso   1.00
H1596  H     0.29618   0.71154   0.92007   0.00000  Uiso   1.00
H1597  H     0.28264   0.98564   0.92615   0.00000  Uiso   1.00
H1598  H     0.29662   0.68552   0.97473   0.00000  Uiso   1.00
O1599  O     0.14240   0.91049   0.97715   0.00000  Uiso   1.00
C1600  C     0.10059   0.92298   0.96867   0.00000  Uiso   1.00
H1601  H     0.08151   0.91543   0.99906   0.00000  Uiso   1.00
H1602  H     0.08544   0.90453   0.94027   0.00000  Uiso   1.00
C1603  C     0.09972   0.97390   0.95947   0.00000  Uiso   1.00
H1604  H     0.11244   0.99275   0.98873   0.00000  Uiso   1.00
H1605  H     0.11988   0.98191   0.92996   0.00000  Uiso   1.00
C1606  C     0.05528   0.98951   0.95049   0.00000  Uiso   1.00
H1607  H     0.04261   0.97258   0.92017   0.00000  Uiso   1.00
H1608  H     0.05558   0.69339   0.94505   0.00000  Uiso   1.00
H1609  H     0.03451   0.98142   0.97945   0.00000  Uiso   1.00
O1610  O     0.11226   0.77188   0.52585   0.00000  Uiso   1.00
C1611  C     0.07113   0.78895   0.52414   0.00000  Uiso   1.00
H1612  H     0.06311   0.79406   0.98849   0.00000  Uiso   1.00
H1613  H     0.06696   0.82223   0.54142   0.00000  Uiso   1.00
C1614  C     0.04057   0.75405   0.54448   0.00000  Uiso   1.00
H1615  H     0.04379   0.72113   0.52687   0.00000  Uiso   1.00
H1616  H     0.04831   0.74893   0.58017   0.00000  Uiso   1.00
C1617  C     0.32865   0.76927   0.54105   0.00000  Uiso   1.00
H1618  H     0.32449   0.80194   0.55886   0.00000  Uiso   1.00
H1619  H     0.30745   0.74336   0.55646   0.00000  Uiso   1.00
H1620  H     0.31996   0.77326   0.50549   0.00000  Uiso   1.00
N1621  N     0.04445   0.80280   0.67417   0.00000  Uiso   1.00
O1622  O     0.06234   0.76359   0.67369   0.00000  Uiso   1.00
O1623  O     0.04274   0.82632   0.63758   0.00000  Uiso   1.00
N1624  N     0.28865   0.86119   0.82853   0.00000  Uiso   1.00
O1625  O     0.26646   0.89769   0.82919   0.00000  Uiso   1.00
O1626  O     0.29274   0.83796   0.86504   0.00000  Uiso   1.00
N1627  N     0.28942   0.80467   0.67294   0.00000  Uiso   1.00
O1628  O     0.26381   0.83210   0.65377   0.00000  Uiso   1.00
O1629  O     0.29691   0.76569   0.65445   0.00000  Uiso   1.00
N1630  N     0.04410   0.86057   0.82914   0.00000  Uiso   1.00
O1631  O     0.07033   0.83308   0.84731   0.00000  Uiso   1.00
O1632  O     0.03613   0.89883   0.84883   0.00000  Uiso   1.00
O1633  O     0.43892   0.87154   0.74999   0.00000  Uiso   1.00
O1634  O     0.56108   0.79513   0.75000   0.00000  Uiso   1.00
O1635  O     0.56108   0.87154   0.75000   0.00000  Uiso   1.00
O1636  O     0.43892   0.79513   0.74999   0.00000  Uiso   1.00
N1637  N     0.50000   0.95240   0.75000   0.00000  Uiso   1.00
N1638  N     0.50000   0.71427   0.75000   0.00000  Uiso   1.00
C1639  C     0.42011   0.83285   0.75067   0.00000  Uiso   1.00
C1640  C     0.57988   0.83380   0.75032   0.00000  Uiso   1.00
O1641  O     0.50000   0.87155   0.68453   0.00000  Uiso   1.00
O1642  O     0.50000   0.79511   0.81547   0.00000  Uiso   1.00
O1643  O     0.50000   0.87155   0.81547   0.00000  Uiso   1.00
O1644  O     0.50000   0.79511   0.68453   0.00000  Uiso   1.00
C1645  C     0.49958   0.83328   0.66402   0.00000  Uiso   1.00
C1646  C     0.50038   0.83338   0.83614   0.00000  Uiso   1.00
Zn1647 Zn    0.50000   0.88437   0.75000   0.00000  Uiso   1.00
Zn1648 Zn    0.50000   0.78229   0.75000   0.00000  Uiso   1.00
H1649  H     0.53656   0.70972   0.80858   0.00000  Uiso   1.00
H1650  H     0.46336   0.95695   0.69149   0.00000  Uiso   1.00
H1651  H     0.46350   0.70787   0.69141   0.00000  Uiso   1.00
H1652  H     0.53645   0.95881   0.80864   0.00000  Uiso   1.00
C1653  C     0.52029   0.69116   0.78256   0.00000  Uiso   1.00
C1654  C     0.47967   0.97551   0.71747   0.00000  Uiso   1.00
C1655  C     0.47969   0.69014   0.71746   0.00000  Uiso   1.00
C1656  C     0.52027   0.97653   0.78257   0.00000  Uiso   1.00
C1657  C     0.35502   0.81697   0.71306   0.00000  Uiso   1.00
C1658  C     0.64488   0.84886   0.78898   0.00000  Uiso   1.00
C1659  C     0.64513   0.81893   0.71214   0.00000  Uiso   1.00
C1660  C     0.35491   0.84705   0.78977   0.00000  Uiso   1.00
C1661  C     0.52511   0.86292   0.54682   0.00000  Uiso   1.00
C1662  C     0.51021   0.79344   0.95312   0.00000  Uiso   1.00
C1663  C     0.48597   0.87172   0.95357   0.00000  Uiso   1.00
C1664  C     0.47171   0.80222   0.54798   0.00000  Uiso   1.00
C1665  C     0.52401   0.86441   0.59296   0.00000  Uiso   1.00
C1666  C     0.51008   0.79379   0.90685   0.00000  Uiso   1.00
C1667  C     0.48881   0.87243   0.90732   0.00000  Uiso   1.00
C1668  C     0.47357   0.80151   0.59413   0.00000  Uiso   1.00
H1669  H     0.54377   0.88878   0.61044   0.00000  Uiso   1.00
H1670  H     0.51850   0.76342   0.88884   0.00000  Uiso   1.00
H1671  H     0.48143   0.90327   0.88971   0.00000  Uiso   1.00
H1672  H     0.45446   0.77716   0.61252   0.00000  Uiso   1.00
C1673  C     0.49899   0.83313   0.61632   0.00000  Uiso   1.00
C1674  C     0.50000   0.83332   0.88413   0.00000  Uiso   1.00
C1675  C     0.49805   0.83252   0.52439   0.00000  Uiso   1.00
C1676  C     0.49760   0.83237   0.97623   0.00000  Uiso   1.00
C1677  C     0.62402   0.83502   0.75005   0.00000  Uiso   1.00
C1678  C     0.37596   0.83147   0.75157   0.00000  Uiso   1.00
O1679  O     0.55141   0.89239   0.52359   0.00000  Uiso   1.00
C1680  C     0.59023   0.87123   0.51654   0.00000  Uiso   1.00
H1681  H     0.58602   0.83597   0.50368   0.00000  Uiso   1.00
H1682  H     0.60798   0.87038   0.54838   0.00000  Uiso   1.00
C1683  C     0.61556   0.89840   0.98202   0.00000  Uiso   1.00
H1684  H     0.59689   0.90152   0.95103   0.00000  Uiso   1.00
H1685  H     0.62225   0.93293   0.99535   0.00000  Uiso   1.00
C1686  C     0.65683   0.87568   0.97065   0.00000  Uiso   1.00
H1687  H     0.34317   0.87309   0.50092   0.00000  Uiso   1.00
H1688  H     0.34074   0.89612   0.94521   0.00000  Uiso   1.00
H1689  H     0.65088   0.84128   0.95672   0.00000  Uiso   1.00
O1690  O     0.52038   0.75449   0.97607   0.00000  Uiso   1.00
C1691  C     0.56336   0.74470   0.97014   0.00000  Uiso   1.00
H1692  H     0.57785   0.74425   0.50369   0.00000  Uiso   1.00
H1693  H     0.58154   0.77025   0.94992   0.00000  Uiso   1.00
C1694  C     0.56769   0.69780   0.94895   0.00000  Uiso   1.00
H1695  H     0.55244   0.67185   0.97085   0.00000  Uiso   1.00
H1696  H     0.55177   0.69691   0.91612   0.00000  Uiso   1.00
C1697  C     0.61369   0.68616   0.94211   0.00000  Uiso   1.00
H1698  H     0.62951   0.71154   0.92007   0.00000  Uiso   1.00
H1699  H     0.61597   0.98564   0.92615   0.00000  Uiso   1.00
H1700  H     0.62995   0.68552   0.97473   0.00000  Uiso   1.00
O1701  O     0.47573   0.91049   0.97715   0.00000  Uiso   1.00
C1702  C     0.43392   0.92298   0.96867   0.00000  Uiso   1.00
H1703  H     0.41484   0.91543   0.99906   0.00000  Uiso   1.00
H1704  H     0.41877   0.90453   0.94027   0.00000  Uiso   1.00
C1705  C     0.43306   0.97390   0.95947   0.00000  Uiso   1.00
H1706  H     0.44578   0.99275   0.98873   0.00000  Uiso   1.00
H1707  H     0.45321   0.98191   0.92996   0.00000  Uiso   1.00
C1708  C     0.38861   0.98951   0.95049   0.00000  Uiso   1.00
H1709  H     0.37594   0.97258   0.92017   0.00000  Uiso   1.00
H1710  H     0.38891   0.69339   0.94505   0.00000  Uiso   1.00
H1711  H     0.36784   0.98142   0.97945   0.00000  Uiso   1.00
O1712  O     0.44560   0.77188   0.52585   0.00000  Uiso   1.00
C1713  C     0.40446   0.78895   0.52414   0.00000  Uiso   1.00
H1714  H     0.39645   0.79406   0.98849   0.00000  Uiso   1.00
H1715  H     0.40029   0.82223   0.54142   0.00000  Uiso   1.00
C1716  C     0.37390   0.75405   0.54448   0.00000  Uiso   1.00
H1717  H     0.37712   0.72113   0.52687   0.00000  Uiso   1.00
H1718  H     0.38165   0.74893   0.58017   0.00000  Uiso   1.00
C1719  C     0.66199   0.76927   0.54105   0.00000  Uiso   1.00
H1720  H     0.65783   0.80194   0.55886   0.00000  Uiso   1.00
H1721  H     0.64078   0.74336   0.55646   0.00000  Uiso   1.00
H1722  H     0.65330   0.77326   0.50549   0.00000  Uiso   1.00
N1723  N     0.37779   0.80280   0.67417   0.00000  Uiso   1.00
O1724  O     0.39567   0.76359   0.67369   0.00000  Uiso   1.00
O1725  O     0.37608   0.82632   0.63758   0.00000  Uiso   1.00
N1726  N     0.62198   0.86119   0.82853   0.00000  Uiso   1.00
O1727  O     0.59979   0.89769   0.82919   0.00000  Uiso   1.00
O1728  O     0.62607   0.83796   0.86504   0.00000  Uiso   1.00
N1729  N     0.62276   0.80467   0.67294   0.00000  Uiso   1.00
O1730  O     0.59714   0.83210   0.65377   0.00000  Uiso   1.00
O1731  O     0.63024   0.76569   0.65445   0.00000  Uiso   1.00
N1732  N     0.37744   0.86057   0.82914   0.00000  Uiso   1.00
O1733  O     0.40366   0.83308   0.84731   0.00000  Uiso   1.00
O1734  O     0.36946   0.89883   0.84883   0.00000  Uiso   1.00
O1735  O     0.77226   0.87154   0.74999   0.00000  Uiso   1.00
O1736  O     0.89441   0.79513   0.75000   0.00000  Uiso   1.00
O1737  O     0.89441   0.87154   0.75000   0.00000  Uiso   1.00
O1738  O     0.77226   0.79513   0.74999   0.00000  Uiso   1.00
N1739  N     0.83333   0.95240   0.75000   0.00000  Uiso   1.00
N1740  N     0.83333   0.71427   0.75000   0.00000  Uiso   1.00
C1741  C     0.75345   0.83285   0.75067   0.00000  Uiso   1.00
C1742  C     0.91322   0.83380   0.75032   0.00000  Uiso   1.00
O1743  O     0.83333   0.87155   0.68453   0.00000  Uiso   1.00
O1744  O     0.83334   0.79511   0.81547   0.00000  Uiso   1.00
O1745  O     0.83334   0.87155   0.81547   0.00000  Uiso   1.00
O1746  O     0.83333   0.79511   0.68453   0.00000  Uiso   1.00
C1747  C     0.83291   0.83328   0.66402   0.00000  Uiso   1.00
C1748  C     0.83372   0.83338   0.83614   0.00000  Uiso   1.00
Zn1749 Zn    0.83333   0.88437   0.75000   0.00000  Uiso   1.00
Zn1750 Zn    0.83333   0.78229   0.75000   0.00000  Uiso   1.00
H1751  H     0.86990   0.70972   0.80858   0.00000  Uiso   1.00
H1752  H     0.79670   0.95695   0.69149   0.00000  Uiso   1.00
H1753  H     0.79683   0.70787   0.69141   0.00000  Uiso   1.00
H1754  H     0.86978   0.95881   0.80864   0.00000  Uiso   1.00
C1755  C     0.85363   0.69116   0.78256   0.00000  Uiso   1.00
C1756  C     0.81300   0.97551   0.71747   0.00000  Uiso   1.00
C1757  C     0.81303   0.69014   0.71746   0.00000  Uiso   1.00
C1758  C     0.85361   0.97653   0.78257   0.00000  Uiso   1.00
C1759  C     0.68835   0.81697   0.71306   0.00000  Uiso   1.00
C1760  C     0.97821   0.84886   0.78898   0.00000  Uiso   1.00
C1761  C     0.97846   0.81893   0.71214   0.00000  Uiso   1.00
C1762  C     0.68824   0.84705   0.78977   0.00000  Uiso   1.00
C1763  C     0.85844   0.86292   0.54682   0.00000  Uiso   1.00
C1764  C     0.84354   0.79344   0.95312   0.00000  Uiso   1.00
C1765  C     0.81931   0.87172   0.95357   0.00000  Uiso   1.00
C1766  C     0.80505   0.80222   0.54798   0.00000  Uiso   1.00
C1767  C     0.85735   0.86441   0.59296   0.00000  Uiso   1.00
C1768  C     0.84341   0.79379   0.90685   0.00000  Uiso   1.00
C1769  C     0.82214   0.87243   0.90732   0.00000  Uiso   1.00
C1770  C     0.80691   0.80151   0.59413   0.00000  Uiso   1.00
H1771  H     0.87710   0.88878   0.61044   0.00000  Uiso   1.00
H1772  H     0.85183   0.76342   0.88884   0.00000  Uiso   1.00
H1773  H     0.81477   0.90327   0.88971   0.00000  Uiso   1.00
H1774  H     0.78779   0.77716   0.61252   0.00000  Uiso   1.00
C1775  C     0.83232   0.83313   0.61632   0.00000  Uiso   1.00
C1776  C     0.83333   0.83332   0.88413   0.00000  Uiso   1.00
C1777  C     0.83138   0.83252   0.52439   0.00000  Uiso   1.00
C1778  C     0.83094   0.83237   0.97623   0.00000  Uiso   1.00
C1779  C     0.95735   0.83502   0.75005   0.00000  Uiso   1.00
C1780  C     0.70930   0.83147   0.75157   0.00000  Uiso   1.00
O1781  O     0.88475   0.89239   0.52359   0.00000  Uiso   1.00
C1782  C     0.92357   0.87123   0.51654   0.00000  Uiso   1.00
H1783  H     0.91935   0.83597   0.50368   0.00000  Uiso   1.00
H1784  H     0.94131   0.87038   0.54838   0.00000  Uiso   1.00
C1785  C     0.94889   0.89840   0.98202   0.00000  Uiso   1.00
H1786  H     0.93022   0.90152   0.95103   0.00000  Uiso   1.00
H1787  H     0.95559   0.93293   0.99535   0.00000  Uiso   1.00
C1788  C     0.99017   0.87568   0.97065   0.00000  Uiso   1.00
H1789  H     0.67650   0.87309   0.50092   0.00000  Uiso   1.00
H1790  H     0.67408   0.89612   0.94521   0.00000  Uiso   1.00
H1791  H     0.98422   0.84128   0.95672   0.00000  Uiso   1.00
O1792  O     0.85372   0.75449   0.97607   0.00000  Uiso   1.00
C1793  C     0.89670   0.74470   0.97014   0.00000  Uiso   1.00
H1794  H     0.91119   0.74425   0.50369   0.00000  Uiso   1.00
H1795  H     0.91488   0.77025   0.94992   0.00000  Uiso   1.00
C1796  C     0.90103   0.69780   0.94895   0.00000  Uiso   1.00
H1797  H     0.88577   0.67185   0.97085   0.00000  Uiso   1.00
H1798  H     0.88510   0.69691   0.91612   0.00000  Uiso   1.00
C1799  C     0.94702   0.68616   0.94211   0.00000  Uiso   1.00
H1800  H     0.96284   0.71154   0.92007   0.00000  Uiso   1.00
H1801  H     0.94930   0.98564   0.92615   0.00000  Uiso   1.00
H1802  H     0.96328   0.68552   0.97473   0.00000  Uiso   1.00
O1803  O     0.80907   0.91049   0.97715   0.00000  Uiso   1.00
C1804  C     0.76725   0.92298   0.96867   0.00000  Uiso   1.00
H1805  H     0.74818   0.91543   0.99906   0.00000  Uiso   1.00
H1806  H     0.75211   0.90453   0.94027   0.00000  Uiso   1.00
C1807  C     0.76639   0.97390   0.95947   0.00000  Uiso   1.00
H1808  H     0.77911   0.99275   0.98873   0.00000  Uiso   1.00
H1809  H     0.78655   0.98191   0.92996   0.00000  Uiso   1.00
C1810  C     0.72194   0.98951   0.95049   0.00000  Uiso   1.00
H1811  H     0.70927   0.97258   0.92017   0.00000  Uiso   1.00
H1812  H     0.72225   0.69339   0.94505   0.00000  Uiso   1.00
H1813  H     0.70118   0.98142   0.97945   0.00000  Uiso   1.00
O1814  O     0.77893   0.77188   0.52585   0.00000  Uiso   1.00
C1815  C     0.73780   0.78895   0.52414   0.00000  Uiso   1.00
H1816  H     0.72978   0.79406   0.98849   0.00000  Uiso   1.00
H1817  H     0.73362   0.82223   0.54142   0.00000  Uiso   1.00
C1818  C     0.70724   0.75405   0.54448   0.00000  Uiso   1.00
H1819  H     0.71046   0.72113   0.52687   0.00000  Uiso   1.00
H1820  H     0.71498   0.74893   0.58017   0.00000  Uiso   1.00
C1821  C     0.99532   0.76927   0.54105   0.00000  Uiso   1.00
H1822  H     0.99116   0.80194   0.55886   0.00000  Uiso   1.00
H1823  H     0.97411   0.74336   0.55646   0.00000  Uiso   1.00
H1824  H     0.98663   0.77326   0.50549   0.00000  Uiso   1.00
N1825  N     0.71112   0.80280   0.67417   0.00000  Uiso   1.00
O1826  O     0.72901   0.76359   0.67369   0.00000  Uiso   1.00
O1827  O     0.70941   0.82632   0.63758   0.00000  Uiso   1.00
N1828  N     0.95531   0.86119   0.82853   0.00000  Uiso   1.00
O1829  O     0.93313   0.89769   0.82919   0.00000  Uiso   1.00
O1830  O     0.95940   0.83796   0.86504   0.00000  Uiso   1.00
N1831  N     0.95609   0.80467   0.67294   0.00000  Uiso   1.00
O1832  O     0.93047   0.83210   0.65377   0.00000  Uiso   1.00
O1833  O     0.96358   0.76569   0.65445   0.00000  Uiso   1.00
N1834  N     0.71077   0.86057   0.82914   0.00000  Uiso   1.00
O1835  O     0.73700   0.83308   0.84731   0.00000  Uiso   1.00
O1836  O     0.70279   0.89883   0.84883   0.00000  Uiso   1.00
loop_
_geom_bond_atom_site_label_1
_geom_bond_atom_site_label_2
_geom_bond_distance
_geom_bond_site_symmetry_2
_ccdc_geom_bond_type
O1     C7      1.280   .     A
O1     Zn15    1.978   .     S
O2     Zn16    1.978   .     S
O2     C8      1.279   .     A
O3     C8      1.276   .     A
O3     Zn15    1.993   .     S
O4     C7      1.275   .     A
O4     Zn16    1.993   .     S
N5     C22     1.366   .     A
N5     C24     1.366   .     A
N5     Zn15    2.008   .     S
N6     C21     1.366   .     A
N6     C23     1.366   .     A
N6     Zn16    2.008   .     S
C7     C46     1.409   .     S
C8     C45     1.408   .     S
O9     C13     1.285   .     A
O9     Zn15    1.997   .     S
O10    C14     1.287   .     A
O10    Zn16    1.997   .     S
O11    C14     1.287   .     A
O11    Zn15    1.998   .     S
O12    Zn16    1.998   .     S
O12    C13     1.285   .     A
C13    C41     1.429   .     S
C14    C42     1.438   .     S
H17    C21     1.082   .     S
H18    C22     1.082   .     S
H19    C23     1.081   .     S
H20    C24     1.081   .     S
C21    C636    1.415   1_545 S
C22    C329    1.415   .     S
C23    C634    1.415   1_545 S
C24    C327    1.415   .     S
C25    N91     1.434   .     S
C25    C46     1.400   .     A
C25    C231    1.382   1_455 S
C26    N94     1.437   .     S
C26    C45     1.403   .     A
C26    C130    1.386   .     S
C27    C45     1.402   .     A
C27    N97     1.437   .     S
C27    C127    1.382   .     S
C28    C46     1.403   .     A
C28    N100    1.438   .     S
C28    C230    1.386   1_455 S
C29    O47     1.382   .     S
C29    C33     1.383   .     A
C29    C43     1.406   .     A
C30    C44     1.404   .     A
C30    C34     1.386   .     A
C30    O58     1.386   .     S
C31    C44     1.404   .     A
C31    C35     1.388   .     A
C31    O69     1.386   .     S
C32    C36     1.384   .     A
C32    O80     1.383   .     S
C32    C43     1.403   .     A
C33    H37     1.084   .     S
C33    C41     1.395   .     A
C34    C42     1.396   .     A
C34    H38     1.083   .     S
C35    C42     1.396   .     A
C35    H39     1.084   .     S
C36    C41     1.395   .     A
C36    H40     1.082   .     S
C43    C962    1.443   1_554 S
C44    C961    1.443   .     S
O47    C48     1.412   .     S
C48    H50     1.114   .     S
C48    H49     1.115   .     S
C48    C969    1.527   1_554 S
C51    H52     1.112   .     S
C51    H53     1.111   .     S
C51    C54     1.525   .     S
C51    C966    1.527   .     S
C54    H57     1.110   .     S
C54    H1075   1.110   .     S
C54    H158    1.109   .     S
H55    C1176   1.110   1_454 S
H56    C258    1.109   1_455 S
O58    C59     1.417   .     S
C59    H61     1.119   .     S
C59    C62     1.530   .     S
C59    H978    1.110   .     S
H60    C977    1.110   1_554 S
C62    H64     1.111   .     S
C62    H63     1.112   .     S
C62    C65     1.526   .     S
C65    H68     1.111   .     S
C65    H66     1.111   .     S
C65    H679    1.110   1_545 S
H67    C371    1.110   .     S
O69    C70     1.416   .     S
C70    H71     1.112   .     S
C70    C73     1.529   .     S
C70    H72     1.117   .     S
C73    H74     1.112   .     S
C73    H75     1.112   .     S
C73    C76     1.526   .     S
C76    H79     1.111   .     S
C76    H77     1.111   .     S
C76    H384    1.111   .     S
H78    C688    1.111   1_545 S
O80    C81     1.416   .     S
C81    H83     1.119   .     S
C81    C84     1.529   .     S
C81    H1000   1.112   1_554 S
H82    C999    1.112   .     S
C84    H86     1.111   .     S
C84    H85     1.110   .     S
C84    C291    1.525   1_455 S
C87    H88     1.111   .     S
C87    H89     1.110   .     S
C87    H90     1.110   .     S
C87    C186    1.525   .     S
N91    O93     1.301   .     A
N91    O92     1.300   .     A
N94    O95     1.300   .     A
N94    O96     1.301   .     A
N97    O99     1.301   .     A
N97    O98     1.300   .     A
N100   O102    1.301   .     A
N100   O101    1.300   .     A
O103   C109    1.280   .     A
O103   Zn117   1.978   .     S
O104   Zn118   1.978   .     S
O104   C110    1.279   .     A
O105   C110    1.276   .     A
O105   Zn117   1.993   .     S
O106   C109    1.275   .     A
O106   Zn118   1.993   .     S
N107   C124    1.366   .     A
N107   C126    1.366   .     A
N107   Zn117   2.008   .     S
N108   C123    1.366   .     A
N108   C125    1.366   .     A
N108   Zn118   2.008   .     S
C109   C148    1.409   .     S
C110   C147    1.408   .     S
O111   C115    1.285   .     A
O111   Zn117   1.997   .     S
O112   C116    1.287   .     A
O112   Zn118   1.997   .     S
O113   C116    1.287   .     A
O113   Zn117   1.998   .     S
O114   Zn118   1.998   .     S
O114   C115    1.285   .     A
C115   C143    1.429   .     S
C116   C144    1.438   .     S
H119   C123    1.082   .     S
H120   C124    1.082   .     S
H121   C125    1.081   .     S
H122   C126    1.081   .     S
C123   C738    1.415   1_545 S
C124   C431    1.415   .     S
C125   C736    1.415   1_545 S
C126   C429    1.415   .     S
C127   N193    1.434   .     S
C127   C148    1.400   .     A
C128   N196    1.437   .     S
C128   C147    1.403   .     A
C128   C232    1.386   .     S
C129   C147    1.402   .     A
C129   N199    1.437   .     S
C129   C229    1.382   .     S
C130   C148    1.403   .     A
C130   N202    1.438   .     S
C131   O149    1.382   .     S
C131   C135    1.383   .     A
C131   C145    1.406   .     A
C132   C146    1.404   .     A
C132   C136    1.386   .     A
C132   O160    1.386   .     S
C133   C146    1.404   .     A
C133   C137    1.388   .     A
C133   O171    1.386   .     S
C134   C138    1.384   .     A
C134   O182    1.383   .     S
C134   C145    1.403   .     A
C135   H139    1.084   .     S
C135   C143    1.395   .     A
C136   C144    1.396   .     A
C136   H140    1.083   .     S
C137   C144    1.396   .     A
C137   H141    1.084   .     S
C138   C143    1.395   .     A
C138   H142    1.082   .     S
C145   C1064   1.443   1_554 S
C146   C1063   1.443   .     S
O149   C150    1.412   .     S
C150   H152    1.114   .     S
C150   H151    1.115   .     S
C150   C1071   1.527   1_554 S
C153   H154    1.112   .     S
C153   H155    1.111   .     S
C153   C156    1.525   .     S
C153   C1068   1.527   .     S
C156   H159    1.110   .     S
C156   H1177   1.110   .     S
C156   H260    1.109   .     S
H157   C972    1.110   1_554 S
O160   C161    1.417   .     S
C161   H163    1.119   .     S
C161   C164    1.530   .     S
C161   H1080   1.110   .     S
H162   C1079   1.110   1_554 S
C164   H166    1.111   .     S
C164   H165    1.112   .     S
C164   C167    1.526   .     S
C167   H170    1.111   .     S
C167   H168    1.111   .     S
C167   H781    1.110   1_545 S
H169   C473    1.110   .     S
O171   C172    1.416   .     S
C172   H173    1.112   .     S
C172   C175    1.529   .     S
C172   H174    1.117   .     S
C175   H176    1.112   .     S
C175   H177    1.112   .     S
C175   C178    1.526   .     S
C178   H181    1.111   .     S
C178   H179    1.111   .     S
C178   H486    1.111   .     S
H180   C790    1.111   1_545 S
O182   C183    1.416   .     S
C183   H185    1.119   .     S
C183   C186    1.529   .     S
C183   H1102   1.112   1_554 S
H184   C1101   1.112   .     S
C186   H188    1.111   .     S
C186   H187    1.110   .     S
C189   H190    1.111   .     S
C189   H191    1.110   .     S
C189   H192    1.110   .     S
C189   C288    1.525   .     S
N193   O195    1.301   .     A
N193   O194    1.300   .     A
N196   O197    1.300   .     A
N196   O198    1.301   .     A
N199   O201    1.301   .     A
N199   O200    1.300   .     A
N202   O204    1.301   .     A
N202   O203    1.300   .     A
O205   C211    1.280   .     A
O205   Zn219   1.978   .     S
O206   Zn220   1.978   .     S
O206   C212    1.279   .     A
O207   C212    1.276   .     A
O207   Zn219   1.993   .     S
O208   C211    1.275   .     A
O208   Zn220   1.993   .     S
N209   C226    1.366   .     A
N209   C228    1.366   .     A
N209   Zn219   2.008   .     S
N210   C225    1.366   .     A
N210   C227    1.366   .     A
N210   Zn220   2.008   .     S
C211   C250    1.409   .     S
C212   C249    1.408   .     S
O213   C217    1.285   .     A
O213   Zn219   1.997   .     S
O214   C218    1.287   .     A
O214   Zn220   1.997   .     S
O215   C218    1.287   .     A
O215   Zn219   1.998   .     S
O216   Zn220   1.998   .     S
O216   C217    1.285   .     A
C217   C245    1.429   .     S
C218   C246    1.438   .     S
H221   C225    1.082   .     S
H222   C226    1.082   .     S
H223   C227    1.081   .     S
H224   C228    1.081   .     S
C225   C840    1.415   1_545 S
C226   C533    1.415   .     S
C227   C838    1.415   1_545 S
C228   C531    1.415   .     S
C229   N295    1.434   .     S
C229   C250    1.400   .     A
C230   N298    1.437   .     S
C230   C249    1.403   .     A
C230   C28     1.386   1_655 S
C231   C249    1.402   .     A
C231   N301    1.437   .     S
C231   C25     1.382   1_655 S
C232   C250    1.403   .     A
C232   N304    1.438   .     S
C233   O251    1.382   .     S
C233   C237    1.383   .     A
C233   C247    1.406   .     A
C234   C248    1.404   .     A
C234   C238    1.386   .     A
C234   O262    1.386   .     S
C235   C248    1.404   .     A
C235   C239    1.388   .     A
C235   O273    1.386   .     S
C236   C240    1.384   .     A
C236   O284    1.383   .     S
C236   C247    1.403   .     A
C237   H241    1.084   .     S
C237   C245    1.395   .     A
C238   C246    1.396   .     A
C238   H242    1.083   .     S
C239   C246    1.396   .     A
C239   H243    1.084   .     S
C240   C245    1.395   .     A
C240   H244    1.082   .     S
C247   C1166   1.443   1_554 S
C248   C1165   1.443   .     S
O251   C252    1.412   .     S
C252   H254    1.114   .     S
C252   H253    1.115   .     S
C252   C1173   1.527   1_554 S
C255   H256    1.112   .     S
C255   H257    1.111   .     S
C255   C258    1.525   .     S
C255   C1170   1.527   .     S
C258   H261    1.110   .     S
C258   H973    1.110   1_655 S
C258   H56     1.109   1_655 S
H259   C1074   1.110   1_554 S
O262   C263    1.417   .     S
C263   H265    1.119   .     S
C263   C266    1.530   .     S
C263   H1182   1.110   .     S
H264   C1181   1.110   1_554 S
C266   H268    1.111   .     S
C266   H267    1.112   .     S
C266   C269    1.526   .     S
C269   H272    1.111   .     S
C269   H270    1.111   .     S
C269   H883    1.110   1_545 S
H271   C575    1.110   .     S
O273   C274    1.416   .     S
C274   H275    1.112   .     S
C274   C277    1.529   .     S
C274   H276    1.117   .     S
C277   H278    1.112   .     S
C277   H279    1.112   .     S
C277   C280    1.526   .     S
C280   H283    1.111   .     S
C280   H281    1.111   .     S
C280   H588    1.111   .     S
H282   C892    1.111   1_545 S
O284   C285    1.416   .     S
C285   H287    1.119   .     S
C285   C288    1.529   .     S
C285   H1204   1.112   1_554 S
H286   C1203   1.112   .     S
C288   H290    1.111   .     S
C288   H289    1.110   .     S
C291   H292    1.111   .     S
C291   H293    1.110   .     S
C291   H294    1.110   .     S
C291   C84     1.525   1_655 S
N295   O297    1.301   .     A
N295   O296    1.300   .     A
N298   O299    1.300   .     A
N298   O300    1.301   .     A
N301   O303    1.301   .     A
N301   O302    1.300   .     A
N304   O306    1.301   .     A
N304   O305    1.300   .     A
O307   C313    1.280   .     A
O307   Zn321   1.978   .     S
O308   Zn322   1.978   .     S
O308   C314    1.279   .     A
O309   C314    1.276   .     A
O309   Zn321   1.993   .     S
O310   C313    1.275   .     A
O310   Zn322   1.993   .     S
N311   C328    1.366   .     A
N311   C330    1.366   .     A
N311   Zn321   2.008   .     S
N312   C327    1.366   .     A
N312   C329    1.366   .     A
N312   Zn322   2.008   .     S
C313   C352    1.409   .     S
C314   C351    1.408   .     S
O315   C319    1.285   .     A
O315   Zn321   1.997   .     S
O316   C320    1.287   .     A
O316   Zn322   1.997   .     S
O317   C320    1.287   .     A
O317   Zn321   1.998   .     S
O318   Zn322   1.998   .     S
O318   C319    1.285   .     A
C319   C347    1.429   .     S
C320   C348    1.438   .     S
H323   C327    1.082   .     S
H324   C328    1.082   .     S
H325   C329    1.081   .     S
H326   C330    1.081   .     S
C328   C635    1.415   .     S
C330   C633    1.415   .     S
C331   N397    1.434   .     S
C331   C352    1.400   .     A
C331   C537    1.382   1_455 S
C332   N400    1.437   .     S
C332   C351    1.403   .     A
C332   C436    1.386   .     S
C333   C351    1.402   .     A
C333   N403    1.437   .     S
C333   C433    1.382   .     S
C334   C352    1.403   .     A
C334   N406    1.438   .     S
C334   C536    1.386   1_455 S
C335   O353    1.382   .     S
C335   C339    1.383   .     A
C335   C349    1.406   .     A
C336   C350    1.404   .     A
C336   C340    1.386   .     A
C336   O364    1.386   .     S
C337   C350    1.404   .     A
C337   C341    1.388   .     A
C337   O375    1.386   .     S
C338   C342    1.384   .     A
C338   O386    1.383   .     S
C338   C349    1.403   .     A
C339   H343    1.084   .     S
C339   C347    1.395   .     A
C340   C348    1.396   .     A
C340   H344    1.083   .     S
C341   C348    1.396   .     A
C341   H345    1.084   .     S
C342   C347    1.395   .     A
C342   H346    1.082   .     S
C349   C1268   1.443   1_554 S
C350   C1267   1.443   .     S
O353   C354    1.412   .     S
C354   H356    1.114   .     S
C354   H355    1.115   .     S
C354   C1275   1.527   1_554 S
C357   H358    1.112   .     S
C357   H359    1.111   .     S
C357   C360    1.525   .     S
C357   C1272   1.527   .     S
C360   H363    1.110   .     S
C360   H1381   1.110   .     S
C360   H464    1.109   .     S
H361   C1482   1.110   1_454 S
H362   C564    1.109   1_455 S
O364   C365    1.417   .     S
C365   H367    1.119   .     S
C365   C368    1.530   .     S
C365   H1284   1.110   .     S
H366   C1283   1.110   1_554 S
C368   H370    1.111   .     S
C368   H369    1.112   .     S
C368   C371    1.526   .     S
C371   H374    1.111   .     S
C371   H372    1.111   .     S
H373   C677    1.110   .     S
O375   C376    1.416   .     S
C376   H377    1.112   .     S
C376   C379    1.529   .     S
C376   H378    1.117   .     S
C379   H380    1.112   .     S
C379   H381    1.112   .     S
C379   C382    1.526   .     S
C382   H385    1.111   .     S
C382   H383    1.111   .     S
C382   H690    1.111   .     S
O386   C387    1.416   .     S
C387   H389    1.119   .     S
C387   C390    1.529   .     S
C387   H1306   1.112   1_554 S
H388   C1305   1.112   .     S
C390   H392    1.111   .     S
C390   H391    1.110   .     S
C390   C597    1.525   1_455 S
C393   H394    1.111   .     S
C393   H395    1.110   .     S
C393   H396    1.110   .     S
C393   C492    1.525   .     S
N397   O399    1.301   .     A
N397   O398    1.300   .     A
N400   O401    1.300   .     A
N400   O402    1.301   .     A
N403   O405    1.301   .     A
N403   O404    1.300   .     A
N406   O408    1.301   .     A
N406   O407    1.300   .     A
O409   C415    1.280   .     A
O409   Zn423   1.978   .     S
O410   Zn424   1.978   .     S
O410   C416    1.279   .     A
O411   C416    1.276   .     A
O411   Zn423   1.993   .     S
O412   C415    1.275   .     A
O412   Zn424   1.993   .     S
N413   C430    1.366   .     A
N413   C432    1.366   .     A
N413   Zn423   2.008   .     S
N414   C429    1.366   .     A
N414   C431    1.366   .     A
N414   Zn424   2.008   .     S
C415   C454    1.409   .     S
C416   C453    1.408   .     S
O417   C421    1.285   .     A
O417   Zn423   1.997   .     S
O418   C422    1.287   .     A
O418   Zn424   1.997   .     S
O419   C422    1.287   .     A
O419   Zn423   1.998   .     S
O420   Zn424   1.998   .     S
O420   C421    1.285   .     A
C421   C449    1.429   .     S
C422   C450    1.438   .     S
H425   C429    1.082   .     S
H426   C430    1.082   .     S
H427   C431    1.081   .     S
H428   C432    1.081   .     S
C430   C737    1.415   .     S
C432   C735    1.415   .     S
C433   N499    1.434   .     S
C433   C454    1.400   .     A
C434   N502    1.437   .     S
C434   C453    1.403   .     A
C434   C538    1.386   .     S
C435   C453    1.402   .     A
C435   N505    1.437   .     S
C435   C535    1.382   .     S
C436   C454    1.403   .     A
C436   N508    1.438   .     S
C437   O455    1.382   .     S
C437   C441    1.383   .     A
C437   C451    1.406   .     A
C438   C452    1.404   .     A
C438   C442    1.386   .     A
C438   O466    1.386   .     S
C439   C452    1.404   .     A
C439   C443    1.388   .     A
C439   O477    1.386   .     S
C440   C444    1.384   .     A
C440   O488    1.383   .     S
C440   C451    1.403   .     A
C441   H445    1.084   .     S
C441   C449    1.395   .     A
C442   C450    1.396   .     A
C442   H446    1.083   .     S
C443   C450    1.396   .     A
C443   H447    1.084   .     S
C444   C449    1.395   .     A
C444   H448    1.082   .     S
C451   C1370   1.443   1_554 S
C452   C1369   1.443   .     S
O455   C456    1.412   .     S
C456   H458    1.114   .     S
C456   H457    1.115   .     S
C456   C1377   1.527   1_554 S
C459   H460    1.112   .     S
C459   H461    1.111   .     S
C459   C462    1.525   .     S
C459   C1374   1.527   .     S
C462   H465    1.110   .     S
C462   H1483   1.110   .     S
C462   H566    1.109   .     S
H463   C1278   1.110   1_554 S
O466   C467    1.417   .     S
C467   H469    1.119   .     S
C467   C470    1.530   .     S
C467   H1386   1.110   .     S
H468   C1385   1.110   1_554 S
C470   H472    1.111   .     S
C470   H471    1.112   .     S
C470   C473    1.526   .     S
C473   H476    1.111   .     S
C473   H474    1.111   .     S
H475   C779    1.110   .     S
O477   C478    1.416   .     S
C478   H479    1.112   .     S
C478   C481    1.529   .     S
C478   H480    1.117   .     S
C481   H482    1.112   .     S
C481   H483    1.112   .     S
C481   C484    1.526   .     S
C484   H487    1.111   .     S
C484   H485    1.111   .     S
C484   H792    1.111   .     S
O488   C489    1.416   .     S
C489   H491    1.119   .     S
C489   C492    1.529   .     S
C489   H1408   1.112   1_554 S
H490   C1407   1.112   .     S
C492   H494    1.111   .     S
C492   H493    1.110   .     S
C495   H496    1.111   .     S
C495   H497    1.110   .     S
C495   H498    1.110   .     S
C495   C594    1.525   .     S
N499   O501    1.301   .     A
N499   O500    1.300   .     A
N502   O503    1.300   .     A
N502   O504    1.301   .     A
N505   O507    1.301   .     A
N505   O506    1.300   .     A
N508   O510    1.301   .     A
N508   O509    1.300   .     A
O511   C517    1.280   .     A
O511   Zn525   1.978   .     S
O512   Zn526   1.978   .     S
O512   C518    1.279   .     A
O513   C518    1.276   .     A
O513   Zn525   1.993   .     S
O514   C517    1.275   .     A
O514   Zn526   1.993   .     S
N515   C532    1.366   .     A
N515   C534    1.366   .     A
N515   Zn525   2.008   .     S
N516   C531    1.366   .     A
N516   C533    1.366   .     A
N516   Zn526   2.008   .     S
C517   C556    1.409   .     S
C518   C555    1.408   .     S
O519   C523    1.285   .     A
O519   Zn525   1.997   .     S
O520   C524    1.287   .     A
O520   Zn526   1.997   .     S
O521   C524    1.287   .     A
O521   Zn525   1.998   .     S
O522   Zn526   1.998   .     S
O522   C523    1.285   .     A
C523   C551    1.429   .     S
C524   C552    1.438   .     S
H527   C531    1.082   .     S
H528   C532    1.082   .     S
H529   C533    1.081   .     S
H530   C534    1.081   .     S
C532   C839    1.415   .     S
C534   C837    1.415   .     S
C535   N601    1.434   .     S
C535   C556    1.400   .     A
C536   N604    1.437   .     S
C536   C555    1.403   .     A
C536   C334    1.386   1_655 S
C537   C555    1.402   .     A
C537   N607    1.437   .     S
C537   C331    1.382   1_655 S
C538   C556    1.403   .     A
C538   N610    1.438   .     S
C539   O557    1.382   .     S
C539   C543    1.383   .     A
C539   C553    1.406   .     A
C540   C554    1.404   .     A
C540   C544    1.386   .     A
C540   O568    1.386   .     S
C541   C554    1.404   .     A
C541   C545    1.388   .     A
C541   O579    1.386   .     S
C542   C546    1.384   .     A
C542   O590    1.383   .     S
C542   C553    1.403   .     A
C543   H547    1.084   .     S
C543   C551    1.395   .     A
C544   C552    1.396   .     A
C544   H548    1.083   .     S
C545   C552    1.396   .     A
C545   H549    1.084   .     S
C546   C551    1.395   .     A
C546   H550    1.082   .     S
C553   C1472   1.443   1_554 S
C554   C1471   1.443   .     S
O557   C558    1.412   .     S
C558   H560    1.114   .     S
C558   H559    1.115   .     S
C558   C1479   1.527   1_554 S
C561   H562    1.112   .     S
C561   H563    1.111   .     S
C561   C564    1.525   .     S
C561   C1476   1.527   .     S
C564   H567    1.110   .     S
C564   H1279   1.110   1_655 S
C564   H362    1.109   1_655 S
H565   C1380   1.110   1_554 S
O568   C569    1.417   .     S
C569   H571    1.119   .     S
C569   C572    1.530   .     S
C569   H1488   1.110   .     S
H570   C1487   1.110   1_554 S
C572   H574    1.111   .     S
C572   H573    1.112   .     S
C572   C575    1.526   .     S
C575   H578    1.111   .     S
C575   H576    1.111   .     S
H577   C881    1.110   .     S
O579   C580    1.416   .     S
C580   H581    1.112   .     S
C580   C583    1.529   .     S
C580   H582    1.117   .     S
C583   H584    1.112   .     S
C583   H585    1.112   .     S
C583   C586    1.526   .     S
C586   H589    1.111   .     S
C586   H587    1.111   .     S
C586   H894    1.111   .     S
O590   C591    1.416   .     S
C591   H593    1.119   .     S
C591   C594    1.529   .     S
C591   H1510   1.112   1_554 S
H592   C1509   1.112   .     S
C594   H596    1.111   .     S
C594   H595    1.110   .     S
C597   H598    1.111   .     S
C597   H599    1.110   .     S
C597   H600    1.110   .     S
C597   C390    1.525   1_655 S
N601   O603    1.301   .     A
N601   O602    1.300   .     A
N604   O605    1.300   .     A
N604   O606    1.301   .     A
N607   O609    1.301   .     A
N607   O608    1.300   .     A
N610   O612    1.301   .     A
N610   O611    1.300   .     A
O613   C619    1.280   .     A
O613   Zn627   1.978   .     S
O614   Zn628   1.978   .     S
O614   C620    1.279   .     A
O615   C620    1.276   .     A
O615   Zn627   1.993   .     S
O616   C619    1.275   .     A
O616   Zn628   1.993   .     S
N617   C634    1.366   .     A
N617   C636    1.366   .     A
N617   Zn627   2.008   .     S
N618   C633    1.366   .     A
N618   C635    1.366   .     A
N618   Zn628   2.008   .     S
C619   C658    1.409   .     S
C620   C657    1.408   .     S
O621   C625    1.285   .     A
O621   Zn627   1.997   .     S
O622   C626    1.287   .     A
O622   Zn628   1.997   .     S
O623   C626    1.287   .     A
O623   Zn627   1.998   .     S
O624   Zn628   1.998   .     S
O624   C625    1.285   .     A
C625   C653    1.429   .     S
C626   C654    1.438   .     S
H629   C633    1.082   .     S
H630   C634    1.082   .     S
H631   C635    1.081   .     S
H632   C636    1.081   .     S
C634   C23     1.415   1_565 S
C636   C21     1.415   1_565 S
C637   N703    1.434   .     S
C637   C658    1.400   .     A
C637   C843    1.382   1_455 S
C638   N706    1.437   .     S
C638   C657    1.403   .     A
C638   C742    1.386   .     S
C639   C657    1.402   .     A
C639   N709    1.437   .     S
C639   C739    1.382   .     S
C640   C658    1.403   .     A
C640   N712    1.438   .     S
C640   C842    1.386   1_455 S
C641   O659    1.382   .     S
C641   C645    1.383   .     A
C641   C655    1.406   .     A
C642   C656    1.404   .     A
C642   C646    1.386   .     A
C642   O670    1.386   .     S
C643   C656    1.404   .     A
C643   C647    1.388   .     A
C643   O681    1.386   .     S
C644   C648    1.384   .     A
C644   O692    1.383   .     S
C644   C655    1.403   .     A
C645   H649    1.084   .     S
C645   C653    1.395   .     A
C646   C654    1.396   .     A
C646   H650    1.083   .     S
C647   C654    1.396   .     A
C647   H651    1.084   .     S
C648   C653    1.395   .     A
C648   H652    1.082   .     S
C655   C1574   1.443   1_554 S
C656   C1573   1.443   .     S
O659   C660    1.412   .     S
C660   H662    1.114   .     S
C660   H661    1.115   .     S
C660   C1581   1.527   1_554 S
C663   H664    1.112   .     S
C663   H665    1.111   .     S
C663   C666    1.525   .     S
C663   C1578   1.527   .     S
C666   H669    1.110   .     S
C666   H1687   1.110   .     S
C666   H770    1.109   .     S
H667   C1788   1.110   1_454 S
H668   C870    1.109   1_455 S
O670   C671    1.417   .     S
C671   H673    1.119   .     S
C671   C674    1.530   .     S
C671   H1590   1.110   .     S
H672   C1589   1.110   1_554 S
C674   H676    1.111   .     S
C674   H675    1.112   .     S
C674   C677    1.526   .     S
C677   H680    1.111   .     S
C677   H678    1.111   .     S
H679   C65     1.110   1_565 S
O681   C682    1.416   .     S
C682   H683    1.112   .     S
C682   C685    1.529   .     S
C682   H684    1.117   .     S
C685   H686    1.112   .     S
C685   H687    1.112   .     S
C685   C688    1.526   .     S
C688   H691    1.111   .     S
C688   H689    1.111   .     S
C688   H78     1.111   1_565 S
O692   C693    1.416   .     S
C693   H695    1.119   .     S
C693   C696    1.529   .     S
C693   H1612   1.112   1_554 S
H694   C1611   1.112   .     S
C696   H698    1.111   .     S
C696   H697    1.110   .     S
C696   C903    1.525   1_455 S
C699   H700    1.111   .     S
C699   H701    1.110   .     S
C699   H702    1.110   .     S
C699   C798    1.525   .     S
N703   O705    1.301   .     A
N703   O704    1.300   .     A
N706   O707    1.300   .     A
N706   O708    1.301   .     A
N709   O711    1.301   .     A
N709   O710    1.300   .     A
N712   O714    1.301   .     A
N712   O713    1.300   .     A
O715   C721    1.280   .     A
O715   Zn729   1.978   .     S
O716   Zn730   1.978   .     S
O716   C722    1.279   .     A
O717   C722    1.276   .     A
O717   Zn729   1.993   .     S
O718   C721    1.275   .     A
O718   Zn730   1.993   .     S
N719   C736    1.366   .     A
N719   C738    1.366   .     A
N719   Zn729   2.008   .     S
N720   C735    1.366   .     A
N720   C737    1.366   .     A
N720   Zn730   2.008   .     S
C721   C760    1.409   .     S
C722   C759    1.408   .     S
O723   C727    1.285   .     A
O723   Zn729   1.997   .     S
O724   C728    1.287   .     A
O724   Zn730   1.997   .     S
O725   C728    1.287   .     A
O725   Zn729   1.998   .     S
O726   Zn730   1.998   .     S
O726   C727    1.285   .     A
C727   C755    1.429   .     S
C728   C756    1.438   .     S
H731   C735    1.082   .     S
H732   C736    1.082   .     S
H733   C737    1.081   .     S
H734   C738    1.081   .     S
C736   C125    1.415   1_565 S
C738   C123    1.415   1_565 S
C739   N805    1.434   .     S
C739   C760    1.400   .     A
C740   N808    1.437   .     S
C740   C759    1.403   .     A
C740   C844    1.386   .     S
C741   C759    1.402   .     A
C741   N811    1.437   .     S
C741   C841    1.382   .     S
C742   C760    1.403   .     A
C742   N814    1.438   .     S
C743   O761    1.382   .     S
C743   C747    1.383   .     A
C743   C757    1.406   .     A
C744   C758    1.404   .     A
C744   C748    1.386   .     A
C744   O772    1.386   .     S
C745   C758    1.404   .     A
C745   C749    1.388   .     A
C745   O783    1.386   .     S
C746   C750    1.384   .     A
C746   O794    1.383   .     S
C746   C757    1.403   .     A
C747   H751    1.084   .     S
C747   C755    1.395   .     A
C748   C756    1.396   .     A
C748   H752    1.083   .     S
C749   C756    1.396   .     A
C749   H753    1.084   .     S
C750   C755    1.395   .     A
C750   H754    1.082   .     S
C757   C1676   1.443   1_554 S
C758   C1675   1.443   .     S
O761   C762    1.412   .     S
C762   H764    1.114   .     S
C762   H763    1.115   .     S
C762   C1683   1.527   1_554 S
C765   H766    1.112   .     S
C765   H767    1.111   .     S
C765   C768    1.525   .     S
C765   C1680   1.527   .     S
C768   H771    1.110   .     S
C768   H1789   1.110   .     S
C768   H872    1.109   .     S
H769   C1584   1.110   1_554 S
O772   C773    1.417   .     S
C773   H775    1.119   .     S
C773   C776    1.530   .     S
C773   H1692   1.110   .     S
H774   C1691   1.110   1_554 S
C776   H778    1.111   .     S
C776   H777    1.112   .     S
C776   C779    1.526   .     S
C779   H782    1.111   .     S
C779   H780    1.111   .     S
H781   C167    1.110   1_565 S
O783   C784    1.416   .     S
C784   H785    1.112   .     S
C784   C787    1.529   .     S
C784   H786    1.117   .     S
C787   H788    1.112   .     S
C787   H789    1.112   .     S
C787   C790    1.526   .     S
C790   H793    1.111   .     S
C790   H791    1.111   .     S
C790   H180    1.111   1_565 S
O794   C795    1.416   .     S
C795   H797    1.119   .     S
C795   C798    1.529   .     S
C795   H1714   1.112   1_554 S
H796   C1713   1.112   .     S
C798   H800    1.111   .     S
C798   H799    1.110   .     S
C801   H802    1.111   .     S
C801   H803    1.110   .     S
C801   H804    1.110   .     S
C801   C900    1.525   .     S
N805   O807    1.301   .     A
N805   O806    1.300   .     A
N808   O809    1.300   .     A
N808   O810    1.301   .     A
N811   O813    1.301   .     A
N811   O812    1.300   .     A
N814   O816    1.301   .     A
N814   O815    1.300   .     A
O817   C823    1.280   .     A
O817   Zn831   1.978   .     S
O818   Zn832   1.978   .     S
O818   C824    1.279   .     A
O819   C824    1.276   .     A
O819   Zn831   1.993   .     S
O820   C823    1.275   .     A
O820   Zn832   1.993   .     S
N821   C838    1.366   .     A
N821   C840    1.366   .     A
N821   Zn831   2.008   .     S
N822   C837    1.366   .     A
N822   C839    1.366   .     A
N822   Zn832   2.008   .     S
C823   C862    1.409   .     S
C824   C861    1.408   .     S
O825   C829    1.285   .     A
O825   Zn831   1.997   .     S
O826   C830    1.287   .     A
O826   Zn832   1.997   .     S
O827   C830    1.287   .     A
O827   Zn831   1.998   .     S
O828   Zn832   1.998   .     S
O828   C829    1.285   .     A
C829   C857    1.429   .     S
C830   C858    1.438   .     S
H833   C837    1.082   .     S
H834   C838    1.082   .     S
H835   C839    1.081   .     S
H836   C840    1.081   .     S
C838   C227    1.415   1_565 S
C840   C225    1.415   1_565 S
C841   N907    1.434   .     S
C841   C862    1.400   .     A
C842   N910    1.437   .     S
C842   C861    1.403   .     A
C842   C640    1.386   1_655 S
C843   C861    1.402   .     A
C843   N913    1.437   .     S
C843   C637    1.382   1_655 S
C844   C862    1.403   .     A
C844   N916    1.438   .     S
C845   O863    1.382   .     S
C845   C849    1.383   .     A
C845   C859    1.406   .     A
C846   C860    1.404   .     A
C846   C850    1.386   .     A
C846   O874    1.386   .     S
C847   C860    1.404   .     A
C847   C851    1.388   .     A
C847   O885    1.386   .     S
C848   C852    1.384   .     A
C848   O896    1.383   .     S
C848   C859    1.403   .     A
C849   H853    1.084   .     S
C849   C857    1.395   .     A
C850   C858    1.396   .     A
C850   H854    1.083   .     S
C851   C858    1.396   .     A
C851   H855    1.084   .     S
C852   C857    1.395   .     A
C852   H856    1.082   .     S
C859   C1778   1.443   1_554 S
C860   C1777   1.443   .     S
O863   C864    1.412   .     S
C864   H866    1.114   .     S
C864   H865    1.115   .     S
C864   C1785   1.527   1_554 S
C867   H868    1.112   .     S
C867   H869    1.111   .     S
C867   C870    1.525   .     S
C867   C1782   1.527   .     S
C870   H873    1.110   .     S
C870   H1585   1.110   1_655 S
C870   H668    1.109   1_655 S
H871   C1686   1.110   1_554 S
O874   C875    1.417   .     S
C875   H877    1.119   .     S
C875   C878    1.530   .     S
C875   H1794   1.110   .     S
H876   C1793   1.110   1_554 S
C878   H880    1.111   .     S
C878   H879    1.112   .     S
C878   C881    1.526   .     S
C881   H884    1.111   .     S
C881   H882    1.111   .     S
H883   C269    1.110   1_565 S
O885   C886    1.416   .     S
C886   H887    1.112   .     S
C886   C889    1.529   .     S
C886   H888    1.117   .     S
C889   H890    1.112   .     S
C889   H891    1.112   .     S
C889   C892    1.526   .     S
C892   H895    1.111   .     S
C892   H893    1.111   .     S
C892   H282    1.111   1_565 S
O896   C897    1.416   .     S
C897   H899    1.119   .     S
C897   C900    1.529   .     S
C897   H1816   1.112   1_554 S
H898   C1815   1.112   .     S
C900   H902    1.111   .     S
C900   H901    1.110   .     S
C903   H904    1.111   .     S
C903   H905    1.110   .     S
C903   H906    1.110   .     S
C903   C696    1.525   1_655 S
N907   O909    1.301   .     A
N907   O908    1.300   .     A
N910   O911    1.300   .     A
N910   O912    1.301   .     A
N913   O915    1.301   .     A
N913   O914    1.300   .     A
N916   O918    1.301   .     A
N916   O917    1.300   .     A
O919   C925    1.280   .     A
O919   Zn933   1.978   .     S
O920   Zn934   1.978   .     S
O920   C926    1.279   .     A
O921   C926    1.276   .     A
O921   Zn933   1.993   .     S
O922   C925    1.275   .     A
O922   Zn934   1.993   .     S
N923   C940    1.366   .     A
N923   C942    1.366   .     A
N923   Zn933   2.008   .     S
N924   C939    1.366   .     A
N924   C941    1.366   .     A
N924   Zn934   2.008   .     S
C925   C964    1.409   .     S
C926   C963    1.408   .     S
O927   C931    1.285   .     A
O927   Zn933   1.997   .     S
O928   C932    1.287   .     A
O928   Zn934   1.997   .     S
O929   C932    1.287   .     A
O929   Zn933   1.998   .     S
O930   Zn934   1.998   .     S
O930   C931    1.285   .     A
C931   C959    1.429   .     S
C932   C960    1.438   .     S
H935   C939    1.082   .     S
H936   C940    1.082   .     S
H937   C941    1.081   .     S
H938   C942    1.081   .     S
C939   C1554   1.415   1_545 S
C940   C1247   1.415   .     S
C941   C1552   1.415   1_545 S
C942   C1245   1.415   .     S
C943   N1009   1.434   .     S
C943   C964    1.400   .     A
C943   C1149   1.382   1_455 S
C944   N1012   1.437   .     S
C944   C963    1.403   .     A
C944   C1048   1.386   .     S
C945   C963    1.402   .     A
C945   N1015   1.437   .     S
C945   C1045   1.382   .     S
C946   C964    1.403   .     A
C946   N1018   1.438   .     S
C946   C1148   1.386   1_455 S
C947   O965    1.382   .     S
C947   C951    1.383   .     A
C947   C961    1.406   .     A
C948   C962    1.404   .     A
C948   C952    1.386   .     A
C948   O976    1.386   .     S
C949   C962    1.404   .     A
C949   C953    1.388   .     A
C949   O987    1.386   .     S
C950   C954    1.384   .     A
C950   O998    1.383   .     S
C950   C961    1.403   .     A
C951   H955    1.084   .     S
C951   C959    1.395   .     A
C952   C960    1.396   .     A
C952   H956    1.083   .     S
C953   C960    1.396   .     A
C953   H957    1.084   .     S
C954   C959    1.395   .     A
C954   H958    1.082   .     S
C962   C43     1.443   1_556 S
O965   C966    1.412   .     S
C966   H968    1.114   .     S
C966   H967    1.115   .     S
C969   H970    1.112   .     S
C969   H971    1.111   .     S
C969   C972    1.525   .     S
C969   C48     1.527   1_556 S
C972   H975    1.110   .     S
C972   H157    1.110   1_556 S
C972   H1076   1.109   .     S
H973   C258    1.110   1_455 S
H974   C1176   1.109   1_455 S
O976   C977    1.417   .     S
C977   H979    1.119   .     S
C977   C980    1.530   .     S
C977   H60     1.110   1_556 S
C980   H982    1.111   .     S
C980   H981    1.112   .     S
C980   C983    1.526   .     S
C983   H986    1.111   .     S
C983   H984    1.111   .     S
C983   H1597   1.110   1_545 S
H985   C1289   1.110   .     S
O987   C988    1.416   .     S
C988   H989    1.112   .     S
C988   C991    1.529   .     S
C988   H990    1.117   .     S
C991   H992    1.112   .     S
C991   H993    1.112   .     S
C991   C994    1.526   .     S
C994   H997    1.111   .     S
C994   H995    1.111   .     S
C994   H1302   1.111   .     S
H996   C1606   1.111   1_545 S
O998   C999    1.416   .     S
C999   H1001   1.119   .     S
C999   C1002   1.529   .     S
H1000  C81     1.112   1_556 S
C1002  H1004   1.111   .     S
C1002  H1003   1.110   .     S
C1002  C1209   1.525   1_455 S
C1005  H1006   1.111   .     S
C1005  H1007   1.110   .     S
C1005  H1008   1.110   .     S
C1005  C1104   1.525   .     S
N1009  O1011   1.301   .     A
N1009  O1010   1.300   .     A
N1012  O1013   1.300   .     A
N1012  O1014   1.301   .     A
N1015  O1017   1.301   .     A
N1015  O1016   1.300   .     A
N1018  O1020   1.301   .     A
N1018  O1019   1.300   .     A
O1021  C1027   1.280   .     A
O1021  Zn1035  1.978   .     S
O1022  Zn1036  1.978   .     S
O1022  C1028   1.279   .     A
O1023  C1028   1.276   .     A
O1023  Zn1035  1.993   .     S
O1024  C1027   1.275   .     A
O1024  Zn1036  1.993   .     S
N1025  C1042   1.366   .     A
N1025  C1044   1.366   .     A
N1025  Zn1035  2.008   .     S
N1026  C1041   1.366   .     A
N1026  C1043   1.366   .     A
N1026  Zn1036  2.008   .     S
C1027  C1066   1.409   .     S
C1028  C1065   1.408   .     S
O1029  C1033   1.285   .     A
O1029  Zn1035  1.997   .     S
O1030  C1034   1.287   .     A
O1030  Zn1036  1.997   .     S
O1031  C1034   1.287   .     A
O1031  Zn1035  1.998   .     S
O1032  Zn1036  1.998   .     S
O1032  C1033   1.285   .     A
C1033  C1061   1.429   .     S
C1034  C1062   1.438   .     S
H1037  C1041   1.082   .     S
H1038  C1042   1.082   .     S
H1039  C1043   1.081   .     S
H1040  C1044   1.081   .     S
C1041  C1656   1.415   1_545 S
C1042  C1349   1.415   .     S
C1043  C1654   1.415   1_545 S
C1044  C1347   1.415   .     S
C1045  N1111   1.434   .     S
C1045  C1066   1.400   .     A
C1046  N1114   1.437   .     S
C1046  C1065   1.403   .     A
C1046  C1150   1.386   .     S
C1047  C1065   1.402   .     A
C1047  N1117   1.437   .     S
C1047  C1147   1.382   .     S
C1048  C1066   1.403   .     A
C1048  N1120   1.438   .     S
C1049  O1067   1.382   .     S
C1049  C1053   1.383   .     A
C1049  C1063   1.406   .     A
C1050  C1064   1.404   .     A
C1050  C1054   1.386   .     A
C1050  O1078   1.386   .     S
C1051  C1064   1.404   .     A
C1051  C1055   1.388   .     A
C1051  O1089   1.386   .     S
C1052  C1056   1.384   .     A
C1052  O1100   1.383   .     S
C1052  C1063   1.403   .     A
C1053  H1057   1.084   .     S
C1053  C1061   1.395   .     A
C1054  C1062   1.396   .     A
C1054  H1058   1.083   .     S
C1055  C1062   1.396   .     A
C1055  H1059   1.084   .     S
C1056  C1061   1.395   .     A
C1056  H1060   1.082   .     S
C1064  C145    1.443   1_556 S
O1067  C1068   1.412   .     S
C1068  H1070   1.114   .     S
C1068  H1069   1.115   .     S
C1071  H1072   1.112   .     S
C1071  H1073   1.111   .     S
C1071  C1074   1.525   .     S
C1071  C150    1.527   1_556 S
C1074  H1077   1.110   .     S
C1074  H259    1.110   1_556 S
C1074  H1178   1.109   .     S
O1078  C1079   1.417   .     S
C1079  H1081   1.119   .     S
C1079  C1082   1.530   .     S
C1079  H162    1.110   1_556 S
C1082  H1084   1.111   .     S
C1082  H1083   1.112   .     S
C1082  C1085   1.526   .     S
C1085  H1088   1.111   .     S
C1085  H1086   1.111   .     S
C1085  H1699   1.110   1_545 S
H1087  C1391   1.110   .     S
O1089  C1090   1.416   .     S
C1090  H1091   1.112   .     S
C1090  C1093   1.529   .     S
C1090  H1092   1.117   .     S
C1093  H1094   1.112   .     S
C1093  H1095   1.112   .     S
C1093  C1096   1.526   .     S
C1096  H1099   1.111   .     S
C1096  H1097   1.111   .     S
C1096  H1404   1.111   .     S
H1098  C1708   1.111   1_545 S
O1100  C1101   1.416   .     S
C1101  H1103   1.119   .     S
C1101  C1104   1.529   .     S
H1102  C183    1.112   1_556 S
C1104  H1106   1.111   .     S
C1104  H1105   1.110   .     S
C1107  H1108   1.111   .     S
C1107  H1109   1.110   .     S
C1107  H1110   1.110   .     S
C1107  C1206   1.525   .     S
N1111  O1113   1.301   .     A
N1111  O1112   1.300   .     A
N1114  O1115   1.300   .     A
N1114  O1116   1.301   .     A
N1117  O1119   1.301   .     A
N1117  O1118   1.300   .     A
N1120  O1122   1.301   .     A
N1120  O1121   1.300   .     A
O1123  C1129   1.280   .     A
O1123  Zn1137  1.978   .     S
O1124  Zn1138  1.978   .     S
O1124  C1130   1.279   .     A
O1125  C1130   1.276   .     A
O1125  Zn1137  1.993   .     S
O1126  C1129   1.275   .     A
O1126  Zn1138  1.993   .     S
N1127  C1144   1.366   .     A
N1127  C1146   1.366   .     A
N1127  Zn1137  2.008   .     S
N1128  C1143   1.366   .     A
N1128  C1145   1.366   .     A
N1128  Zn1138  2.008   .     S
C1129  C1168   1.409   .     S
C1130  C1167   1.408   .     S
O1131  C1135   1.285   .     A
O1131  Zn1137  1.997   .     S
O1132  C1136   1.287   .     A
O1132  Zn1138  1.997   .     S
O1133  C1136   1.287   .     A
O1133  Zn1137  1.998   .     S
O1134  Zn1138  1.998   .     S
O1134  C1135   1.285   .     A
C1135  C1163   1.429   .     S
C1136  C1164   1.438   .     S
H1139  C1143   1.082   .     S
H1140  C1144   1.082   .     S
H1141  C1145   1.081   .     S
H1142  C1146   1.081   .     S
C1143  C1758   1.415   1_545 S
C1144  C1451   1.415   .     S
C1145  C1756   1.415   1_545 S
C1146  C1449   1.415   .     S
C1147  N1213   1.434   .     S
C1147  C1168   1.400   .     A
C1148  N1216   1.437   .     S
C1148  C1167   1.403   .     A
C1148  C946    1.386   1_655 S
C1149  C1167   1.402   .     A
C1149  N1219   1.437   .     S
C1149  C943    1.382   1_655 S
C1150  C1168   1.403   .     A
C1150  N1222   1.438   .     S
C1151  O1169   1.382   .     S
C1151  C1155   1.383   .     A
C1151  C1165   1.406   .     A
C1152  C1166   1.404   .     A
C1152  C1156   1.386   .     A
C1152  O1180   1.386   .     S
C1153  C1166   1.404   .     A
C1153  C1157   1.388   .     A
C1153  O1191   1.386   .     S
C1154  C1158   1.384   .     A
C1154  O1202   1.383   .     S
C1154  C1165   1.403   .     A
C1155  H1159   1.084   .     S
C1155  C1163   1.395   .     A
C1156  C1164   1.396   .     A
C1156  H1160   1.083   .     S
C1157  C1164   1.396   .     A
C1157  H1161   1.084   .     S
C1158  C1163   1.395   .     A
C1158  H1162   1.082   .     S
C1166  C247    1.443   1_556 S
O1169  C1170   1.412   .     S
C1170  H1172   1.114   .     S
C1170  H1171   1.115   .     S
C1173  H1174   1.112   .     S
C1173  H1175   1.111   .     S
C1173  C1176   1.525   .     S
C1173  C252    1.527   1_556 S
C1176  H1179   1.110   .     S
C1176  H55     1.110   1_656 S
C1176  H974    1.109   1_655 S
O1180  C1181   1.417   .     S
C1181  H1183   1.119   .     S
C1181  C1184   1.530   .     S
C1181  H264    1.110   1_556 S
C1184  H1186   1.111   .     S
C1184  H1185   1.112   .     S
C1184  C1187   1.526   .     S
C1187  H1190   1.111   .     S
C1187  H1188   1.111   .     S
C1187  H1801   1.110   1_545 S
H1189  C1493   1.110   .     S
O1191  C1192   1.416   .     S
C1192  H1193   1.112   .     S
C1192  C1195   1.529   .     S
C1192  H1194   1.117   .     S
C1195  H1196   1.112   .     S
C1195  H1197   1.112   .     S
C1195  C1198   1.526   .     S
C1198  H1201   1.111   .     S
C1198  H1199   1.111   .     S
C1198  H1506   1.111   .     S
H1200  C1810   1.111   1_545 S
O1202  C1203   1.416   .     S
C1203  H1205   1.119   .     S
C1203  C1206   1.529   .     S
H1204  C285    1.112   1_556 S
C1206  H1208   1.111   .     S
C1206  H1207   1.110   .     S
C1209  H1210   1.111   .     S
C1209  H1211   1.110   .     S
C1209  H1212   1.110   .     S
C1209  C1002   1.525   1_655 S
N1213  O1215   1.301   .     A
N1213  O1214   1.300   .     A
N1216  O1217   1.300   .     A
N1216  O1218   1.301   .     A
N1219  O1221   1.301   .     A
N1219  O1220   1.300   .     A
N1222  O1224   1.301   .     A
N1222  O1223   1.300   .     A
O1225  C1231   1.280   .     A
O1225  Zn1239  1.978   .     S
O1226  Zn1240  1.978   .     S
O1226  C1232   1.279   .     A
O1227  C1232   1.276   .     A
O1227  Zn1239  1.993   .     S
O1228  C1231   1.275   .     A
O1228  Zn1240  1.993   .     S
N1229  C1246   1.366   .     A
N1229  C1248   1.366   .     A
N1229  Zn1239  2.008   .     S
N1230  C1245   1.366   .     A
N1230  C1247   1.366   .     A
N1230  Zn1240  2.008   .     S
C1231  C1270   1.409   .     S
C1232  C1269   1.408   .     S
O1233  C1237   1.285   .     A
O1233  Zn1239  1.997   .     S
O1234  C1238   1.287   .     A
O1234  Zn1240  1.997   .     S
O1235  C1238   1.287   .     A
O1235  Zn1239  1.998   .     S
O1236  Zn1240  1.998   .     S
O1236  C1237   1.285   .     A
C1237  C1265   1.429   .     S
C1238  C1266   1.438   .     S
H1241  C1245   1.082   .     S
H1242  C1246   1.082   .     S
H1243  C1247   1.081   .     S
H1244  C1248   1.081   .     S
C1246  C1553   1.415   .     S
C1248  C1551   1.415   .     S
C1249  N1315   1.434   .     S
C1249  C1270   1.400   .     A
C1249  C1455   1.382   1_455 S
C1250  N1318   1.437   .     S
C1250  C1269   1.403   .     A
C1250  C1354   1.386   .     S
C1251  C1269   1.402   .     A
C1251  N1321   1.437   .     S
C1251  C1351   1.382   .     S
C1252  C1270   1.403   .     A
C1252  N1324   1.438   .     S
C1252  C1454   1.386   1_455 S
C1253  O1271   1.382   .     S
C1253  C1257   1.383   .     A
C1253  C1267   1.406   .     A
C1254  C1268   1.404   .     A
C1254  C1258   1.386   .     A
C1254  O1282   1.386   .     S
C1255  C1268   1.404   .     A
C1255  C1259   1.388   .     A
C1255  O1293   1.386   .     S
C1256  C1260   1.384   .     A
C1256  O1304   1.383   .     S
C1256  C1267   1.403   .     A
C1257  H1261   1.084   .     S
C1257  C1265   1.395   .     A
C1258  C1266   1.396   .     A
C1258  H1262   1.083   .     S
C1259  C1266   1.396   .     A
C1259  H1263   1.084   .     S
C1260  C1265   1.395   .     A
C1260  H1264   1.082   .     S
C1268  C349    1.443   1_556 S
O1271  C1272   1.412   .     S
C1272  H1274   1.114   .     S
C1272  H1273   1.115   .     S
C1275  H1276   1.112   .     S
C1275  H1277   1.111   .     S
C1275  C1278   1.525   .     S
C1275  C354    1.527   1_556 S
C1278  H1281   1.110   .     S
C1278  H463    1.110   1_556 S
C1278  H1382   1.109   .     S
H1279  C564    1.110   1_455 S
H1280  C1482   1.109   1_455 S
O1282  C1283   1.417   .     S
C1283  H1285   1.119   .     S
C1283  C1286   1.530   .     S
C1283  H366    1.110   1_556 S
C1286  H1288   1.111   .     S
C1286  H1287   1.112   .     S
C1286  C1289   1.526   .     S
C1289  H1292   1.111   .     S
C1289  H1290   1.111   .     S
H1291  C1595   1.110   .     S
O1293  C1294   1.416   .     S
C1294  H1295   1.112   .     S
C1294  C1297   1.529   .     S
C1294  H1296   1.117   .     S
C1297  H1298   1.112   .     S
C1297  H1299   1.112   .     S
C1297  C1300   1.526   .     S
C1300  H1303   1.111   .     S
C1300  H1301   1.111   .     S
C1300  H1608   1.111   .     S
O1304  C1305   1.416   .     S
C1305  H1307   1.119   .     S
C1305  C1308   1.529   .     S
H1306  C387    1.112   1_556 S
C1308  H1310   1.111   .     S
C1308  H1309   1.110   .     S
C1308  C1515   1.525   1_455 S
C1311  H1312   1.111   .     S
C1311  H1313   1.110   .     S
C1311  H1314   1.110   .     S
C1311  C1410   1.525   .     S
N1315  O1317   1.301   .     A
N1315  O1316   1.300   .     A
N1318  O1319   1.300   .     A
N1318  O1320   1.301   .     A
N1321  O1323   1.301   .     A
N1321  O1322   1.300   .     A
N1324  O1326   1.301   .     A
N1324  O1325   1.300   .     A
O1327  C1333   1.280   .     A
O1327  Zn1341  1.978   .     S
O1328  Zn1342  1.978   .     S
O1328  C1334   1.279   .     A
O1329  C1334   1.276   .     A
O1329  Zn1341  1.993   .     S
O1330  C1333   1.275   .     A
O1330  Zn1342  1.993   .     S
N1331  C1348   1.366   .     A
N1331  C1350   1.366   .     A
N1331  Zn1341  2.008   .     S
N1332  C1347   1.366   .     A
N1332  C1349   1.366   .     A
N1332  Zn1342  2.008   .     S
C1333  C1372   1.409   .     S
C1334  C1371   1.408   .     S
O1335  C1339   1.285   .     A
O1335  Zn1341  1.997   .     S
O1336  C1340   1.287   .     A
O1336  Zn1342  1.997   .     S
O1337  C1340   1.287   .     A
O1337  Zn1341  1.998   .     S
O1338  Zn1342  1.998   .     S
O1338  C1339   1.285   .     A
C1339  C1367   1.429   .     S
C1340  C1368   1.438   .     S
H1343  C1347   1.082   .     S
H1344  C1348   1.082   .     S
H1345  C1349   1.081   .     S
H1346  C1350   1.081   .     S
C1348  C1655   1.415   .     S
C1350  C1653   1.415   .     S
C1351  N1417   1.434   .     S
C1351  C1372   1.400   .     A
C1352  N1420   1.437   .     S
C1352  C1371   1.403   .     A
C1352  C1456   1.386   .     S
C1353  C1371   1.402   .     A
C1353  N1423   1.437   .     S
C1353  C1453   1.382   .     S
C1354  C1372   1.403   .     A
C1354  N1426   1.438   .     S
C1355  O1373   1.382   .     S
C1355  C1359   1.383   .     A
C1355  C1369   1.406   .     A
C1356  C1370   1.404   .     A
C1356  C1360   1.386   .     A
C1356  O1384   1.386   .     S
C1357  C1370   1.404   .     A
C1357  C1361   1.388   .     A
C1357  O1395   1.386   .     S
C1358  C1362   1.384   .     A
C1358  O1406   1.383   .     S
C1358  C1369   1.403   .     A
C1359  H1363   1.084   .     S
C1359  C1367   1.395   .     A
C1360  C1368   1.396   .     A
C1360  H1364   1.083   .     S
C1361  C1368   1.396   .     A
C1361  H1365   1.084   .     S
C1362  C1367   1.395   .     A
C1362  H1366   1.082   .     S
C1370  C451    1.443   1_556 S
O1373  C1374   1.412   .     S
C1374  H1376   1.114   .     S
C1374  H1375   1.115   .     S
C1377  H1378   1.112   .     S
C1377  H1379   1.111   .     S
C1377  C1380   1.525   .     S
C1377  C456    1.527   1_556 S
C1380  H1383   1.110   .     S
C1380  H565    1.110   1_556 S
C1380  H1484   1.109   .     S
O1384  C1385   1.417   .     S
C1385  H1387   1.119   .     S
C1385  C1388   1.530   .     S
C1385  H468    1.110   1_556 S
C1388  H1390   1.111   .     S
C1388  H1389   1.112   .     S
C1388  C1391   1.526   .     S
C1391  H1394   1.111   .     S
C1391  H1392   1.111   .     S
H1393  C1697   1.110   .     S
O1395  C1396   1.416   .     S
C1396  H1397   1.112   .     S
C1396  C1399   1.529   .     S
C1396  H1398   1.117   .     S
C1399  H1400   1.112   .     S
C1399  H1401   1.112   .     S
C1399  C1402   1.526   .     S
C1402  H1405   1.111   .     S
C1402  H1403   1.111   .     S
C1402  H1710   1.111   .     S
O1406  C1407   1.416   .     S
C1407  H1409   1.119   .     S
C1407  C1410   1.529   .     S
H1408  C489    1.112   1_556 S
C1410  H1412   1.111   .     S
C1410  H1411   1.110   .     S
C1413  H1414   1.111   .     S
C1413  H1415   1.110   .     S
C1413  H1416   1.110   .     S
C1413  C1512   1.525   .     S
N1417  O1419   1.301   .     A
N1417  O1418   1.300   .     A
N1420  O1421   1.300   .     A
N1420  O1422   1.301   .     A
N1423  O1425   1.301   .     A
N1423  O1424   1.300   .     A
N1426  O1428   1.301   .     A
N1426  O1427   1.300   .     A
O1429  C1435   1.280   .     A
O1429  Zn1443  1.978   .     S
O1430  Zn1444  1.978   .     S
O1430  C1436   1.279   .     A
O1431  C1436   1.276   .     A
O1431  Zn1443  1.993   .     S
O1432  C1435   1.275   .     A
O1432  Zn1444  1.993   .     S
N1433  C1450   1.366   .     A
N1433  C1452   1.366   .     A
N1433  Zn1443  2.008   .     S
N1434  C1449   1.366   .     A
N1434  C1451   1.366   .     A
N1434  Zn1444  2.008   .     S
C1435  C1474   1.409   .     S
C1436  C1473   1.408   .     S
O1437  C1441   1.285   .     A
O1437  Zn1443  1.997   .     S
O1438  C1442   1.287   .     A
O1438  Zn1444  1.997   .     S
O1439  C1442   1.287   .     A
O1439  Zn1443  1.998   .     S
O1440  Zn1444  1.998   .     S
O1440  C1441   1.285   .     A
C1441  C1469   1.429   .     S
C1442  C1470   1.438   .     S
H1445  C1449   1.082   .     S
H1446  C1450   1.082   .     S
H1447  C1451   1.081   .     S
H1448  C1452   1.081   .     S
C1450  C1757   1.415   .     S
C1452  C1755   1.415   .     S
C1453  N1519   1.434   .     S
C1453  C1474   1.400   .     A
C1454  N1522   1.437   .     S
C1454  C1473   1.403   .     A
C1454  C1252   1.386   1_655 S
C1455  C1473   1.402   .     A
C1455  N1525   1.437   .     S
C1455  C1249   1.382   1_655 S
C1456  C1474   1.403   .     A
C1456  N1528   1.438   .     S
C1457  O1475   1.382   .     S
C1457  C1461   1.383   .     A
C1457  C1471   1.406   .     A
C1458  C1472   1.404   .     A
C1458  C1462   1.386   .     A
C1458  O1486   1.386   .     S
C1459  C1472   1.404   .     A
C1459  C1463   1.388   .     A
C1459  O1497   1.386   .     S
C1460  C1464   1.384   .     A
C1460  O1508   1.383   .     S
C1460  C1471   1.403   .     A
C1461  H1465   1.084   .     S
C1461  C1469   1.395   .     A
C1462  C1470   1.396   .     A
C1462  H1466   1.083   .     S
C1463  C1470   1.396   .     A
C1463  H1467   1.084   .     S
C1464  C1469   1.395   .     A
C1464  H1468   1.082   .     S
C1472  C553    1.443   1_556 S
O1475  C1476   1.412   .     S
C1476  H1478   1.114   .     S
C1476  H1477   1.115   .     S
C1479  H1480   1.112   .     S
C1479  H1481   1.111   .     S
C1479  C1482   1.525   .     S
C1479  C558    1.527   1_556 S
C1482  H1485   1.110   .     S
C1482  H361    1.110   1_656 S
C1482  H1280   1.109   1_655 S
O1486  C1487   1.417   .     S
C1487  H1489   1.119   .     S
C1487  C1490   1.530   .     S
C1487  H570    1.110   1_556 S
C1490  H1492   1.111   .     S
C1490  H1491   1.112   .     S
C1490  C1493   1.526   .     S
C1493  H1496   1.111   .     S
C1493  H1494   1.111   .     S
H1495  C1799   1.110   .     S
O1497  C1498   1.416   .     S
C1498  H1499   1.112   .     S
C1498  C1501   1.529   .     S
C1498  H1500   1.117   .     S
C1501  H1502   1.112   .     S
C1501  H1503   1.112   .     S
C1501  C1504   1.526   .     S
C1504  H1507   1.111   .     S
C1504  H1505   1.111   .     S
C1504  H1812   1.111   .     S
O1508  C1509   1.416   .     S
C1509  H1511   1.119   .     S
C1509  C1512   1.529   .     S
H1510  C591    1.112   1_556 S
C1512  H1514   1.111   .     S
C1512  H1513   1.110   .     S
C1515  H1516   1.111   .     S
C1515  H1517   1.110   .     S
C1515  H1518   1.110   .     S
C1515  C1308   1.525   1_655 S
N1519  O1521   1.301   .     A
N1519  O1520   1.300   .     A
N1522  O1523   1.300   .     A
N1522  O1524   1.301   .     A
N1525  O1527   1.301   .     A
N1525  O1526   1.300   .     A
N1528  O1530   1.301   .     A
N1528  O1529   1.300   .     A
O1531  C1537   1.280   .     A
O1531  Zn1545  1.978   .     S
O1532  Zn1546  1.978   .     S
O1532  C1538   1.279   .     A
O1533  C1538   1.276   .     A
O1533  Zn1545  1.993   .     S
O1534  C1537   1.275   .     A
O1534  Zn1546  1.993   .     S
N1535  C1552   1.366   .     A
N1535  C1554   1.366   .     A
N1535  Zn1545  2.008   .     S
N1536  C1551   1.366   .     A
N1536  C1553   1.366   .     A
N1536  Zn1546  2.008   .     S
C1537  C1576   1.409   .     S
C1538  C1575   1.408   .     S
O1539  C1543   1.285   .     A
O1539  Zn1545  1.997   .     S
O1540  C1544   1.287   .     A
O1540  Zn1546  1.997   .     S
O1541  C1544   1.287   .     A
O1541  Zn1545  1.998   .     S
O1542  Zn1546  1.998   .     S
O1542  C1543   1.285   .     A
C1543  C1571   1.429   .     S
C1544  C1572   1.438   .     S
H1547  C1551   1.082   .     S
H1548  C1552   1.082   .     S
H1549  C1553   1.081   .     S
H1550  C1554   1.081   .     S
C1552  C941    1.415   1_565 S
C1554  C939    1.415   1_565 S
C1555  N1621   1.434   .     S
C1555  C1576   1.400   .     A
C1555  C1761   1.382   1_455 S
C1556  N1624   1.437   .     S
C1556  C1575   1.403   .     A
C1556  C1660   1.386   .     S
C1557  C1575   1.402   .     A
C1557  N1627   1.437   .     S
C1557  C1657   1.382   .     S
C1558  C1576   1.403   .     A
C1558  N1630   1.438   .     S
C1558  C1760   1.386   1_455 S
C1559  O1577   1.382   .     S
C1559  C1563   1.383   .     A
C1559  C1573   1.406   .     A
C1560  C1574   1.404   .     A
C1560  C1564   1.386   .     A
C1560  O1588   1.386   .     S
C1561  C1574   1.404   .     A
C1561  C1565   1.388   .     A
C1561  O1599   1.386   .     S
C1562  C1566   1.384   .     A
C1562  O1610   1.383   .     S
C1562  C1573   1.403   .     A
C1563  H1567   1.084   .     S
C1563  C1571   1.395   .     A
C1564  C1572   1.396   .     A
C1564  H1568   1.083   .     S
C1565  C1572   1.396   .     A
C1565  H1569   1.084   .     S
C1566  C1571   1.395   .     A
C1566  H1570   1.082   .     S
C1574  C655    1.443   1_556 S
O1577  C1578   1.412   .     S
C1578  H1580   1.114   .     S
C1578  H1579   1.115   .     S
C1581  H1582   1.112   .     S
C1581  H1583   1.111   .     S
C1581  C1584   1.525   .     S
C1581  C660    1.527   1_556 S
C1584  H1587   1.110   .     S
C1584  H769    1.110   1_556 S
C1584  H1688   1.109   .     S
H1585  C870    1.110   1_455 S
H1586  C1788   1.109   1_455 S
O1588  C1589   1.417   .     S
C1589  H1591   1.119   .     S
C1589  C1592   1.530   .     S
C1589  H672    1.110   1_556 S
C1592  H1594   1.111   .     S
C1592  H1593   1.112   .     S
C1592  C1595   1.526   .     S
C1595  H1598   1.111   .     S
C1595  H1596   1.111   .     S
H1597  C983    1.110   1_565 S
O1599  C1600   1.416   .     S
C1600  H1601   1.112   .     S
C1600  C1603   1.529   .     S
C1600  H1602   1.117   .     S
C1603  H1604   1.112   .     S
C1603  H1605   1.112   .     S
C1603  C1606   1.526   .     S
C1606  H1609   1.111   .     S
C1606  H1607   1.111   .     S
C1606  H996    1.111   1_565 S
O1610  C1611   1.416   .     S
C1611  H1613   1.119   .     S
C1611  C1614   1.529   .     S
H1612  C693    1.112   1_556 S
C1614  H1616   1.111   .     S
C1614  H1615   1.110   .     S
C1614  C1821   1.525   1_455 S
C1617  H1618   1.111   .     S
C1617  H1619   1.110   .     S
C1617  H1620   1.110   .     S
C1617  C1716   1.525   .     S
N1621  O1623   1.301   .     A
N1621  O1622   1.300   .     A
N1624  O1625   1.300   .     A
N1624  O1626   1.301   .     A
N1627  O1629   1.301   .     A
N1627  O1628   1.300   .     A
N1630  O1632   1.301   .     A
N1630  O1631   1.300   .     A
O1633  C1639   1.280   .     A
O1633  Zn1647  1.978   .     S
O1634  Zn1648  1.978   .     S
O1634  C1640   1.279   .     A
O1635  C1640   1.276   .     A
O1635  Zn1647  1.993   .     S
O1636  C1639   1.275   .     A
O1636  Zn1648  1.993   .     S
N1637  C1654   1.366   .     A
N1637  C1656   1.366   .     A
N1637  Zn1647  2.008   .     S
N1638  C1653   1.366   .     A
N1638  C1655   1.366   .     A
N1638  Zn1648  2.008   .     S
C1639  C1678   1.409   .     S
C1640  C1677   1.408   .     S
O1641  C1645   1.285   .     A
O1641  Zn1647  1.997   .     S
O1642  C1646   1.287   .     A
O1642  Zn1648  1.997   .     S
O1643  C1646   1.287   .     A
O1643  Zn1647  1.998   .     S
O1644  Zn1648  1.998   .     S
O1644  C1645   1.285   .     A
C1645  C1673   1.429   .     S
C1646  C1674   1.438   .     S
H1649  C1653   1.082   .     S
H1650  C1654   1.082   .     S
H1651  C1655   1.081   .     S
H1652  C1656   1.081   .     S
C1654  C1043   1.415   1_565 S
C1656  C1041   1.415   1_565 S
C1657  N1723   1.434   .     S
C1657  C1678   1.400   .     A
C1658  N1726   1.437   .     S
C1658  C1677   1.403   .     A
C1658  C1762   1.386   .     S
C1659  C1677   1.402   .     A
C1659  N1729   1.437   .     S
C1659  C1759   1.382   .     S
C1660  C1678   1.403   .     A
C1660  N1732   1.438   .     S
C1661  O1679   1.382   .     S
C1661  C1665   1.383   .     A
C1661  C1675   1.406   .     A
C1662  C1676   1.404   .     A
C1662  C1666   1.386   .     A
C1662  O1690   1.386   .     S
C1663  C1676   1.404   .     A
C1663  C1667   1.388   .     A
C1663  O1701   1.386   .     S
C1664  C1668   1.384   .     A
C1664  O1712   1.383   .     S
C1664  C1675   1.403   .     A
C1665  H1669   1.084   .     S
C1665  C1673   1.395   .     A
C1666  C1674   1.396   .     A
C1666  H1670   1.083   .     S
C1667  C1674   1.396   .     A
C1667  H1671   1.084   .     S
C1668  C1673   1.395   .     A
C1668  H1672   1.082   .     S
C1676  C757    1.443   1_556 S
O1679  C1680   1.412   .     S
C1680  H1682   1.114   .     S
C1680  H1681   1.115   .     S
C1683  H1684   1.112   .     S
C1683  H1685   1.111   .     S
C1683  C1686   1.525   .     S
C1683  C762    1.527   1_556 S
C1686  H1689   1.110   .     S
C1686  H871    1.110   1_556 S
C1686  H1790   1.109   .     S
O1690  C1691   1.417   .     S
C1691  H1693   1.119   .     S
C1691  C1694   1.530   .     S
C1691  H774    1.110   1_556 S
C1694  H1696   1.111   .     S
C1694  H1695   1.112   .     S
C1694  C1697   1.526   .     S
C1697  H1700   1.111   .     S
C1697  H1698   1.111   .     S
H1699  C1085   1.110   1_565 S
O1701  C1702   1.416   .     S
C1702  H1703   1.112   .     S
C1702  C1705   1.529   .     S
C1702  H1704   1.117   .     S
C1705  H1706   1.112   .     S
C1705  H1707   1.112   .     S
C1705  C1708   1.526   .     S
C1708  H1711   1.111   .     S
C1708  H1709   1.111   .     S
C1708  H1098   1.111   1_565 S
O1712  C1713   1.416   .     S
C1713  H1715   1.119   .     S
C1713  C1716   1.529   .     S
H1714  C795    1.112   1_556 S
C1716  H1718   1.111   .     S
C1716  H1717   1.110   .     S
C1719  H1720   1.111   .     S
C1719  H1721   1.110   .     S
C1719  H1722   1.110   .     S
C1719  C1818   1.525   .     S
N1723  O1725   1.301   .     A
N1723  O1724   1.300   .     A
N1726  O1727   1.300   .     A
N1726  O1728   1.301   .     A
N1729  O1731   1.301   .     A
N1729  O1730   1.300   .     A
N1732  O1734   1.301   .     A
N1732  O1733   1.300   .     A
O1735  C1741   1.280   .     A
O1735  Zn1749  1.978   .     S
O1736  Zn1750  1.978   .     S
O1736  C1742   1.279   .     A
O1737  C1742   1.276   .     A
O1737  Zn1749  1.993   .     S
O1738  C1741   1.275   .     A
O1738  Zn1750  1.993   .     S
N1739  C1756   1.366   .     A
N1739  C1758   1.366   .     A
N1739  Zn1749  2.008   .     S
N1740  C1755   1.366   .     A
N1740  C1757   1.366   .     A
N1740  Zn1750  2.008   .     S
C1741  C1780   1.409   .     S
C1742  C1779   1.408   .     S
O1743  C1747   1.285   .     A
O1743  Zn1749  1.997   .     S
O1744  C1748   1.287   .     A
O1744  Zn1750  1.997   .     S
O1745  C1748   1.287   .     A
O1745  Zn1749  1.998   .     S
O1746  Zn1750  1.998   .     S
O1746  C1747   1.285   .     A
C1747  C1775   1.429   .     S
C1748  C1776   1.438   .     S
H1751  C1755   1.082   .     S
H1752  C1756   1.082   .     S
H1753  C1757   1.081   .     S
H1754  C1758   1.081   .     S
C1756  C1145   1.415   1_565 S
C1758  C1143   1.415   1_565 S
C1759  N1825   1.434   .     S
C1759  C1780   1.400   .     A
C1760  N1828   1.437   .     S
C1760  C1779   1.403   .     A
C1760  C1558   1.386   1_655 S
C1761  C1779   1.402   .     A
C1761  N1831   1.437   .     S
C1761  C1555   1.382   1_655 S
C1762  C1780   1.403   .     A
C1762  N1834   1.438   .     S
C1763  O1781   1.382   .     S
C1763  C1767   1.383   .     A
C1763  C1777   1.406   .     A
C1764  C1778   1.404   .     A
C1764  C1768   1.386   .     A
C1764  O1792   1.386   .     S
C1765  C1778   1.404   .     A
C1765  C1769   1.388   .     A
C1765  O1803   1.386   .     S
C1766  C1770   1.384   .     A
C1766  O1814   1.383   .     S
C1766  C1777   1.403   .     A
C1767  H1771   1.084   .     S
C1767  C1775   1.395   .     A
C1768  C1776   1.396   .     A
C1768  H1772   1.083   .     S
C1769  C1776   1.396   .     A
C1769  H1773   1.084   .     S
C1770  C1775   1.395   .     A
C1770  H1774   1.082   .     S
C1778  C859    1.443   1_556 S
O1781  C1782   1.412   .     S
C1782  H1784   1.114   .     S
C1782  H1783   1.115   .     S
C1785  H1786   1.112   .     S
C1785  H1787   1.111   .     S
C1785  C1788   1.525   .     S
C1785  C864    1.527   1_556 S
C1788  H1791   1.110   .     S
C1788  H667    1.110   1_656 S
C1788  H1586   1.109   1_655 S
O1792  C1793   1.417   .     S
C1793  H1795   1.119   .     S
C1793  C1796   1.530   .     S
C1793  H876    1.110   1_556 S
C1796  H1798   1.111   .     S
C1796  H1797   1.112   .     S
C1796  C1799   1.526   .     S
C1799  H1802   1.111   .     S
C1799  H1800   1.111   .     S
H1801  C1187   1.110   1_565 S
O1803  C1804   1.416   .     S
C1804  H1805   1.112   .     S
C1804  C1807   1.529   .     S
C1804  H1806   1.117   .     S
C1807  H1808   1.112   .     S
C1807  H1809   1.112   .     S
C1807  C1810   1.526   .     S
C1810  H1813   1.111   .     S
C1810  H1811   1.111   .     S
C1810  H1200   1.111   1_565 S
O1814  C1815   1.416   .     S
C1815  H1817   1.119   .     S
C1815  C1818   1.529   .     S
H1816  C897    1.112   1_556 S
C1818  H1820   1.111   .     S
C1818  H1819   1.110   .     S
C1821  H1822   1.111   .     S
C1821  H1823   1.110   .     S
C1821  H1824   1.110   .     S
C1821  C1614   1.525   1_655 S
N1825  O1827   1.301   .     A
N1825  O1826   1.300   .     A
N1828  O1829   1.300   .     A
N1828  O1830   1.301   .     A
N1831  O1833   1.301   .     A
N1831  O1832   1.300   .     A
N1834  O1836   1.301   .     A
N1834  O1835   1.300   .     A
