data_str_m3_o10_o18_pcu_sym.105
_audit_creation_date              2020-01-03
_audit_creation_method            'Materials Studio'
_symmetry_space_group_name_H-M    'P1'
_symmetry_Int_Tables_number       1
_symmetry_cell_setting            triclinic
loop_
_symmetry_equiv_pos_as_xyz
  x,y,z
_cell_length_a                    23.5889
_cell_length_b                    25.9622
_cell_length_c                    27.4098
_cell_angle_alpha                 94.5960
_cell_angle_beta                  94.2755
_cell_angle_gamma                 93.3745
loop_
_atom_site_label
_atom_site_type_symbol
_atom_site_fract_x
_atom_site_fract_y
_atom_site_fract_z
_atom_site_U_iso_or_equiv
_atom_site_adp_type
_atom_site_occupancy
C1     C     0.01532   0.26473   0.25153   0.00000  Uiso   1.00
C2     C     0.31154   0.16225   0.15877   0.00000  Uiso   1.00
C3     C     0.03044   0.17167   0.39450   0.00000  Uiso   1.00
C4     C     0.29653   0.14771   0.10684   0.00000  Uiso   1.00
C5     C     0.01429   0.21633   0.47232   0.00000  Uiso   1.00
C6     C     0.28458   0.07429   0.04627   0.00000  Uiso   1.00
C7     C     0.00151   0.20769   0.42221   0.00000  Uiso   1.00
C8     C     0.31685   0.10255   0.08508   0.00000  Uiso   1.00
C9     C     0.06910   0.14020   0.41748   0.00000  Uiso   1.00
C10    C     0.24782   0.16821   0.08597   0.00000  Uiso   1.00
C11    C     0.08224   0.14849   0.46919   0.00000  Uiso   1.00
C12    C     0.31929   0.06886   0.25286   0.00000  Uiso   1.00
C13    C     0.21045   0.13623   0.05196   0.00000  Uiso   1.00
C14    C     0.05652   0.18931   0.49543   0.00000  Uiso   1.00
C15    C     0.23052   0.08955   0.03092   0.00000  Uiso   1.00
C16    C     0.12592   0.12323   0.49450   0.00000  Uiso   1.00
C17    C     0.15447   0.14933   0.03738   0.00000  Uiso   1.00
C18    C     0.25058   0.25340   0.07185   0.00000  Uiso   1.00
C19    C     0.14901   0.11531   0.38021   0.00000  Uiso   1.00
C20    C     0.11683   0.01216   0.27673   0.00000  Uiso   1.00
C21    C     0.27521   0.01871   0.33674   0.00000  Uiso   1.00
C22    C     0.13211   0.09953   0.16875   0.00000  Uiso   1.00
C23    C     0.12522   0.18658   0.06413   0.00000  Uiso   1.00
C24    C     0.20230   0.23142   0.33249   0.00000  Uiso   1.00
C25    C     0.14347   0.07428   0.47826   0.00000  Uiso   1.00
C26    C     0.07569   0.20495   0.04390   0.00000  Uiso   1.00
C27    C     0.19547   0.05779   0.49611   0.00000  Uiso   1.00
C28    C     0.02472   0.31901   0.25283   0.00000  Uiso   1.00
C29    C     0.31521   0.01630   0.26373   0.00000  Uiso   1.00
C30    C     0.02121   0.16916   0.34119   0.00000  Uiso   1.00
H31    H     0.05546   0.23477   0.06488   0.00000  Uiso   1.00
H32    H     0.30461   0.23152   0.40460   0.00000  Uiso   1.00
H33    H     0.32745   0.24695   0.49227   0.00000  Uiso   1.00
H34    H     0.30001   0.03855   0.03069   0.00000  Uiso   1.00
H35    H     0.13891   0.20146   0.10119   0.00000  Uiso   1.00
H36    H     0.11746   0.04852   0.45152   0.00000  Uiso   1.00
H37    H     0.15727   0.02801   0.26399   0.00000  Uiso   1.00
H38    H     0.12551   0.30892   0.29330   0.00000  Uiso   1.00
H39    H     0.10328   0.04056   0.30530   0.00000  Uiso   1.00
H40    H     0.28006   0.06174   0.34124   0.00000  Uiso   1.00
H41    H     0.31215   0.00214   0.35613   0.00000  Uiso   1.00
H42    H     0.20892   0.02075   0.48169   0.00000  Uiso   1.00
H43    H     0.23648   0.00741   0.35487   0.00000  Uiso   1.00
H44    H     0.12341   0.13413   0.14903   0.00000  Uiso   1.00
H45    H     0.09221   0.07869   0.17689   0.00000  Uiso   1.00
H46    H     0.15398   0.07301   0.14368   0.00000  Uiso   1.00
H47    H     0.24253   0.25048   0.32354   0.00000  Uiso   1.00
H48    H     0.21139   0.19682   0.35184   0.00000  Uiso   1.00
H49    H     0.18188   0.25834   0.35824   0.00000  Uiso   1.00
H50    H     0.23376   0.24187   0.03321   0.00000  Uiso   1.00
H51    H     0.29758   0.26024   0.07449   0.00000  Uiso   1.00
H52    H     0.23265   0.29071   0.08304   0.00000  Uiso   1.00
H53    H     0.16978   0.14769   0.40574   0.00000  Uiso   1.00
H54    H     0.17469   0.08124   0.38408   0.00000  Uiso   1.00
H55    H     0.15099   0.12461   0.34171   0.00000  Uiso   1.00
H56    H     0.02150   0.08669   0.10080   0.00000  Uiso   1.00
N57    N     0.14695   0.15216   0.23740   0.00000  Uiso   1.00
N58    N     0.18638   0.18117   0.26261   0.00000  Uiso   1.00
O59    O     0.29719   0.24631   0.25310   0.00000  Uiso   1.00
O60    O     0.09196   0.10126   0.38889   0.00000  Uiso   1.00
O61    O     0.07577   0.00394   0.23621   0.00000  Uiso   1.00
O62    O     0.26820   0.33234   0.28684   0.00000  Uiso   1.00
O63    O     0.16823   0.11252   0.21140   0.00000  Uiso   1.00
O64    O     0.16502   0.21930   0.29043   0.00000  Uiso   1.00
O65    O     0.03614   0.08702   0.24691   0.00000  Uiso   1.00
O66    O     0.05822   0.23702   0.24502   0.00000  Uiso   1.00
O67    O     0.27512   0.09632   0.25499   0.00000  Uiso   1.00
O68    O     0.30328   0.17397   0.32247   0.00000  Uiso   1.00
O69    O     0.03005   0.15937   0.17753   0.00000  Uiso   1.00
O70    O     0.06431   0.16467   0.31439   0.00000  Uiso   1.00
O71    O     0.26902   0.16866   0.18561   0.00000  Uiso   1.00
O72    O     0.23435   0.21683   0.10431   0.00000  Uiso   1.00
Zn73   Zn    0.27033   0.17287   0.25540   0.00000  Uiso   1.00
Zn74   Zn    0.06300   0.16046   0.24461   0.00000  Uiso   1.00
C75    C     0.34866   0.26473   0.25153   0.00000  Uiso   1.00
C76    C     0.64488   0.16225   0.15877   0.00000  Uiso   1.00
C77    C     0.36377   0.17167   0.39450   0.00000  Uiso   1.00
C78    C     0.62987   0.14771   0.10684   0.00000  Uiso   1.00
C79    C     0.34763   0.21633   0.47232   0.00000  Uiso   1.00
C80    C     0.61792   0.07429   0.04627   0.00000  Uiso   1.00
C81    C     0.33484   0.20769   0.42221   0.00000  Uiso   1.00
C82    C     0.65018   0.10255   0.08508   0.00000  Uiso   1.00
C83    C     0.40243   0.14020   0.41748   0.00000  Uiso   1.00
C84    C     0.58116   0.16821   0.08597   0.00000  Uiso   1.00
C85    C     0.41557   0.14849   0.46919   0.00000  Uiso   1.00
C86    C     0.65263   0.06886   0.25286   0.00000  Uiso   1.00
C87    C     0.54378   0.13623   0.05196   0.00000  Uiso   1.00
C88    C     0.38986   0.18931   0.49543   0.00000  Uiso   1.00
C89    C     0.56385   0.08955   0.03092   0.00000  Uiso   1.00
C90    C     0.45925   0.12323   0.49450   0.00000  Uiso   1.00
C91    C     0.48780   0.14933   0.03738   0.00000  Uiso   1.00
C92    C     0.58391   0.25340   0.07185   0.00000  Uiso   1.00
C93    C     0.48234   0.11531   0.38021   0.00000  Uiso   1.00
C94    C     0.45016   0.01216   0.27673   0.00000  Uiso   1.00
C95    C     0.60854   0.01871   0.33674   0.00000  Uiso   1.00
C96    C     0.46545   0.09953   0.16875   0.00000  Uiso   1.00
C97    C     0.45855   0.18658   0.06413   0.00000  Uiso   1.00
C98    C     0.53563   0.23142   0.33249   0.00000  Uiso   1.00
C99    C     0.47680   0.07428   0.47826   0.00000  Uiso   1.00
C100   C     0.40903   0.20495   0.04390   0.00000  Uiso   1.00
C101   C     0.52880   0.05779   0.49611   0.00000  Uiso   1.00
C102   C     0.35806   0.31901   0.25283   0.00000  Uiso   1.00
C103   C     0.64854   0.01630   0.26373   0.00000  Uiso   1.00
C104   C     0.35455   0.16916   0.34119   0.00000  Uiso   1.00
H105   H     0.38879   0.23477   0.06488   0.00000  Uiso   1.00
H106   H     0.63794   0.23152   0.40460   0.00000  Uiso   1.00
H107   H     0.66078   0.24695   0.49227   0.00000  Uiso   1.00
H108   H     0.63334   0.03855   0.03069   0.00000  Uiso   1.00
H109   H     0.47224   0.20146   0.10119   0.00000  Uiso   1.00
H110   H     0.45079   0.04852   0.45152   0.00000  Uiso   1.00
H111   H     0.49061   0.02801   0.26399   0.00000  Uiso   1.00
H112   H     0.45884   0.30892   0.29330   0.00000  Uiso   1.00
H113   H     0.43661   0.04056   0.30530   0.00000  Uiso   1.00
H114   H     0.61339   0.06174   0.34124   0.00000  Uiso   1.00
H115   H     0.64548   0.00214   0.35613   0.00000  Uiso   1.00
H116   H     0.54225   0.02075   0.48169   0.00000  Uiso   1.00
H117   H     0.56981   0.00741   0.35487   0.00000  Uiso   1.00
H118   H     0.45674   0.13413   0.14903   0.00000  Uiso   1.00
H119   H     0.42554   0.07869   0.17689   0.00000  Uiso   1.00
H120   H     0.48731   0.07301   0.14368   0.00000  Uiso   1.00
H121   H     0.57586   0.25048   0.32354   0.00000  Uiso   1.00
H122   H     0.54473   0.19682   0.35184   0.00000  Uiso   1.00
H123   H     0.51521   0.25834   0.35824   0.00000  Uiso   1.00
H124   H     0.56709   0.24187   0.03321   0.00000  Uiso   1.00
H125   H     0.63091   0.26024   0.07449   0.00000  Uiso   1.00
H126   H     0.56599   0.29071   0.08304   0.00000  Uiso   1.00
H127   H     0.50311   0.14769   0.40574   0.00000  Uiso   1.00
H128   H     0.50803   0.08124   0.38408   0.00000  Uiso   1.00
H129   H     0.48433   0.12461   0.34171   0.00000  Uiso   1.00
H130   H     0.35483   0.08669   0.10080   0.00000  Uiso   1.00
N131   N     0.48029   0.15216   0.23740   0.00000  Uiso   1.00
N132   N     0.51971   0.18117   0.26261   0.00000  Uiso   1.00
O133   O     0.63052   0.24631   0.25310   0.00000  Uiso   1.00
O134   O     0.42530   0.10126   0.38889   0.00000  Uiso   1.00
O135   O     0.40910   0.00394   0.23621   0.00000  Uiso   1.00
O136   O     0.60153   0.33234   0.28684   0.00000  Uiso   1.00
O137   O     0.50156   0.11252   0.21140   0.00000  Uiso   1.00
O138   O     0.49836   0.21930   0.29043   0.00000  Uiso   1.00
O139   O     0.36948   0.08702   0.24691   0.00000  Uiso   1.00
O140   O     0.39155   0.23702   0.24502   0.00000  Uiso   1.00
O141   O     0.60845   0.09632   0.25499   0.00000  Uiso   1.00
O142   O     0.63662   0.17397   0.32247   0.00000  Uiso   1.00
O143   O     0.36338   0.15937   0.17753   0.00000  Uiso   1.00
O144   O     0.39764   0.16467   0.31439   0.00000  Uiso   1.00
O145   O     0.60236   0.16866   0.18561   0.00000  Uiso   1.00
O146   O     0.56769   0.21683   0.10431   0.00000  Uiso   1.00
Zn147  Zn    0.60366   0.17287   0.25540   0.00000  Uiso   1.00
Zn148  Zn    0.39634   0.16046   0.24461   0.00000  Uiso   1.00
C149   C     0.68199   0.26473   0.25153   0.00000  Uiso   1.00
C150   C     0.97821   0.16225   0.15877   0.00000  Uiso   1.00
C151   C     0.69710   0.17167   0.39450   0.00000  Uiso   1.00
C152   C     0.96320   0.14771   0.10684   0.00000  Uiso   1.00
C153   C     0.68096   0.21633   0.47232   0.00000  Uiso   1.00
C154   C     0.95125   0.07429   0.04627   0.00000  Uiso   1.00
C155   C     0.66818   0.20769   0.42221   0.00000  Uiso   1.00
C156   C     0.98352   0.10255   0.08508   0.00000  Uiso   1.00
C157   C     0.73577   0.14020   0.41748   0.00000  Uiso   1.00
C158   C     0.91449   0.16821   0.08597   0.00000  Uiso   1.00
C159   C     0.74891   0.14849   0.46919   0.00000  Uiso   1.00
C160   C     0.98596   0.06886   0.25286   0.00000  Uiso   1.00
C161   C     0.87712   0.13623   0.05196   0.00000  Uiso   1.00
C162   C     0.72319   0.18931   0.49543   0.00000  Uiso   1.00
C163   C     0.89719   0.08955   0.03092   0.00000  Uiso   1.00
C164   C     0.79259   0.12323   0.49450   0.00000  Uiso   1.00
C165   C     0.82114   0.14933   0.03738   0.00000  Uiso   1.00
C166   C     0.91725   0.25340   0.07185   0.00000  Uiso   1.00
C167   C     0.81567   0.11531   0.38021   0.00000  Uiso   1.00
C168   C     0.78349   0.01216   0.27673   0.00000  Uiso   1.00
C169   C     0.94187   0.01871   0.33674   0.00000  Uiso   1.00
C170   C     0.79878   0.09953   0.16875   0.00000  Uiso   1.00
C171   C     0.79188   0.18658   0.06413   0.00000  Uiso   1.00
C172   C     0.86896   0.23142   0.33249   0.00000  Uiso   1.00
C173   C     0.81014   0.07428   0.47826   0.00000  Uiso   1.00
C174   C     0.74236   0.20495   0.04390   0.00000  Uiso   1.00
C175   C     0.86214   0.05779   0.49611   0.00000  Uiso   1.00
C176   C     0.69139   0.31901   0.25283   0.00000  Uiso   1.00
C177   C     0.98187   0.01630   0.26373   0.00000  Uiso   1.00
C178   C     0.68788   0.16916   0.34119   0.00000  Uiso   1.00
H179   H     0.72212   0.23477   0.06488   0.00000  Uiso   1.00
H180   H     0.97127   0.23152   0.40460   0.00000  Uiso   1.00
H181   H     0.99412   0.24695   0.49227   0.00000  Uiso   1.00
H182   H     0.96668   0.03855   0.03069   0.00000  Uiso   1.00
H183   H     0.80558   0.20146   0.10119   0.00000  Uiso   1.00
H184   H     0.78413   0.04852   0.45152   0.00000  Uiso   1.00
H185   H     0.82394   0.02801   0.26399   0.00000  Uiso   1.00
H186   H     0.79217   0.30892   0.29330   0.00000  Uiso   1.00
H187   H     0.76995   0.04056   0.30530   0.00000  Uiso   1.00
H188   H     0.94673   0.06174   0.34124   0.00000  Uiso   1.00
H189   H     0.97882   0.00214   0.35613   0.00000  Uiso   1.00
H190   H     0.87559   0.02075   0.48169   0.00000  Uiso   1.00
H191   H     0.90315   0.00741   0.35487   0.00000  Uiso   1.00
H192   H     0.79007   0.13413   0.14903   0.00000  Uiso   1.00
H193   H     0.75888   0.07869   0.17689   0.00000  Uiso   1.00
H194   H     0.82065   0.07301   0.14368   0.00000  Uiso   1.00
H195   H     0.90920   0.25048   0.32354   0.00000  Uiso   1.00
H196   H     0.87806   0.19682   0.35184   0.00000  Uiso   1.00
H197   H     0.84855   0.25834   0.35824   0.00000  Uiso   1.00
H198   H     0.90042   0.24187   0.03321   0.00000  Uiso   1.00
H199   H     0.96424   0.26024   0.07449   0.00000  Uiso   1.00
H200   H     0.89932   0.29071   0.08304   0.00000  Uiso   1.00
H201   H     0.83644   0.14769   0.40574   0.00000  Uiso   1.00
H202   H     0.84136   0.08124   0.38408   0.00000  Uiso   1.00
H203   H     0.81766   0.12461   0.34171   0.00000  Uiso   1.00
H204   H     0.68817   0.08669   0.10080   0.00000  Uiso   1.00
N205   N     0.81362   0.15216   0.23740   0.00000  Uiso   1.00
N206   N     0.85305   0.18117   0.26261   0.00000  Uiso   1.00
O207   O     0.96386   0.24631   0.25310   0.00000  Uiso   1.00
O208   O     0.75863   0.10126   0.38889   0.00000  Uiso   1.00
O209   O     0.74243   0.00394   0.23621   0.00000  Uiso   1.00
O210   O     0.93486   0.33234   0.28684   0.00000  Uiso   1.00
O211   O     0.83490   0.11252   0.21140   0.00000  Uiso   1.00
O212   O     0.83169   0.21930   0.29043   0.00000  Uiso   1.00
O213   O     0.70281   0.08702   0.24691   0.00000  Uiso   1.00
O214   O     0.72488   0.23702   0.24502   0.00000  Uiso   1.00
O215   O     0.94178   0.09632   0.25499   0.00000  Uiso   1.00
O216   O     0.96995   0.17397   0.32247   0.00000  Uiso   1.00
O217   O     0.69672   0.15937   0.17753   0.00000  Uiso   1.00
O218   O     0.73098   0.16467   0.31439   0.00000  Uiso   1.00
O219   O     0.93569   0.16866   0.18561   0.00000  Uiso   1.00
O220   O     0.90102   0.21683   0.10431   0.00000  Uiso   1.00
Zn221  Zn    0.93700   0.17287   0.25540   0.00000  Uiso   1.00
Zn222  Zn    0.72967   0.16046   0.24461   0.00000  Uiso   1.00
C223   C     0.01532   0.59807   0.25153   0.00000  Uiso   1.00
C224   C     0.31154   0.49559   0.15877   0.00000  Uiso   1.00
C225   C     0.03044   0.50500   0.39450   0.00000  Uiso   1.00
C226   C     0.29653   0.48104   0.10684   0.00000  Uiso   1.00
C227   C     0.01429   0.54966   0.47232   0.00000  Uiso   1.00
C228   C     0.28458   0.40762   0.04627   0.00000  Uiso   1.00
C229   C     0.00151   0.54102   0.42221   0.00000  Uiso   1.00
C230   C     0.31685   0.43588   0.08508   0.00000  Uiso   1.00
C231   C     0.06910   0.47353   0.41748   0.00000  Uiso   1.00
C232   C     0.24782   0.50155   0.08597   0.00000  Uiso   1.00
C233   C     0.08224   0.48183   0.46919   0.00000  Uiso   1.00
C234   C     0.31929   0.40219   0.25286   0.00000  Uiso   1.00
C235   C     0.21045   0.46957   0.05196   0.00000  Uiso   1.00
C236   C     0.05652   0.52264   0.49543   0.00000  Uiso   1.00
C237   C     0.23052   0.42289   0.03092   0.00000  Uiso   1.00
C238   C     0.12592   0.45656   0.49450   0.00000  Uiso   1.00
C239   C     0.15447   0.48266   0.03738   0.00000  Uiso   1.00
C240   C     0.25058   0.58674   0.07185   0.00000  Uiso   1.00
C241   C     0.14901   0.44864   0.38021   0.00000  Uiso   1.00
C242   C     0.11683   0.34549   0.27673   0.00000  Uiso   1.00
C243   C     0.27521   0.35205   0.33674   0.00000  Uiso   1.00
C244   C     0.13211   0.43286   0.16875   0.00000  Uiso   1.00
C245   C     0.12522   0.51991   0.06413   0.00000  Uiso   1.00
C246   C     0.20230   0.56475   0.33249   0.00000  Uiso   1.00
C247   C     0.14347   0.40762   0.47826   0.00000  Uiso   1.00
C248   C     0.07569   0.53829   0.04390   0.00000  Uiso   1.00
C249   C     0.19547   0.39112   0.49611   0.00000  Uiso   1.00
C250   C     0.02472   0.65234   0.25283   0.00000  Uiso   1.00
C251   C     0.31521   0.34963   0.26373   0.00000  Uiso   1.00
C252   C     0.02121   0.50249   0.34119   0.00000  Uiso   1.00
H253   H     0.05546   0.56810   0.06488   0.00000  Uiso   1.00
H254   H     0.30461   0.56486   0.40460   0.00000  Uiso   1.00
H255   H     0.32745   0.58028   0.49227   0.00000  Uiso   1.00
H256   H     0.30001   0.37189   0.03069   0.00000  Uiso   1.00
H257   H     0.13891   0.53480   0.10119   0.00000  Uiso   1.00
H258   H     0.11746   0.38185   0.45152   0.00000  Uiso   1.00
H259   H     0.15727   0.36134   0.26399   0.00000  Uiso   1.00
H260   H     0.12551   0.64225   0.29330   0.00000  Uiso   1.00
H261   H     0.10328   0.37389   0.30530   0.00000  Uiso   1.00
H262   H     0.28006   0.39508   0.34124   0.00000  Uiso   1.00
H263   H     0.31215   0.33547   0.35613   0.00000  Uiso   1.00
H264   H     0.20892   0.35408   0.48169   0.00000  Uiso   1.00
H265   H     0.23648   0.34074   0.35487   0.00000  Uiso   1.00
H266   H     0.12341   0.46747   0.14903   0.00000  Uiso   1.00
H267   H     0.09221   0.41202   0.17689   0.00000  Uiso   1.00
H268   H     0.15398   0.40635   0.14368   0.00000  Uiso   1.00
H269   H     0.24253   0.58381   0.32354   0.00000  Uiso   1.00
H270   H     0.21139   0.53015   0.35184   0.00000  Uiso   1.00
H271   H     0.18188   0.59167   0.35824   0.00000  Uiso   1.00
H272   H     0.23376   0.57521   0.03321   0.00000  Uiso   1.00
H273   H     0.29758   0.59357   0.07449   0.00000  Uiso   1.00
H274   H     0.23265   0.62404   0.08304   0.00000  Uiso   1.00
H275   H     0.16978   0.48103   0.40574   0.00000  Uiso   1.00
H276   H     0.17469   0.41457   0.38408   0.00000  Uiso   1.00
H277   H     0.15099   0.45795   0.34171   0.00000  Uiso   1.00
H278   H     0.02150   0.42003   0.10080   0.00000  Uiso   1.00
N279   N     0.14695   0.48550   0.23740   0.00000  Uiso   1.00
N280   N     0.18638   0.51450   0.26261   0.00000  Uiso   1.00
O281   O     0.29719   0.57964   0.25310   0.00000  Uiso   1.00
O282   O     0.09196   0.43460   0.38889   0.00000  Uiso   1.00
O283   O     0.07577   0.33728   0.23621   0.00000  Uiso   1.00
O284   O     0.26820   0.66567   0.28684   0.00000  Uiso   1.00
O285   O     0.16823   0.44585   0.21140   0.00000  Uiso   1.00
O286   O     0.16502   0.55264   0.29043   0.00000  Uiso   1.00
O287   O     0.03614   0.42036   0.24691   0.00000  Uiso   1.00
O288   O     0.05822   0.57035   0.24502   0.00000  Uiso   1.00
O289   O     0.27512   0.42965   0.25499   0.00000  Uiso   1.00
O290   O     0.30328   0.50730   0.32247   0.00000  Uiso   1.00
O291   O     0.03005   0.49270   0.17753   0.00000  Uiso   1.00
O292   O     0.06431   0.49801   0.31439   0.00000  Uiso   1.00
O293   O     0.26902   0.50199   0.18561   0.00000  Uiso   1.00
O294   O     0.23435   0.55017   0.10431   0.00000  Uiso   1.00
Zn295  Zn    0.27033   0.50621   0.25540   0.00000  Uiso   1.00
Zn296  Zn    0.06300   0.49379   0.24461   0.00000  Uiso   1.00
C297   C     0.34866   0.59807   0.25153   0.00000  Uiso   1.00
C298   C     0.64488   0.49559   0.15877   0.00000  Uiso   1.00
C299   C     0.36377   0.50500   0.39450   0.00000  Uiso   1.00
C300   C     0.62987   0.48104   0.10684   0.00000  Uiso   1.00
C301   C     0.34763   0.54966   0.47232   0.00000  Uiso   1.00
C302   C     0.61792   0.40762   0.04627   0.00000  Uiso   1.00
C303   C     0.33484   0.54102   0.42221   0.00000  Uiso   1.00
C304   C     0.65018   0.43588   0.08508   0.00000  Uiso   1.00
C305   C     0.40243   0.47353   0.41748   0.00000  Uiso   1.00
C306   C     0.58116   0.50155   0.08597   0.00000  Uiso   1.00
C307   C     0.41557   0.48183   0.46919   0.00000  Uiso   1.00
C308   C     0.65263   0.40219   0.25286   0.00000  Uiso   1.00
C309   C     0.54378   0.46957   0.05196   0.00000  Uiso   1.00
C310   C     0.38986   0.52264   0.49543   0.00000  Uiso   1.00
C311   C     0.56385   0.42289   0.03092   0.00000  Uiso   1.00
C312   C     0.45925   0.45656   0.49450   0.00000  Uiso   1.00
C313   C     0.48780   0.48266   0.03738   0.00000  Uiso   1.00
C314   C     0.58391   0.58674   0.07185   0.00000  Uiso   1.00
C315   C     0.48234   0.44864   0.38021   0.00000  Uiso   1.00
C316   C     0.45016   0.34549   0.27673   0.00000  Uiso   1.00
C317   C     0.60854   0.35205   0.33674   0.00000  Uiso   1.00
C318   C     0.46545   0.43286   0.16875   0.00000  Uiso   1.00
C319   C     0.45855   0.51991   0.06413   0.00000  Uiso   1.00
C320   C     0.53563   0.56475   0.33249   0.00000  Uiso   1.00
C321   C     0.47680   0.40762   0.47826   0.00000  Uiso   1.00
C322   C     0.40903   0.53829   0.04390   0.00000  Uiso   1.00
C323   C     0.52880   0.39112   0.49611   0.00000  Uiso   1.00
C324   C     0.35806   0.65234   0.25283   0.00000  Uiso   1.00
C325   C     0.64854   0.34963   0.26373   0.00000  Uiso   1.00
C326   C     0.35455   0.50249   0.34119   0.00000  Uiso   1.00
H327   H     0.38879   0.56810   0.06488   0.00000  Uiso   1.00
H328   H     0.63794   0.56486   0.40460   0.00000  Uiso   1.00
H329   H     0.66078   0.58028   0.49227   0.00000  Uiso   1.00
H330   H     0.63334   0.37189   0.03069   0.00000  Uiso   1.00
H331   H     0.47224   0.53480   0.10119   0.00000  Uiso   1.00
H332   H     0.45079   0.38185   0.45152   0.00000  Uiso   1.00
H333   H     0.49061   0.36134   0.26399   0.00000  Uiso   1.00
H334   H     0.45884   0.64225   0.29330   0.00000  Uiso   1.00
H335   H     0.43661   0.37389   0.30530   0.00000  Uiso   1.00
H336   H     0.61339   0.39508   0.34124   0.00000  Uiso   1.00
H337   H     0.64548   0.33547   0.35613   0.00000  Uiso   1.00
H338   H     0.54225   0.35408   0.48169   0.00000  Uiso   1.00
H339   H     0.56981   0.34074   0.35487   0.00000  Uiso   1.00
H340   H     0.45674   0.46747   0.14903   0.00000  Uiso   1.00
H341   H     0.42554   0.41202   0.17689   0.00000  Uiso   1.00
H342   H     0.48731   0.40635   0.14368   0.00000  Uiso   1.00
H343   H     0.57586   0.58381   0.32354   0.00000  Uiso   1.00
H344   H     0.54473   0.53015   0.35184   0.00000  Uiso   1.00
H345   H     0.51521   0.59167   0.35824   0.00000  Uiso   1.00
H346   H     0.56709   0.57521   0.03321   0.00000  Uiso   1.00
H347   H     0.63091   0.59357   0.07449   0.00000  Uiso   1.00
H348   H     0.56599   0.62404   0.08304   0.00000  Uiso   1.00
H349   H     0.50311   0.48103   0.40574   0.00000  Uiso   1.00
H350   H     0.50803   0.41457   0.38408   0.00000  Uiso   1.00
H351   H     0.48433   0.45795   0.34171   0.00000  Uiso   1.00
H352   H     0.35483   0.42003   0.10080   0.00000  Uiso   1.00
N353   N     0.48029   0.48550   0.23740   0.00000  Uiso   1.00
N354   N     0.51971   0.51450   0.26261   0.00000  Uiso   1.00
O355   O     0.63052   0.57964   0.25310   0.00000  Uiso   1.00
O356   O     0.42530   0.43460   0.38889   0.00000  Uiso   1.00
O357   O     0.40910   0.33728   0.23621   0.00000  Uiso   1.00
O358   O     0.60153   0.66567   0.28684   0.00000  Uiso   1.00
O359   O     0.50156   0.44585   0.21140   0.00000  Uiso   1.00
O360   O     0.49836   0.55264   0.29043   0.00000  Uiso   1.00
O361   O     0.36948   0.42036   0.24691   0.00000  Uiso   1.00
O362   O     0.39155   0.57035   0.24502   0.00000  Uiso   1.00
O363   O     0.60845   0.42965   0.25499   0.00000  Uiso   1.00
O364   O     0.63662   0.50730   0.32247   0.00000  Uiso   1.00
O365   O     0.36338   0.49270   0.17753   0.00000  Uiso   1.00
O366   O     0.39764   0.49801   0.31439   0.00000  Uiso   1.00
O367   O     0.60236   0.50199   0.18561   0.00000  Uiso   1.00
O368   O     0.56769   0.55017   0.10431   0.00000  Uiso   1.00
Zn369  Zn    0.60366   0.50621   0.25540   0.00000  Uiso   1.00
Zn370  Zn    0.39634   0.49379   0.24461   0.00000  Uiso   1.00
C371   C     0.68199   0.59807   0.25153   0.00000  Uiso   1.00
C372   C     0.97821   0.49559   0.15877   0.00000  Uiso   1.00
C373   C     0.69710   0.50500   0.39450   0.00000  Uiso   1.00
C374   C     0.96320   0.48104   0.10684   0.00000  Uiso   1.00
C375   C     0.68096   0.54966   0.47232   0.00000  Uiso   1.00
C376   C     0.95125   0.40762   0.04627   0.00000  Uiso   1.00
C377   C     0.66818   0.54102   0.42221   0.00000  Uiso   1.00
C378   C     0.98352   0.43588   0.08508   0.00000  Uiso   1.00
C379   C     0.73577   0.47353   0.41748   0.00000  Uiso   1.00
C380   C     0.91449   0.50155   0.08597   0.00000  Uiso   1.00
C381   C     0.74891   0.48183   0.46919   0.00000  Uiso   1.00
C382   C     0.98596   0.40219   0.25286   0.00000  Uiso   1.00
C383   C     0.87712   0.46957   0.05196   0.00000  Uiso   1.00
C384   C     0.72319   0.52264   0.49543   0.00000  Uiso   1.00
C385   C     0.89719   0.42289   0.03092   0.00000  Uiso   1.00
C386   C     0.79259   0.45656   0.49450   0.00000  Uiso   1.00
C387   C     0.82114   0.48266   0.03738   0.00000  Uiso   1.00
C388   C     0.91725   0.58674   0.07185   0.00000  Uiso   1.00
C389   C     0.81567   0.44864   0.38021   0.00000  Uiso   1.00
C390   C     0.78349   0.34549   0.27673   0.00000  Uiso   1.00
C391   C     0.94187   0.35205   0.33674   0.00000  Uiso   1.00
C392   C     0.79878   0.43286   0.16875   0.00000  Uiso   1.00
C393   C     0.79188   0.51991   0.06413   0.00000  Uiso   1.00
C394   C     0.86896   0.56475   0.33249   0.00000  Uiso   1.00
C395   C     0.81014   0.40762   0.47826   0.00000  Uiso   1.00
C396   C     0.74236   0.53829   0.04390   0.00000  Uiso   1.00
C397   C     0.86214   0.39112   0.49611   0.00000  Uiso   1.00
C398   C     0.69139   0.65234   0.25283   0.00000  Uiso   1.00
C399   C     0.98187   0.34963   0.26373   0.00000  Uiso   1.00
C400   C     0.68788   0.50249   0.34119   0.00000  Uiso   1.00
H401   H     0.72212   0.56810   0.06488   0.00000  Uiso   1.00
H402   H     0.97127   0.56486   0.40460   0.00000  Uiso   1.00
H403   H     0.99412   0.58028   0.49227   0.00000  Uiso   1.00
H404   H     0.96668   0.37189   0.03069   0.00000  Uiso   1.00
H405   H     0.80558   0.53480   0.10119   0.00000  Uiso   1.00
H406   H     0.78413   0.38185   0.45152   0.00000  Uiso   1.00
H407   H     0.82394   0.36134   0.26399   0.00000  Uiso   1.00
H408   H     0.79217   0.64225   0.29330   0.00000  Uiso   1.00
H409   H     0.76995   0.37389   0.30530   0.00000  Uiso   1.00
H410   H     0.94673   0.39508   0.34124   0.00000  Uiso   1.00
H411   H     0.97882   0.33547   0.35613   0.00000  Uiso   1.00
H412   H     0.87559   0.35408   0.48169   0.00000  Uiso   1.00
H413   H     0.90315   0.34074   0.35487   0.00000  Uiso   1.00
H414   H     0.79007   0.46747   0.14903   0.00000  Uiso   1.00
H415   H     0.75888   0.41202   0.17689   0.00000  Uiso   1.00
H416   H     0.82065   0.40635   0.14368   0.00000  Uiso   1.00
H417   H     0.90920   0.58381   0.32354   0.00000  Uiso   1.00
H418   H     0.87806   0.53015   0.35184   0.00000  Uiso   1.00
H419   H     0.84855   0.59167   0.35824   0.00000  Uiso   1.00
H420   H     0.90042   0.57521   0.03321   0.00000  Uiso   1.00
H421   H     0.96424   0.59357   0.07449   0.00000  Uiso   1.00
H422   H     0.89932   0.62404   0.08304   0.00000  Uiso   1.00
H423   H     0.83644   0.48103   0.40574   0.00000  Uiso   1.00
H424   H     0.84136   0.41457   0.38408   0.00000  Uiso   1.00
H425   H     0.81766   0.45795   0.34171   0.00000  Uiso   1.00
H426   H     0.68817   0.42003   0.10080   0.00000  Uiso   1.00
N427   N     0.81362   0.48550   0.23740   0.00000  Uiso   1.00
N428   N     0.85305   0.51450   0.26261   0.00000  Uiso   1.00
O429   O     0.96386   0.57964   0.25310   0.00000  Uiso   1.00
O430   O     0.75863   0.43460   0.38889   0.00000  Uiso   1.00
O431   O     0.74243   0.33728   0.23621   0.00000  Uiso   1.00
O432   O     0.93486   0.66567   0.28684   0.00000  Uiso   1.00
O433   O     0.83490   0.44585   0.21140   0.00000  Uiso   1.00
O434   O     0.83169   0.55264   0.29043   0.00000  Uiso   1.00
O435   O     0.70281   0.42036   0.24691   0.00000  Uiso   1.00
O436   O     0.72488   0.57035   0.24502   0.00000  Uiso   1.00
O437   O     0.94178   0.42965   0.25499   0.00000  Uiso   1.00
O438   O     0.96995   0.50730   0.32247   0.00000  Uiso   1.00
O439   O     0.69672   0.49270   0.17753   0.00000  Uiso   1.00
O440   O     0.73098   0.49801   0.31439   0.00000  Uiso   1.00
O441   O     0.93569   0.50199   0.18561   0.00000  Uiso   1.00
O442   O     0.90102   0.55017   0.10431   0.00000  Uiso   1.00
Zn443  Zn    0.93700   0.50621   0.25540   0.00000  Uiso   1.00
Zn444  Zn    0.72967   0.49379   0.24461   0.00000  Uiso   1.00
C445   C     0.01532   0.93140   0.25153   0.00000  Uiso   1.00
C446   C     0.31154   0.82892   0.15877   0.00000  Uiso   1.00
C447   C     0.03044   0.83833   0.39450   0.00000  Uiso   1.00
C448   C     0.29653   0.81438   0.10684   0.00000  Uiso   1.00
C449   C     0.01429   0.88300   0.47232   0.00000  Uiso   1.00
C450   C     0.28458   0.74095   0.04627   0.00000  Uiso   1.00
C451   C     0.00151   0.87435   0.42221   0.00000  Uiso   1.00
C452   C     0.31685   0.76922   0.08508   0.00000  Uiso   1.00
C453   C     0.06910   0.80687   0.41748   0.00000  Uiso   1.00
C454   C     0.24782   0.83488   0.08597   0.00000  Uiso   1.00
C455   C     0.08224   0.81516   0.46919   0.00000  Uiso   1.00
C456   C     0.31929   0.73552   0.25286   0.00000  Uiso   1.00
C457   C     0.21045   0.80290   0.05196   0.00000  Uiso   1.00
C458   C     0.05652   0.85598   0.49543   0.00000  Uiso   1.00
C459   C     0.23052   0.75622   0.03092   0.00000  Uiso   1.00
C460   C     0.12592   0.78989   0.49450   0.00000  Uiso   1.00
C461   C     0.15447   0.81599   0.03738   0.00000  Uiso   1.00
C462   C     0.25058   0.92007   0.07185   0.00000  Uiso   1.00
C463   C     0.14901   0.78198   0.38021   0.00000  Uiso   1.00
C464   C     0.11683   0.67882   0.27673   0.00000  Uiso   1.00
C465   C     0.27521   0.68538   0.33674   0.00000  Uiso   1.00
C466   C     0.13211   0.76619   0.16875   0.00000  Uiso   1.00
C467   C     0.12522   0.85325   0.06413   0.00000  Uiso   1.00
C468   C     0.20230   0.89809   0.33249   0.00000  Uiso   1.00
C469   C     0.14347   0.74095   0.47826   0.00000  Uiso   1.00
C470   C     0.07569   0.87162   0.04390   0.00000  Uiso   1.00
C471   C     0.19547   0.72445   0.49611   0.00000  Uiso   1.00
C472   C     0.02472   0.98567   0.25283   0.00000  Uiso   1.00
C473   C     0.31521   0.68296   0.26373   0.00000  Uiso   1.00
C474   C     0.02121   0.83583   0.34119   0.00000  Uiso   1.00
H475   H     0.05546   0.90143   0.06488   0.00000  Uiso   1.00
H476   H     0.30461   0.89819   0.40460   0.00000  Uiso   1.00
H477   H     0.32745   0.91362   0.49227   0.00000  Uiso   1.00
H478   H     0.30001   0.70522   0.03069   0.00000  Uiso   1.00
H479   H     0.13891   0.86813   0.10119   0.00000  Uiso   1.00
H480   H     0.11746   0.71519   0.45152   0.00000  Uiso   1.00
H481   H     0.15727   0.69468   0.26399   0.00000  Uiso   1.00
H482   H     0.12551   0.97558   0.29330   0.00000  Uiso   1.00
H483   H     0.10328   0.70722   0.30530   0.00000  Uiso   1.00
H484   H     0.28006   0.72841   0.34124   0.00000  Uiso   1.00
H485   H     0.31215   0.66880   0.35613   0.00000  Uiso   1.00
H486   H     0.20892   0.68741   0.48169   0.00000  Uiso   1.00
H487   H     0.23648   0.67408   0.35487   0.00000  Uiso   1.00
H488   H     0.12341   0.80080   0.14903   0.00000  Uiso   1.00
H489   H     0.09221   0.74535   0.17689   0.00000  Uiso   1.00
H490   H     0.15398   0.73968   0.14368   0.00000  Uiso   1.00
H491   H     0.24253   0.91714   0.32354   0.00000  Uiso   1.00
H492   H     0.21139   0.86349   0.35184   0.00000  Uiso   1.00
H493   H     0.18188   0.92500   0.35824   0.00000  Uiso   1.00
H494   H     0.23376   0.90854   0.03321   0.00000  Uiso   1.00
H495   H     0.29758   0.92691   0.07449   0.00000  Uiso   1.00
H496   H     0.23265   0.95738   0.08304   0.00000  Uiso   1.00
H497   H     0.16978   0.81436   0.40574   0.00000  Uiso   1.00
H498   H     0.17469   0.74791   0.38408   0.00000  Uiso   1.00
H499   H     0.15099   0.79128   0.34171   0.00000  Uiso   1.00
H500   H     0.02150   0.75336   0.10080   0.00000  Uiso   1.00
N501   N     0.14695   0.81883   0.23740   0.00000  Uiso   1.00
N502   N     0.18638   0.84784   0.26261   0.00000  Uiso   1.00
O503   O     0.29719   0.91298   0.25310   0.00000  Uiso   1.00
O504   O     0.09196   0.76793   0.38889   0.00000  Uiso   1.00
O505   O     0.07577   0.67061   0.23621   0.00000  Uiso   1.00
O506   O     0.26820   0.99901   0.28684   0.00000  Uiso   1.00
O507   O     0.16823   0.77919   0.21140   0.00000  Uiso   1.00
O508   O     0.16502   0.88597   0.29043   0.00000  Uiso   1.00
O509   O     0.03614   0.75369   0.24691   0.00000  Uiso   1.00
O510   O     0.05822   0.90368   0.24502   0.00000  Uiso   1.00
O511   O     0.27512   0.76298   0.25499   0.00000  Uiso   1.00
O512   O     0.30328   0.84063   0.32247   0.00000  Uiso   1.00
O513   O     0.03005   0.82603   0.17753   0.00000  Uiso   1.00
O514   O     0.06431   0.83134   0.31439   0.00000  Uiso   1.00
O515   O     0.26902   0.83533   0.18561   0.00000  Uiso   1.00
O516   O     0.23435   0.88350   0.10431   0.00000  Uiso   1.00
Zn517  Zn    0.27033   0.83954   0.25540   0.00000  Uiso   1.00
Zn518  Zn    0.06300   0.82713   0.24461   0.00000  Uiso   1.00
C519   C     0.34866   0.93140   0.25153   0.00000  Uiso   1.00
C520   C     0.64488   0.82892   0.15877   0.00000  Uiso   1.00
C521   C     0.36377   0.83833   0.39450   0.00000  Uiso   1.00
C522   C     0.62987   0.81438   0.10684   0.00000  Uiso   1.00
C523   C     0.34763   0.88300   0.47232   0.00000  Uiso   1.00
C524   C     0.61792   0.74095   0.04627   0.00000  Uiso   1.00
C525   C     0.33484   0.87435   0.42221   0.00000  Uiso   1.00
C526   C     0.65018   0.76922   0.08508   0.00000  Uiso   1.00
C527   C     0.40243   0.80687   0.41748   0.00000  Uiso   1.00
C528   C     0.58116   0.83488   0.08597   0.00000  Uiso   1.00
C529   C     0.41557   0.81516   0.46919   0.00000  Uiso   1.00
C530   C     0.65263   0.73552   0.25286   0.00000  Uiso   1.00
C531   C     0.54378   0.80290   0.05196   0.00000  Uiso   1.00
C532   C     0.38986   0.85598   0.49543   0.00000  Uiso   1.00
C533   C     0.56385   0.75622   0.03092   0.00000  Uiso   1.00
C534   C     0.45925   0.78989   0.49450   0.00000  Uiso   1.00
C535   C     0.48780   0.81599   0.03738   0.00000  Uiso   1.00
C536   C     0.58391   0.92007   0.07185   0.00000  Uiso   1.00
C537   C     0.48234   0.78198   0.38021   0.00000  Uiso   1.00
C538   C     0.45016   0.67882   0.27673   0.00000  Uiso   1.00
C539   C     0.60854   0.68538   0.33674   0.00000  Uiso   1.00
C540   C     0.46545   0.76619   0.16875   0.00000  Uiso   1.00
C541   C     0.45855   0.85325   0.06413   0.00000  Uiso   1.00
C542   C     0.53563   0.89809   0.33249   0.00000  Uiso   1.00
C543   C     0.47680   0.74095   0.47826   0.00000  Uiso   1.00
C544   C     0.40903   0.87162   0.04390   0.00000  Uiso   1.00
C545   C     0.52880   0.72445   0.49611   0.00000  Uiso   1.00
C546   C     0.35806   0.98567   0.25283   0.00000  Uiso   1.00
C547   C     0.64854   0.68296   0.26373   0.00000  Uiso   1.00
C548   C     0.35455   0.83583   0.34119   0.00000  Uiso   1.00
H549   H     0.38879   0.90143   0.06488   0.00000  Uiso   1.00
H550   H     0.63794   0.89819   0.40460   0.00000  Uiso   1.00
H551   H     0.66078   0.91362   0.49227   0.00000  Uiso   1.00
H552   H     0.63334   0.70522   0.03069   0.00000  Uiso   1.00
H553   H     0.47224   0.86813   0.10119   0.00000  Uiso   1.00
H554   H     0.45079   0.71519   0.45152   0.00000  Uiso   1.00
H555   H     0.49061   0.69468   0.26399   0.00000  Uiso   1.00
H556   H     0.45884   0.97558   0.29330   0.00000  Uiso   1.00
H557   H     0.43661   0.70722   0.30530   0.00000  Uiso   1.00
H558   H     0.61339   0.72841   0.34124   0.00000  Uiso   1.00
H559   H     0.64548   0.66880   0.35613   0.00000  Uiso   1.00
H560   H     0.54225   0.68741   0.48169   0.00000  Uiso   1.00
H561   H     0.56981   0.67408   0.35487   0.00000  Uiso   1.00
H562   H     0.45674   0.80080   0.14903   0.00000  Uiso   1.00
H563   H     0.42554   0.74535   0.17689   0.00000  Uiso   1.00
H564   H     0.48731   0.73968   0.14368   0.00000  Uiso   1.00
H565   H     0.57586   0.91714   0.32354   0.00000  Uiso   1.00
H566   H     0.54473   0.86349   0.35184   0.00000  Uiso   1.00
H567   H     0.51521   0.92500   0.35824   0.00000  Uiso   1.00
H568   H     0.56709   0.90854   0.03321   0.00000  Uiso   1.00
H569   H     0.63091   0.92691   0.07449   0.00000  Uiso   1.00
H570   H     0.56599   0.95738   0.08304   0.00000  Uiso   1.00
H571   H     0.50311   0.81436   0.40574   0.00000  Uiso   1.00
H572   H     0.50803   0.74791   0.38408   0.00000  Uiso   1.00
H573   H     0.48433   0.79128   0.34171   0.00000  Uiso   1.00
H574   H     0.35483   0.75336   0.10080   0.00000  Uiso   1.00
N575   N     0.48029   0.81883   0.23740   0.00000  Uiso   1.00
N576   N     0.51971   0.84784   0.26261   0.00000  Uiso   1.00
O577   O     0.63052   0.91298   0.25310   0.00000  Uiso   1.00
O578   O     0.42530   0.76793   0.38889   0.00000  Uiso   1.00
O579   O     0.40910   0.67061   0.23621   0.00000  Uiso   1.00
O580   O     0.60153   0.99901   0.28684   0.00000  Uiso   1.00
O581   O     0.50156   0.77919   0.21140   0.00000  Uiso   1.00
O582   O     0.49836   0.88597   0.29043   0.00000  Uiso   1.00
O583   O     0.36948   0.75369   0.24691   0.00000  Uiso   1.00
O584   O     0.39155   0.90368   0.24502   0.00000  Uiso   1.00
O585   O     0.60845   0.76298   0.25499   0.00000  Uiso   1.00
O586   O     0.63662   0.84063   0.32247   0.00000  Uiso   1.00
O587   O     0.36338   0.82603   0.17753   0.00000  Uiso   1.00
O588   O     0.39764   0.83134   0.31439   0.00000  Uiso   1.00
O589   O     0.60236   0.83533   0.18561   0.00000  Uiso   1.00
O590   O     0.56769   0.88350   0.10431   0.00000  Uiso   1.00
Zn591  Zn    0.60366   0.83954   0.25540   0.00000  Uiso   1.00
Zn592  Zn    0.39634   0.82713   0.24461   0.00000  Uiso   1.00
C593   C     0.68199   0.93140   0.25153   0.00000  Uiso   1.00
C594   C     0.97821   0.82892   0.15877   0.00000  Uiso   1.00
C595   C     0.69710   0.83833   0.39450   0.00000  Uiso   1.00
C596   C     0.96320   0.81438   0.10684   0.00000  Uiso   1.00
C597   C     0.68096   0.88300   0.47232   0.00000  Uiso   1.00
C598   C     0.95125   0.74095   0.04627   0.00000  Uiso   1.00
C599   C     0.66818   0.87435   0.42221   0.00000  Uiso   1.00
C600   C     0.98352   0.76922   0.08508   0.00000  Uiso   1.00
C601   C     0.73577   0.80687   0.41748   0.00000  Uiso   1.00
C602   C     0.91449   0.83488   0.08597   0.00000  Uiso   1.00
C603   C     0.74891   0.81516   0.46919   0.00000  Uiso   1.00
C604   C     0.98596   0.73552   0.25286   0.00000  Uiso   1.00
C605   C     0.87712   0.80290   0.05196   0.00000  Uiso   1.00
C606   C     0.72319   0.85598   0.49543   0.00000  Uiso   1.00
C607   C     0.89719   0.75622   0.03092   0.00000  Uiso   1.00
C608   C     0.79259   0.78989   0.49450   0.00000  Uiso   1.00
C609   C     0.82114   0.81599   0.03738   0.00000  Uiso   1.00
C610   C     0.91725   0.92007   0.07185   0.00000  Uiso   1.00
C611   C     0.81567   0.78198   0.38021   0.00000  Uiso   1.00
C612   C     0.78349   0.67882   0.27673   0.00000  Uiso   1.00
C613   C     0.94187   0.68538   0.33674   0.00000  Uiso   1.00
C614   C     0.79878   0.76619   0.16875   0.00000  Uiso   1.00
C615   C     0.79188   0.85325   0.06413   0.00000  Uiso   1.00
C616   C     0.86896   0.89809   0.33249   0.00000  Uiso   1.00
C617   C     0.81014   0.74095   0.47826   0.00000  Uiso   1.00
C618   C     0.74236   0.87162   0.04390   0.00000  Uiso   1.00
C619   C     0.86214   0.72445   0.49611   0.00000  Uiso   1.00
C620   C     0.69139   0.98567   0.25283   0.00000  Uiso   1.00
C621   C     0.98187   0.68296   0.26373   0.00000  Uiso   1.00
C622   C     0.68788   0.83583   0.34119   0.00000  Uiso   1.00
H623   H     0.72212   0.90143   0.06488   0.00000  Uiso   1.00
H624   H     0.97127   0.89819   0.40460   0.00000  Uiso   1.00
H625   H     0.99412   0.91362   0.49227   0.00000  Uiso   1.00
H626   H     0.96668   0.70522   0.03069   0.00000  Uiso   1.00
H627   H     0.80558   0.86813   0.10119   0.00000  Uiso   1.00
H628   H     0.78413   0.71519   0.45152   0.00000  Uiso   1.00
H629   H     0.82394   0.69468   0.26399   0.00000  Uiso   1.00
H630   H     0.79217   0.97558   0.29330   0.00000  Uiso   1.00
H631   H     0.76995   0.70722   0.30530   0.00000  Uiso   1.00
H632   H     0.94673   0.72841   0.34124   0.00000  Uiso   1.00
H633   H     0.97882   0.66880   0.35613   0.00000  Uiso   1.00
H634   H     0.87559   0.68741   0.48169   0.00000  Uiso   1.00
H635   H     0.90315   0.67408   0.35487   0.00000  Uiso   1.00
H636   H     0.79007   0.80080   0.14903   0.00000  Uiso   1.00
H637   H     0.75888   0.74535   0.17689   0.00000  Uiso   1.00
H638   H     0.82065   0.73968   0.14368   0.00000  Uiso   1.00
H639   H     0.90920   0.91714   0.32354   0.00000  Uiso   1.00
H640   H     0.87806   0.86349   0.35184   0.00000  Uiso   1.00
H641   H     0.84855   0.92500   0.35824   0.00000  Uiso   1.00
H642   H     0.90042   0.90854   0.03321   0.00000  Uiso   1.00
H643   H     0.96424   0.92691   0.07449   0.00000  Uiso   1.00
H644   H     0.89932   0.95738   0.08304   0.00000  Uiso   1.00
H645   H     0.83644   0.81436   0.40574   0.00000  Uiso   1.00
H646   H     0.84136   0.74791   0.38408   0.00000  Uiso   1.00
H647   H     0.81766   0.79128   0.34171   0.00000  Uiso   1.00
H648   H     0.68817   0.75336   0.10080   0.00000  Uiso   1.00
N649   N     0.81362   0.81883   0.23740   0.00000  Uiso   1.00
N650   N     0.85305   0.84784   0.26261   0.00000  Uiso   1.00
O651   O     0.96386   0.91298   0.25310   0.00000  Uiso   1.00
O652   O     0.75863   0.76793   0.38889   0.00000  Uiso   1.00
O653   O     0.74243   0.67061   0.23621   0.00000  Uiso   1.00
O654   O     0.93486   0.99901   0.28684   0.00000  Uiso   1.00
O655   O     0.83490   0.77919   0.21140   0.00000  Uiso   1.00
O656   O     0.83169   0.88597   0.29043   0.00000  Uiso   1.00
O657   O     0.70281   0.75369   0.24691   0.00000  Uiso   1.00
O658   O     0.72488   0.90368   0.24502   0.00000  Uiso   1.00
O659   O     0.94178   0.76298   0.25499   0.00000  Uiso   1.00
O660   O     0.96995   0.84063   0.32247   0.00000  Uiso   1.00
O661   O     0.69672   0.82603   0.17753   0.00000  Uiso   1.00
O662   O     0.73098   0.83134   0.31439   0.00000  Uiso   1.00
O663   O     0.93569   0.83533   0.18561   0.00000  Uiso   1.00
O664   O     0.90102   0.88350   0.10431   0.00000  Uiso   1.00
Zn665  Zn    0.93700   0.83954   0.25540   0.00000  Uiso   1.00
Zn666  Zn    0.72967   0.82713   0.24461   0.00000  Uiso   1.00
C667   C     0.01532   0.26473   0.75153   0.00000  Uiso   1.00
C668   C     0.31154   0.16225   0.65877   0.00000  Uiso   1.00
C669   C     0.03044   0.17167   0.89450   0.00000  Uiso   1.00
C670   C     0.29653   0.14771   0.60684   0.00000  Uiso   1.00
C671   C     0.01429   0.21633   0.97232   0.00000  Uiso   1.00
C672   C     0.28458   0.07429   0.54627   0.00000  Uiso   1.00
C673   C     0.00151   0.20769   0.92221   0.00000  Uiso   1.00
C674   C     0.31685   0.10255   0.58508   0.00000  Uiso   1.00
C675   C     0.06910   0.14020   0.91748   0.00000  Uiso   1.00
C676   C     0.24782   0.16821   0.58597   0.00000  Uiso   1.00
C677   C     0.08224   0.14849   0.96919   0.00000  Uiso   1.00
C678   C     0.31929   0.06886   0.75286   0.00000  Uiso   1.00
C679   C     0.21045   0.13623   0.55196   0.00000  Uiso   1.00
C680   C     0.05652   0.18931   0.99543   0.00000  Uiso   1.00
C681   C     0.23052   0.08955   0.53092   0.00000  Uiso   1.00
C682   C     0.12592   0.12323   0.99450   0.00000  Uiso   1.00
C683   C     0.15447   0.14933   0.53738   0.00000  Uiso   1.00
C684   C     0.25058   0.25340   0.57185   0.00000  Uiso   1.00
C685   C     0.14901   0.11531   0.88021   0.00000  Uiso   1.00
C686   C     0.11683   0.01216   0.77673   0.00000  Uiso   1.00
C687   C     0.27521   0.01871   0.83674   0.00000  Uiso   1.00
C688   C     0.13211   0.09953   0.66875   0.00000  Uiso   1.00
C689   C     0.12522   0.18658   0.56413   0.00000  Uiso   1.00
C690   C     0.20230   0.23142   0.83249   0.00000  Uiso   1.00
C691   C     0.14347   0.07428   0.97826   0.00000  Uiso   1.00
C692   C     0.07569   0.20495   0.54390   0.00000  Uiso   1.00
C693   C     0.19547   0.05779   0.99611   0.00000  Uiso   1.00
C694   C     0.02472   0.31901   0.75283   0.00000  Uiso   1.00
C695   C     0.31521   0.01630   0.76373   0.00000  Uiso   1.00
C696   C     0.02121   0.16916   0.84119   0.00000  Uiso   1.00
H697   H     0.05546   0.23477   0.56488   0.00000  Uiso   1.00
H698   H     0.30461   0.23152   0.90460   0.00000  Uiso   1.00
H699   H     0.32745   0.24695   0.99227   0.00000  Uiso   1.00
H700   H     0.30001   0.03855   0.53069   0.00000  Uiso   1.00
H701   H     0.13891   0.20146   0.60119   0.00000  Uiso   1.00
H702   H     0.11746   0.04852   0.95152   0.00000  Uiso   1.00
H703   H     0.15727   0.02801   0.76399   0.00000  Uiso   1.00
H704   H     0.12551   0.30892   0.79330   0.00000  Uiso   1.00
H705   H     0.10328   0.04056   0.80530   0.00000  Uiso   1.00
H706   H     0.28006   0.06174   0.84124   0.00000  Uiso   1.00
H707   H     0.31215   0.00214   0.85613   0.00000  Uiso   1.00
H708   H     0.20892   0.02075   0.98169   0.00000  Uiso   1.00
H709   H     0.23648   0.00741   0.85487   0.00000  Uiso   1.00
H710   H     0.12341   0.13413   0.64903   0.00000  Uiso   1.00
H711   H     0.09221   0.07869   0.67689   0.00000  Uiso   1.00
H712   H     0.15398   0.07301   0.64368   0.00000  Uiso   1.00
H713   H     0.24253   0.25048   0.82354   0.00000  Uiso   1.00
H714   H     0.21139   0.19682   0.85184   0.00000  Uiso   1.00
H715   H     0.18188   0.25834   0.85824   0.00000  Uiso   1.00
H716   H     0.23376   0.24187   0.53321   0.00000  Uiso   1.00
H717   H     0.29758   0.26024   0.57449   0.00000  Uiso   1.00
H718   H     0.23265   0.29071   0.58304   0.00000  Uiso   1.00
H719   H     0.16978   0.14769   0.90574   0.00000  Uiso   1.00
H720   H     0.17469   0.08124   0.88408   0.00000  Uiso   1.00
H721   H     0.15099   0.12461   0.84171   0.00000  Uiso   1.00
H722   H     0.02150   0.08669   0.60080   0.00000  Uiso   1.00
N723   N     0.14695   0.15216   0.73740   0.00000  Uiso   1.00
N724   N     0.18638   0.18117   0.76261   0.00000  Uiso   1.00
O725   O     0.29719   0.24631   0.75310   0.00000  Uiso   1.00
O726   O     0.09196   0.10126   0.88889   0.00000  Uiso   1.00
O727   O     0.07577   0.00394   0.73621   0.00000  Uiso   1.00
O728   O     0.26820   0.33234   0.78684   0.00000  Uiso   1.00
O729   O     0.16823   0.11252   0.71140   0.00000  Uiso   1.00
O730   O     0.16502   0.21930   0.79043   0.00000  Uiso   1.00
O731   O     0.03614   0.08702   0.74691   0.00000  Uiso   1.00
O732   O     0.05822   0.23702   0.74502   0.00000  Uiso   1.00
O733   O     0.27512   0.09632   0.75499   0.00000  Uiso   1.00
O734   O     0.30328   0.17397   0.82247   0.00000  Uiso   1.00
O735   O     0.03005   0.15937   0.67753   0.00000  Uiso   1.00
O736   O     0.06431   0.16467   0.81439   0.00000  Uiso   1.00
O737   O     0.26902   0.16866   0.68561   0.00000  Uiso   1.00
O738   O     0.23435   0.21683   0.60431   0.00000  Uiso   1.00
Zn739  Zn    0.27033   0.17287   0.75540   0.00000  Uiso   1.00
Zn740  Zn    0.06300   0.16046   0.74461   0.00000  Uiso   1.00
C741   C     0.34866   0.26473   0.75153   0.00000  Uiso   1.00
C742   C     0.64488   0.16225   0.65877   0.00000  Uiso   1.00
C743   C     0.36377   0.17167   0.89450   0.00000  Uiso   1.00
C744   C     0.62987   0.14771   0.60684   0.00000  Uiso   1.00
C745   C     0.34763   0.21633   0.97232   0.00000  Uiso   1.00
C746   C     0.61792   0.07429   0.54627   0.00000  Uiso   1.00
C747   C     0.33484   0.20769   0.92221   0.00000  Uiso   1.00
C748   C     0.65018   0.10255   0.58508   0.00000  Uiso   1.00
C749   C     0.40243   0.14020   0.91748   0.00000  Uiso   1.00
C750   C     0.58116   0.16821   0.58597   0.00000  Uiso   1.00
C751   C     0.41557   0.14849   0.96919   0.00000  Uiso   1.00
C752   C     0.65263   0.06886   0.75286   0.00000  Uiso   1.00
C753   C     0.54378   0.13623   0.55196   0.00000  Uiso   1.00
C754   C     0.38986   0.18931   0.99543   0.00000  Uiso   1.00
C755   C     0.56385   0.08955   0.53092   0.00000  Uiso   1.00
C756   C     0.45925   0.12323   0.99450   0.00000  Uiso   1.00
C757   C     0.48780   0.14933   0.53738   0.00000  Uiso   1.00
C758   C     0.58391   0.25340   0.57185   0.00000  Uiso   1.00
C759   C     0.48234   0.11531   0.88021   0.00000  Uiso   1.00
C760   C     0.45016   0.01216   0.77673   0.00000  Uiso   1.00
C761   C     0.60854   0.01871   0.83674   0.00000  Uiso   1.00
C762   C     0.46545   0.09953   0.66875   0.00000  Uiso   1.00
C763   C     0.45855   0.18658   0.56413   0.00000  Uiso   1.00
C764   C     0.53563   0.23142   0.83249   0.00000  Uiso   1.00
C765   C     0.47680   0.07428   0.97826   0.00000  Uiso   1.00
C766   C     0.40903   0.20495   0.54390   0.00000  Uiso   1.00
C767   C     0.52880   0.05779   0.99611   0.00000  Uiso   1.00
C768   C     0.35806   0.31901   0.75283   0.00000  Uiso   1.00
C769   C     0.64854   0.01630   0.76373   0.00000  Uiso   1.00
C770   C     0.35455   0.16916   0.84119   0.00000  Uiso   1.00
H771   H     0.38879   0.23477   0.56488   0.00000  Uiso   1.00
H772   H     0.63794   0.23152   0.90460   0.00000  Uiso   1.00
H773   H     0.66078   0.24695   0.99227   0.00000  Uiso   1.00
H774   H     0.63334   0.03855   0.53069   0.00000  Uiso   1.00
H775   H     0.47224   0.20146   0.60119   0.00000  Uiso   1.00
H776   H     0.45079   0.04852   0.95152   0.00000  Uiso   1.00
H777   H     0.49061   0.02801   0.76399   0.00000  Uiso   1.00
H778   H     0.45884   0.30892   0.79330   0.00000  Uiso   1.00
H779   H     0.43661   0.04056   0.80530   0.00000  Uiso   1.00
H780   H     0.61339   0.06174   0.84124   0.00000  Uiso   1.00
H781   H     0.64548   0.00214   0.85613   0.00000  Uiso   1.00
H782   H     0.54225   0.02075   0.98169   0.00000  Uiso   1.00
H783   H     0.56981   0.00741   0.85487   0.00000  Uiso   1.00
H784   H     0.45674   0.13413   0.64903   0.00000  Uiso   1.00
H785   H     0.42554   0.07869   0.67689   0.00000  Uiso   1.00
H786   H     0.48731   0.07301   0.64368   0.00000  Uiso   1.00
H787   H     0.57586   0.25048   0.82354   0.00000  Uiso   1.00
H788   H     0.54473   0.19682   0.85184   0.00000  Uiso   1.00
H789   H     0.51521   0.25834   0.85824   0.00000  Uiso   1.00
H790   H     0.56709   0.24187   0.53321   0.00000  Uiso   1.00
H791   H     0.63091   0.26024   0.57449   0.00000  Uiso   1.00
H792   H     0.56599   0.29071   0.58304   0.00000  Uiso   1.00
H793   H     0.50311   0.14769   0.90574   0.00000  Uiso   1.00
H794   H     0.50803   0.08124   0.88408   0.00000  Uiso   1.00
H795   H     0.48433   0.12461   0.84171   0.00000  Uiso   1.00
H796   H     0.35483   0.08669   0.60080   0.00000  Uiso   1.00
N797   N     0.48029   0.15216   0.73740   0.00000  Uiso   1.00
N798   N     0.51971   0.18117   0.76261   0.00000  Uiso   1.00
O799   O     0.63052   0.24631   0.75310   0.00000  Uiso   1.00
O800   O     0.42530   0.10126   0.88889   0.00000  Uiso   1.00
O801   O     0.40910   0.00394   0.73621   0.00000  Uiso   1.00
O802   O     0.60153   0.33234   0.78684   0.00000  Uiso   1.00
O803   O     0.50156   0.11252   0.71140   0.00000  Uiso   1.00
O804   O     0.49836   0.21930   0.79043   0.00000  Uiso   1.00
O805   O     0.36948   0.08702   0.74691   0.00000  Uiso   1.00
O806   O     0.39155   0.23702   0.74502   0.00000  Uiso   1.00
O807   O     0.60845   0.09632   0.75499   0.00000  Uiso   1.00
O808   O     0.63662   0.17397   0.82247   0.00000  Uiso   1.00
O809   O     0.36338   0.15937   0.67753   0.00000  Uiso   1.00
O810   O     0.39764   0.16467   0.81439   0.00000  Uiso   1.00
O811   O     0.60236   0.16866   0.68561   0.00000  Uiso   1.00
O812   O     0.56769   0.21683   0.60431   0.00000  Uiso   1.00
Zn813  Zn    0.60366   0.17287   0.75540   0.00000  Uiso   1.00
Zn814  Zn    0.39634   0.16046   0.74461   0.00000  Uiso   1.00
C815   C     0.68199   0.26473   0.75153   0.00000  Uiso   1.00
C816   C     0.97821   0.16225   0.65877   0.00000  Uiso   1.00
C817   C     0.69710   0.17167   0.89450   0.00000  Uiso   1.00
C818   C     0.96320   0.14771   0.60684   0.00000  Uiso   1.00
C819   C     0.68096   0.21633   0.97232   0.00000  Uiso   1.00
C820   C     0.95125   0.07429   0.54627   0.00000  Uiso   1.00
C821   C     0.66818   0.20769   0.92221   0.00000  Uiso   1.00
C822   C     0.98352   0.10255   0.58508   0.00000  Uiso   1.00
C823   C     0.73577   0.14020   0.91748   0.00000  Uiso   1.00
C824   C     0.91449   0.16821   0.58597   0.00000  Uiso   1.00
C825   C     0.74891   0.14849   0.96919   0.00000  Uiso   1.00
C826   C     0.98596   0.06886   0.75286   0.00000  Uiso   1.00
C827   C     0.87712   0.13623   0.55196   0.00000  Uiso   1.00
C828   C     0.72319   0.18931   0.99543   0.00000  Uiso   1.00
C829   C     0.89719   0.08955   0.53092   0.00000  Uiso   1.00
C830   C     0.79259   0.12323   0.99450   0.00000  Uiso   1.00
C831   C     0.82114   0.14933   0.53738   0.00000  Uiso   1.00
C832   C     0.91725   0.25340   0.57185   0.00000  Uiso   1.00
C833   C     0.81567   0.11531   0.88021   0.00000  Uiso   1.00
C834   C     0.78349   0.01216   0.77673   0.00000  Uiso   1.00
C835   C     0.94187   0.01871   0.83674   0.00000  Uiso   1.00
C836   C     0.79878   0.09953   0.66875   0.00000  Uiso   1.00
C837   C     0.79188   0.18658   0.56413   0.00000  Uiso   1.00
C838   C     0.86896   0.23142   0.83249   0.00000  Uiso   1.00
C839   C     0.81014   0.07428   0.97826   0.00000  Uiso   1.00
C840   C     0.74236   0.20495   0.54390   0.00000  Uiso   1.00
C841   C     0.86214   0.05779   0.99611   0.00000  Uiso   1.00
C842   C     0.69139   0.31901   0.75283   0.00000  Uiso   1.00
C843   C     0.98187   0.01630   0.76373   0.00000  Uiso   1.00
C844   C     0.68788   0.16916   0.84119   0.00000  Uiso   1.00
H845   H     0.72212   0.23477   0.56488   0.00000  Uiso   1.00
H846   H     0.97127   0.23152   0.90460   0.00000  Uiso   1.00
H847   H     0.99412   0.24695   0.99227   0.00000  Uiso   1.00
H848   H     0.96668   0.03855   0.53069   0.00000  Uiso   1.00
H849   H     0.80558   0.20146   0.60119   0.00000  Uiso   1.00
H850   H     0.78413   0.04852   0.95152   0.00000  Uiso   1.00
H851   H     0.82394   0.02801   0.76399   0.00000  Uiso   1.00
H852   H     0.79217   0.30892   0.79330   0.00000  Uiso   1.00
H853   H     0.76995   0.04056   0.80530   0.00000  Uiso   1.00
H854   H     0.94673   0.06174   0.84124   0.00000  Uiso   1.00
H855   H     0.97882   0.00214   0.85613   0.00000  Uiso   1.00
H856   H     0.87559   0.02075   0.98169   0.00000  Uiso   1.00
H857   H     0.90315   0.00741   0.85487   0.00000  Uiso   1.00
H858   H     0.79007   0.13413   0.64903   0.00000  Uiso   1.00
H859   H     0.75888   0.07869   0.67689   0.00000  Uiso   1.00
H860   H     0.82065   0.07301   0.64368   0.00000  Uiso   1.00
H861   H     0.90920   0.25048   0.82354   0.00000  Uiso   1.00
H862   H     0.87806   0.19682   0.85184   0.00000  Uiso   1.00
H863   H     0.84855   0.25834   0.85824   0.00000  Uiso   1.00
H864   H     0.90042   0.24187   0.53321   0.00000  Uiso   1.00
H865   H     0.96424   0.26024   0.57449   0.00000  Uiso   1.00
H866   H     0.89932   0.29071   0.58304   0.00000  Uiso   1.00
H867   H     0.83644   0.14769   0.90574   0.00000  Uiso   1.00
H868   H     0.84136   0.08124   0.88408   0.00000  Uiso   1.00
H869   H     0.81766   0.12461   0.84171   0.00000  Uiso   1.00
H870   H     0.68817   0.08669   0.60080   0.00000  Uiso   1.00
N871   N     0.81362   0.15216   0.73740   0.00000  Uiso   1.00
N872   N     0.85305   0.18117   0.76261   0.00000  Uiso   1.00
O873   O     0.96386   0.24631   0.75310   0.00000  Uiso   1.00
O874   O     0.75863   0.10126   0.88889   0.00000  Uiso   1.00
O875   O     0.74243   0.00394   0.73621   0.00000  Uiso   1.00
O876   O     0.93486   0.33234   0.78684   0.00000  Uiso   1.00
O877   O     0.83490   0.11252   0.71140   0.00000  Uiso   1.00
O878   O     0.83169   0.21930   0.79043   0.00000  Uiso   1.00
O879   O     0.70281   0.08702   0.74691   0.00000  Uiso   1.00
O880   O     0.72488   0.23702   0.74502   0.00000  Uiso   1.00
O881   O     0.94178   0.09632   0.75499   0.00000  Uiso   1.00
O882   O     0.96995   0.17397   0.82247   0.00000  Uiso   1.00
O883   O     0.69672   0.15937   0.67753   0.00000  Uiso   1.00
O884   O     0.73098   0.16467   0.81439   0.00000  Uiso   1.00
O885   O     0.93569   0.16866   0.68561   0.00000  Uiso   1.00
O886   O     0.90102   0.21683   0.60431   0.00000  Uiso   1.00
Zn887  Zn    0.93700   0.17287   0.75540   0.00000  Uiso   1.00
Zn888  Zn    0.72967   0.16046   0.74461   0.00000  Uiso   1.00
C889   C     0.01532   0.59807   0.75153   0.00000  Uiso   1.00
C890   C     0.31154   0.49559   0.65877   0.00000  Uiso   1.00
C891   C     0.03044   0.50500   0.89450   0.00000  Uiso   1.00
C892   C     0.29653   0.48104   0.60684   0.00000  Uiso   1.00
C893   C     0.01429   0.54966   0.97232   0.00000  Uiso   1.00
C894   C     0.28458   0.40762   0.54627   0.00000  Uiso   1.00
C895   C     0.00151   0.54102   0.92221   0.00000  Uiso   1.00
C896   C     0.31685   0.43588   0.58508   0.00000  Uiso   1.00
C897   C     0.06910   0.47353   0.91748   0.00000  Uiso   1.00
C898   C     0.24782   0.50155   0.58597   0.00000  Uiso   1.00
C899   C     0.08224   0.48183   0.96919   0.00000  Uiso   1.00
C900   C     0.31929   0.40219   0.75286   0.00000  Uiso   1.00
C901   C     0.21045   0.46957   0.55196   0.00000  Uiso   1.00
C902   C     0.05652   0.52264   0.99543   0.00000  Uiso   1.00
C903   C     0.23052   0.42289   0.53092   0.00000  Uiso   1.00
C904   C     0.12592   0.45656   0.99450   0.00000  Uiso   1.00
C905   C     0.15447   0.48266   0.53738   0.00000  Uiso   1.00
C906   C     0.25058   0.58674   0.57185   0.00000  Uiso   1.00
C907   C     0.14901   0.44864   0.88021   0.00000  Uiso   1.00
C908   C     0.11683   0.34549   0.77673   0.00000  Uiso   1.00
C909   C     0.27521   0.35205   0.83674   0.00000  Uiso   1.00
C910   C     0.13211   0.43286   0.66875   0.00000  Uiso   1.00
C911   C     0.12522   0.51991   0.56413   0.00000  Uiso   1.00
C912   C     0.20230   0.56475   0.83249   0.00000  Uiso   1.00
C913   C     0.14347   0.40762   0.97826   0.00000  Uiso   1.00
C914   C     0.07569   0.53829   0.54390   0.00000  Uiso   1.00
C915   C     0.19547   0.39112   0.99611   0.00000  Uiso   1.00
C916   C     0.02472   0.65234   0.75283   0.00000  Uiso   1.00
C917   C     0.31521   0.34963   0.76373   0.00000  Uiso   1.00
C918   C     0.02121   0.50249   0.84119   0.00000  Uiso   1.00
H919   H     0.05546   0.56810   0.56488   0.00000  Uiso   1.00
H920   H     0.30461   0.56486   0.90460   0.00000  Uiso   1.00
H921   H     0.32745   0.58028   0.99227   0.00000  Uiso   1.00
H922   H     0.30001   0.37189   0.53069   0.00000  Uiso   1.00
H923   H     0.13891   0.53480   0.60119   0.00000  Uiso   1.00
H924   H     0.11746   0.38185   0.95152   0.00000  Uiso   1.00
H925   H     0.15727   0.36134   0.76399   0.00000  Uiso   1.00
H926   H     0.12551   0.64225   0.79330   0.00000  Uiso   1.00
H927   H     0.10328   0.37389   0.80530   0.00000  Uiso   1.00
H928   H     0.28006   0.39508   0.84124   0.00000  Uiso   1.00
H929   H     0.31215   0.33547   0.85613   0.00000  Uiso   1.00
H930   H     0.20892   0.35408   0.98169   0.00000  Uiso   1.00
H931   H     0.23648   0.34074   0.85487   0.00000  Uiso   1.00
H932   H     0.12341   0.46747   0.64903   0.00000  Uiso   1.00
H933   H     0.09221   0.41202   0.67689   0.00000  Uiso   1.00
H934   H     0.15398   0.40635   0.64368   0.00000  Uiso   1.00
H935   H     0.24253   0.58381   0.82354   0.00000  Uiso   1.00
H936   H     0.21139   0.53015   0.85184   0.00000  Uiso   1.00
H937   H     0.18188   0.59167   0.85824   0.00000  Uiso   1.00
H938   H     0.23376   0.57521   0.53321   0.00000  Uiso   1.00
H939   H     0.29758   0.59357   0.57449   0.00000  Uiso   1.00
H940   H     0.23265   0.62404   0.58304   0.00000  Uiso   1.00
H941   H     0.16978   0.48103   0.90574   0.00000  Uiso   1.00
H942   H     0.17469   0.41457   0.88408   0.00000  Uiso   1.00
H943   H     0.15099   0.45795   0.84171   0.00000  Uiso   1.00
H944   H     0.02150   0.42003   0.60080   0.00000  Uiso   1.00
N945   N     0.14695   0.48550   0.73740   0.00000  Uiso   1.00
N946   N     0.18638   0.51450   0.76261   0.00000  Uiso   1.00
O947   O     0.29719   0.57964   0.75310   0.00000  Uiso   1.00
O948   O     0.09196   0.43460   0.88889   0.00000  Uiso   1.00
O949   O     0.07577   0.33728   0.73621   0.00000  Uiso   1.00
O950   O     0.26820   0.66567   0.78684   0.00000  Uiso   1.00
O951   O     0.16823   0.44585   0.71140   0.00000  Uiso   1.00
O952   O     0.16502   0.55264   0.79043   0.00000  Uiso   1.00
O953   O     0.03614   0.42036   0.74691   0.00000  Uiso   1.00
O954   O     0.05822   0.57035   0.74502   0.00000  Uiso   1.00
O955   O     0.27512   0.42965   0.75499   0.00000  Uiso   1.00
O956   O     0.30328   0.50730   0.82247   0.00000  Uiso   1.00
O957   O     0.03005   0.49270   0.67753   0.00000  Uiso   1.00
O958   O     0.06431   0.49801   0.81439   0.00000  Uiso   1.00
O959   O     0.26902   0.50199   0.68561   0.00000  Uiso   1.00
O960   O     0.23435   0.55017   0.60431   0.00000  Uiso   1.00
Zn961  Zn    0.27033   0.50621   0.75540   0.00000  Uiso   1.00
Zn962  Zn    0.06300   0.49379   0.74461   0.00000  Uiso   1.00
C963   C     0.34866   0.59807   0.75153   0.00000  Uiso   1.00
C964   C     0.64488   0.49559   0.65877   0.00000  Uiso   1.00
C965   C     0.36377   0.50500   0.89450   0.00000  Uiso   1.00
C966   C     0.62987   0.48104   0.60684   0.00000  Uiso   1.00
C967   C     0.34763   0.54966   0.97232   0.00000  Uiso   1.00
C968   C     0.61792   0.40762   0.54627   0.00000  Uiso   1.00
C969   C     0.33484   0.54102   0.92221   0.00000  Uiso   1.00
C970   C     0.65018   0.43588   0.58508   0.00000  Uiso   1.00
C971   C     0.40243   0.47353   0.91748   0.00000  Uiso   1.00
C972   C     0.58116   0.50155   0.58597   0.00000  Uiso   1.00
C973   C     0.41557   0.48183   0.96919   0.00000  Uiso   1.00
C974   C     0.65263   0.40219   0.75286   0.00000  Uiso   1.00
C975   C     0.54378   0.46957   0.55196   0.00000  Uiso   1.00
C976   C     0.38986   0.52264   0.99543   0.00000  Uiso   1.00
C977   C     0.56385   0.42289   0.53092   0.00000  Uiso   1.00
C978   C     0.45925   0.45656   0.99450   0.00000  Uiso   1.00
C979   C     0.48780   0.48266   0.53738   0.00000  Uiso   1.00
C980   C     0.58391   0.58674   0.57185   0.00000  Uiso   1.00
C981   C     0.48234   0.44864   0.88021   0.00000  Uiso   1.00
C982   C     0.45016   0.34549   0.77673   0.00000  Uiso   1.00
C983   C     0.60854   0.35205   0.83674   0.00000  Uiso   1.00
C984   C     0.46545   0.43286   0.66875   0.00000  Uiso   1.00
C985   C     0.45855   0.51991   0.56413   0.00000  Uiso   1.00
C986   C     0.53563   0.56475   0.83249   0.00000  Uiso   1.00
C987   C     0.47680   0.40762   0.97826   0.00000  Uiso   1.00
C988   C     0.40903   0.53829   0.54390   0.00000  Uiso   1.00
C989   C     0.52880   0.39112   0.99611   0.00000  Uiso   1.00
C990   C     0.35806   0.65234   0.75283   0.00000  Uiso   1.00
C991   C     0.64854   0.34963   0.76373   0.00000  Uiso   1.00
C992   C     0.35455   0.50249   0.84119   0.00000  Uiso   1.00
H993   H     0.38879   0.56810   0.56488   0.00000  Uiso   1.00
H994   H     0.63794   0.56486   0.90460   0.00000  Uiso   1.00
H995   H     0.66078   0.58028   0.99227   0.00000  Uiso   1.00
H996   H     0.63334   0.37189   0.53069   0.00000  Uiso   1.00
H997   H     0.47224   0.53480   0.60119   0.00000  Uiso   1.00
H998   H     0.45079   0.38185   0.95152   0.00000  Uiso   1.00
H999   H     0.49061   0.36134   0.76399   0.00000  Uiso   1.00
H1000  H     0.45884   0.64225   0.79330   0.00000  Uiso   1.00
H1001  H     0.43661   0.37389   0.80530   0.00000  Uiso   1.00
H1002  H     0.61339   0.39508   0.84124   0.00000  Uiso   1.00
H1003  H     0.64548   0.33547   0.85613   0.00000  Uiso   1.00
H1004  H     0.54225   0.35408   0.98169   0.00000  Uiso   1.00
H1005  H     0.56981   0.34074   0.85487   0.00000  Uiso   1.00
H1006  H     0.45674   0.46747   0.64903   0.00000  Uiso   1.00
H1007  H     0.42554   0.41202   0.67689   0.00000  Uiso   1.00
H1008  H     0.48731   0.40635   0.64368   0.00000  Uiso   1.00
H1009  H     0.57586   0.58381   0.82354   0.00000  Uiso   1.00
H1010  H     0.54473   0.53015   0.85184   0.00000  Uiso   1.00
H1011  H     0.51521   0.59167   0.85824   0.00000  Uiso   1.00
H1012  H     0.56709   0.57521   0.53321   0.00000  Uiso   1.00
H1013  H     0.63091   0.59357   0.57449   0.00000  Uiso   1.00
H1014  H     0.56599   0.62404   0.58304   0.00000  Uiso   1.00
H1015  H     0.50311   0.48103   0.90574   0.00000  Uiso   1.00
H1016  H     0.50803   0.41457   0.88408   0.00000  Uiso   1.00
H1017  H     0.48433   0.45795   0.84171   0.00000  Uiso   1.00
H1018  H     0.35483   0.42003   0.60080   0.00000  Uiso   1.00
N1019  N     0.48029   0.48550   0.73740   0.00000  Uiso   1.00
N1020  N     0.51971   0.51450   0.76261   0.00000  Uiso   1.00
O1021  O     0.63052   0.57964   0.75310   0.00000  Uiso   1.00
O1022  O     0.42530   0.43460   0.88889   0.00000  Uiso   1.00
O1023  O     0.40910   0.33728   0.73621   0.00000  Uiso   1.00
O1024  O     0.60153   0.66567   0.78684   0.00000  Uiso   1.00
O1025  O     0.50156   0.44585   0.71140   0.00000  Uiso   1.00
O1026  O     0.49836   0.55264   0.79043   0.00000  Uiso   1.00
O1027  O     0.36948   0.42036   0.74691   0.00000  Uiso   1.00
O1028  O     0.39155   0.57035   0.74502   0.00000  Uiso   1.00
O1029  O     0.60845   0.42965   0.75499   0.00000  Uiso   1.00
O1030  O     0.63662   0.50730   0.82247   0.00000  Uiso   1.00
O1031  O     0.36338   0.49270   0.67753   0.00000  Uiso   1.00
O1032  O     0.39764   0.49801   0.81439   0.00000  Uiso   1.00
O1033  O     0.60236   0.50199   0.68561   0.00000  Uiso   1.00
O1034  O     0.56769   0.55017   0.60431   0.00000  Uiso   1.00
Zn1035 Zn    0.60366   0.50621   0.75540   0.00000  Uiso   1.00
Zn1036 Zn    0.39634   0.49379   0.74461   0.00000  Uiso   1.00
C1037  C     0.68199   0.59807   0.75153   0.00000  Uiso   1.00
C1038  C     0.97821   0.49559   0.65877   0.00000  Uiso   1.00
C1039  C     0.69710   0.50500   0.89450   0.00000  Uiso   1.00
C1040  C     0.96320   0.48104   0.60684   0.00000  Uiso   1.00
C1041  C     0.68096   0.54966   0.97232   0.00000  Uiso   1.00
C1042  C     0.95125   0.40762   0.54627   0.00000  Uiso   1.00
C1043  C     0.66818   0.54102   0.92221   0.00000  Uiso   1.00
C1044  C     0.98352   0.43588   0.58508   0.00000  Uiso   1.00
C1045  C     0.73577   0.47353   0.91748   0.00000  Uiso   1.00
C1046  C     0.91449   0.50155   0.58597   0.00000  Uiso   1.00
C1047  C     0.74891   0.48183   0.96919   0.00000  Uiso   1.00
C1048  C     0.98596   0.40219   0.75286   0.00000  Uiso   1.00
C1049  C     0.87712   0.46957   0.55196   0.00000  Uiso   1.00
C1050  C     0.72319   0.52264   0.99543   0.00000  Uiso   1.00
C1051  C     0.89719   0.42289   0.53092   0.00000  Uiso   1.00
C1052  C     0.79259   0.45656   0.99450   0.00000  Uiso   1.00
C1053  C     0.82114   0.48266   0.53738   0.00000  Uiso   1.00
C1054  C     0.91725   0.58674   0.57185   0.00000  Uiso   1.00
C1055  C     0.81567   0.44864   0.88021   0.00000  Uiso   1.00
C1056  C     0.78349   0.34549   0.77673   0.00000  Uiso   1.00
C1057  C     0.94187   0.35205   0.83674   0.00000  Uiso   1.00
C1058  C     0.79878   0.43286   0.66875   0.00000  Uiso   1.00
C1059  C     0.79188   0.51991   0.56413   0.00000  Uiso   1.00
C1060  C     0.86896   0.56475   0.83249   0.00000  Uiso   1.00
C1061  C     0.81014   0.40762   0.97826   0.00000  Uiso   1.00
C1062  C     0.74236   0.53829   0.54390   0.00000  Uiso   1.00
C1063  C     0.86214   0.39112   0.99611   0.00000  Uiso   1.00
C1064  C     0.69139   0.65234   0.75283   0.00000  Uiso   1.00
C1065  C     0.98187   0.34963   0.76373   0.00000  Uiso   1.00
C1066  C     0.68788   0.50249   0.84119   0.00000  Uiso   1.00
H1067  H     0.72212   0.56810   0.56488   0.00000  Uiso   1.00
H1068  H     0.97127   0.56486   0.90460   0.00000  Uiso   1.00
H1069  H     0.99412   0.58028   0.99227   0.00000  Uiso   1.00
H1070  H     0.96668   0.37189   0.53069   0.00000  Uiso   1.00
H1071  H     0.80558   0.53480   0.60119   0.00000  Uiso   1.00
H1072  H     0.78413   0.38185   0.95152   0.00000  Uiso   1.00
H1073  H     0.82394   0.36134   0.76399   0.00000  Uiso   1.00
H1074  H     0.79217   0.64225   0.79330   0.00000  Uiso   1.00
H1075  H     0.76995   0.37389   0.80530   0.00000  Uiso   1.00
H1076  H     0.94673   0.39508   0.84124   0.00000  Uiso   1.00
H1077  H     0.97882   0.33547   0.85613   0.00000  Uiso   1.00
H1078  H     0.87559   0.35408   0.98169   0.00000  Uiso   1.00
H1079  H     0.90315   0.34074   0.85487   0.00000  Uiso   1.00
H1080  H     0.79007   0.46747   0.64903   0.00000  Uiso   1.00
H1081  H     0.75888   0.41202   0.67689   0.00000  Uiso   1.00
H1082  H     0.82065   0.40635   0.64368   0.00000  Uiso   1.00
H1083  H     0.90920   0.58381   0.82354   0.00000  Uiso   1.00
H1084  H     0.87806   0.53015   0.85184   0.00000  Uiso   1.00
H1085  H     0.84855   0.59167   0.85824   0.00000  Uiso   1.00
H1086  H     0.90042   0.57521   0.53321   0.00000  Uiso   1.00
H1087  H     0.96424   0.59357   0.57449   0.00000  Uiso   1.00
H1088  H     0.89932   0.62404   0.58304   0.00000  Uiso   1.00
H1089  H     0.83644   0.48103   0.90574   0.00000  Uiso   1.00
H1090  H     0.84136   0.41457   0.88408   0.00000  Uiso   1.00
H1091  H     0.81766   0.45795   0.84171   0.00000  Uiso   1.00
H1092  H     0.68817   0.42003   0.60080   0.00000  Uiso   1.00
N1093  N     0.81362   0.48550   0.73740   0.00000  Uiso   1.00
N1094  N     0.85305   0.51450   0.76261   0.00000  Uiso   1.00
O1095  O     0.96386   0.57964   0.75310   0.00000  Uiso   1.00
O1096  O     0.75863   0.43460   0.88889   0.00000  Uiso   1.00
O1097  O     0.74243   0.33728   0.73621   0.00000  Uiso   1.00
O1098  O     0.93486   0.66567   0.78684   0.00000  Uiso   1.00
O1099  O     0.83490   0.44585   0.71140   0.00000  Uiso   1.00
O1100  O     0.83169   0.55264   0.79043   0.00000  Uiso   1.00
O1101  O     0.70281   0.42036   0.74691   0.00000  Uiso   1.00
O1102  O     0.72488   0.57035   0.74502   0.00000  Uiso   1.00
O1103  O     0.94178   0.42965   0.75499   0.00000  Uiso   1.00
O1104  O     0.96995   0.50730   0.82247   0.00000  Uiso   1.00
O1105  O     0.69672   0.49270   0.67753   0.00000  Uiso   1.00
O1106  O     0.73098   0.49801   0.81439   0.00000  Uiso   1.00
O1107  O     0.93569   0.50199   0.68561   0.00000  Uiso   1.00
O1108  O     0.90102   0.55017   0.60431   0.00000  Uiso   1.00
Zn1109 Zn    0.93700   0.50621   0.75540   0.00000  Uiso   1.00
Zn1110 Zn    0.72967   0.49379   0.74461   0.00000  Uiso   1.00
C1111  C     0.01532   0.93140   0.75153   0.00000  Uiso   1.00
C1112  C     0.31154   0.82892   0.65877   0.00000  Uiso   1.00
C1113  C     0.03044   0.83833   0.89450   0.00000  Uiso   1.00
C1114  C     0.29653   0.81438   0.60684   0.00000  Uiso   1.00
C1115  C     0.01429   0.88300   0.97232   0.00000  Uiso   1.00
C1116  C     0.28458   0.74095   0.54627   0.00000  Uiso   1.00
C1117  C     0.00151   0.87435   0.92221   0.00000  Uiso   1.00
C1118  C     0.31685   0.76922   0.58508   0.00000  Uiso   1.00
C1119  C     0.06910   0.80687   0.91748   0.00000  Uiso   1.00
C1120  C     0.24782   0.83488   0.58597   0.00000  Uiso   1.00
C1121  C     0.08224   0.81516   0.96919   0.00000  Uiso   1.00
C1122  C     0.31929   0.73552   0.75286   0.00000  Uiso   1.00
C1123  C     0.21045   0.80290   0.55196   0.00000  Uiso   1.00
C1124  C     0.05652   0.85598   0.99543   0.00000  Uiso   1.00
C1125  C     0.23052   0.75622   0.53092   0.00000  Uiso   1.00
C1126  C     0.12592   0.78989   0.99450   0.00000  Uiso   1.00
C1127  C     0.15447   0.81599   0.53738   0.00000  Uiso   1.00
C1128  C     0.25058   0.92007   0.57185   0.00000  Uiso   1.00
C1129  C     0.14901   0.78198   0.88021   0.00000  Uiso   1.00
C1130  C     0.11683   0.67882   0.77673   0.00000  Uiso   1.00
C1131  C     0.27521   0.68538   0.83674   0.00000  Uiso   1.00
C1132  C     0.13211   0.76619   0.66875   0.00000  Uiso   1.00
C1133  C     0.12522   0.85325   0.56413   0.00000  Uiso   1.00
C1134  C     0.20230   0.89809   0.83249   0.00000  Uiso   1.00
C1135  C     0.14347   0.74095   0.97826   0.00000  Uiso   1.00
C1136  C     0.07569   0.87162   0.54390   0.00000  Uiso   1.00
C1137  C     0.19547   0.72445   0.99611   0.00000  Uiso   1.00
C1138  C     0.02472   0.98567   0.75283   0.00000  Uiso   1.00
C1139  C     0.31521   0.68296   0.76373   0.00000  Uiso   1.00
C1140  C     0.02121   0.83583   0.84119   0.00000  Uiso   1.00
H1141  H     0.05546   0.90143   0.56488   0.00000  Uiso   1.00
H1142  H     0.30461   0.89819   0.90460   0.00000  Uiso   1.00
H1143  H     0.32745   0.91362   0.99227   0.00000  Uiso   1.00
H1144  H     0.30001   0.70522   0.53069   0.00000  Uiso   1.00
H1145  H     0.13891   0.86813   0.60119   0.00000  Uiso   1.00
H1146  H     0.11746   0.71519   0.95152   0.00000  Uiso   1.00
H1147  H     0.15727   0.69468   0.76399   0.00000  Uiso   1.00
H1148  H     0.12551   0.97558   0.79330   0.00000  Uiso   1.00
H1149  H     0.10328   0.70722   0.80530   0.00000  Uiso   1.00
H1150  H     0.28006   0.72841   0.84124   0.00000  Uiso   1.00
H1151  H     0.31215   0.66880   0.85613   0.00000  Uiso   1.00
H1152  H     0.20892   0.68741   0.98169   0.00000  Uiso   1.00
H1153  H     0.23648   0.67408   0.85487   0.00000  Uiso   1.00
H1154  H     0.12341   0.80080   0.64903   0.00000  Uiso   1.00
H1155  H     0.09221   0.74535   0.67689   0.00000  Uiso   1.00
H1156  H     0.15398   0.73968   0.64368   0.00000  Uiso   1.00
H1157  H     0.24253   0.91714   0.82354   0.00000  Uiso   1.00
H1158  H     0.21139   0.86349   0.85184   0.00000  Uiso   1.00
H1159  H     0.18188   0.92500   0.85824   0.00000  Uiso   1.00
H1160  H     0.23376   0.90854   0.53321   0.00000  Uiso   1.00
H1161  H     0.29758   0.92691   0.57449   0.00000  Uiso   1.00
H1162  H     0.23265   0.95738   0.58304   0.00000  Uiso   1.00
H1163  H     0.16978   0.81436   0.90574   0.00000  Uiso   1.00
H1164  H     0.17469   0.74791   0.88408   0.00000  Uiso   1.00
H1165  H     0.15099   0.79128   0.84171   0.00000  Uiso   1.00
H1166  H     0.02150   0.75336   0.60080   0.00000  Uiso   1.00
N1167  N     0.14695   0.81883   0.73740   0.00000  Uiso   1.00
N1168  N     0.18638   0.84784   0.76261   0.00000  Uiso   1.00
O1169  O     0.29719   0.91298   0.75310   0.00000  Uiso   1.00
O1170  O     0.09196   0.76793   0.88889   0.00000  Uiso   1.00
O1171  O     0.07577   0.67061   0.73621   0.00000  Uiso   1.00
O1172  O     0.26820   0.99901   0.78684   0.00000  Uiso   1.00
O1173  O     0.16823   0.77919   0.71140   0.00000  Uiso   1.00
O1174  O     0.16502   0.88597   0.79043   0.00000  Uiso   1.00
O1175  O     0.03614   0.75369   0.74691   0.00000  Uiso   1.00
O1176  O     0.05822   0.90368   0.74502   0.00000  Uiso   1.00
O1177  O     0.27512   0.76298   0.75499   0.00000  Uiso   1.00
O1178  O     0.30328   0.84063   0.82247   0.00000  Uiso   1.00
O1179  O     0.03005   0.82603   0.67753   0.00000  Uiso   1.00
O1180  O     0.06431   0.83134   0.81439   0.00000  Uiso   1.00
O1181  O     0.26902   0.83533   0.68561   0.00000  Uiso   1.00
O1182  O     0.23435   0.88350   0.60431   0.00000  Uiso   1.00
Zn1183 Zn    0.27033   0.83954   0.75540   0.00000  Uiso   1.00
Zn1184 Zn    0.06300   0.82713   0.74461   0.00000  Uiso   1.00
C1185  C     0.34866   0.93140   0.75153   0.00000  Uiso   1.00
C1186  C     0.64488   0.82892   0.65877   0.00000  Uiso   1.00
C1187  C     0.36377   0.83833   0.89450   0.00000  Uiso   1.00
C1188  C     0.62987   0.81438   0.60684   0.00000  Uiso   1.00
C1189  C     0.34763   0.88300   0.97232   0.00000  Uiso   1.00
C1190  C     0.61792   0.74095   0.54627   0.00000  Uiso   1.00
C1191  C     0.33484   0.87435   0.92221   0.00000  Uiso   1.00
C1192  C     0.65018   0.76922   0.58508   0.00000  Uiso   1.00
C1193  C     0.40243   0.80687   0.91748   0.00000  Uiso   1.00
C1194  C     0.58116   0.83488   0.58597   0.00000  Uiso   1.00
C1195  C     0.41557   0.81516   0.96919   0.00000  Uiso   1.00
C1196  C     0.65263   0.73552   0.75286   0.00000  Uiso   1.00
C1197  C     0.54378   0.80290   0.55196   0.00000  Uiso   1.00
C1198  C     0.38986   0.85598   0.99543   0.00000  Uiso   1.00
C1199  C     0.56385   0.75622   0.53092   0.00000  Uiso   1.00
C1200  C     0.45925   0.78989   0.99450   0.00000  Uiso   1.00
C1201  C     0.48780   0.81599   0.53738   0.00000  Uiso   1.00
C1202  C     0.58391   0.92007   0.57185   0.00000  Uiso   1.00
C1203  C     0.48234   0.78198   0.88021   0.00000  Uiso   1.00
C1204  C     0.45016   0.67882   0.77673   0.00000  Uiso   1.00
C1205  C     0.60854   0.68538   0.83674   0.00000  Uiso   1.00
C1206  C     0.46545   0.76619   0.66875   0.00000  Uiso   1.00
C1207  C     0.45855   0.85325   0.56413   0.00000  Uiso   1.00
C1208  C     0.53563   0.89809   0.83249   0.00000  Uiso   1.00
C1209  C     0.47680   0.74095   0.97826   0.00000  Uiso   1.00
C1210  C     0.40903   0.87162   0.54390   0.00000  Uiso   1.00
C1211  C     0.52880   0.72445   0.99611   0.00000  Uiso   1.00
C1212  C     0.35806   0.98567   0.75283   0.00000  Uiso   1.00
C1213  C     0.64854   0.68296   0.76373   0.00000  Uiso   1.00
C1214  C     0.35455   0.83583   0.84119   0.00000  Uiso   1.00
H1215  H     0.38879   0.90143   0.56488   0.00000  Uiso   1.00
H1216  H     0.63794   0.89819   0.90460   0.00000  Uiso   1.00
H1217  H     0.66078   0.91362   0.99227   0.00000  Uiso   1.00
H1218  H     0.63334   0.70522   0.53069   0.00000  Uiso   1.00
H1219  H     0.47224   0.86813   0.60119   0.00000  Uiso   1.00
H1220  H     0.45079   0.71519   0.95152   0.00000  Uiso   1.00
H1221  H     0.49061   0.69468   0.76399   0.00000  Uiso   1.00
H1222  H     0.45884   0.97558   0.79330   0.00000  Uiso   1.00
H1223  H     0.43661   0.70722   0.80530   0.00000  Uiso   1.00
H1224  H     0.61339   0.72841   0.84124   0.00000  Uiso   1.00
H1225  H     0.64548   0.66880   0.85613   0.00000  Uiso   1.00
H1226  H     0.54225   0.68741   0.98169   0.00000  Uiso   1.00
H1227  H     0.56981   0.67408   0.85487   0.00000  Uiso   1.00
H1228  H     0.45674   0.80080   0.64903   0.00000  Uiso   1.00
H1229  H     0.42554   0.74535   0.67689   0.00000  Uiso   1.00
H1230  H     0.48731   0.73968   0.64368   0.00000  Uiso   1.00
H1231  H     0.57586   0.91714   0.82354   0.00000  Uiso   1.00
H1232  H     0.54473   0.86349   0.85184   0.00000  Uiso   1.00
H1233  H     0.51521   0.92500   0.85824   0.00000  Uiso   1.00
H1234  H     0.56709   0.90854   0.53321   0.00000  Uiso   1.00
H1235  H     0.63091   0.92691   0.57449   0.00000  Uiso   1.00
H1236  H     0.56599   0.95738   0.58304   0.00000  Uiso   1.00
H1237  H     0.50311   0.81436   0.90574   0.00000  Uiso   1.00
H1238  H     0.50803   0.74791   0.88408   0.00000  Uiso   1.00
H1239  H     0.48433   0.79128   0.84171   0.00000  Uiso   1.00
H1240  H     0.35483   0.75336   0.60080   0.00000  Uiso   1.00
N1241  N     0.48029   0.81883   0.73740   0.00000  Uiso   1.00
N1242  N     0.51971   0.84784   0.76261   0.00000  Uiso   1.00
O1243  O     0.63052   0.91298   0.75310   0.00000  Uiso   1.00
O1244  O     0.42530   0.76793   0.88889   0.00000  Uiso   1.00
O1245  O     0.40910   0.67061   0.73621   0.00000  Uiso   1.00
O1246  O     0.60153   0.99901   0.78684   0.00000  Uiso   1.00
O1247  O     0.50156   0.77919   0.71140   0.00000  Uiso   1.00
O1248  O     0.49836   0.88597   0.79043   0.00000  Uiso   1.00
O1249  O     0.36948   0.75369   0.74691   0.00000  Uiso   1.00
O1250  O     0.39155   0.90368   0.74502   0.00000  Uiso   1.00
O1251  O     0.60845   0.76298   0.75499   0.00000  Uiso   1.00
O1252  O     0.63662   0.84063   0.82247   0.00000  Uiso   1.00
O1253  O     0.36338   0.82603   0.67753   0.00000  Uiso   1.00
O1254  O     0.39764   0.83134   0.81439   0.00000  Uiso   1.00
O1255  O     0.60236   0.83533   0.68561   0.00000  Uiso   1.00
O1256  O     0.56769   0.88350   0.60431   0.00000  Uiso   1.00
Zn1257 Zn    0.60366   0.83954   0.75540   0.00000  Uiso   1.00
Zn1258 Zn    0.39634   0.82713   0.74461   0.00000  Uiso   1.00
C1259  C     0.68199   0.93140   0.75153   0.00000  Uiso   1.00
C1260  C     0.97821   0.82892   0.65877   0.00000  Uiso   1.00
C1261  C     0.69710   0.83833   0.89450   0.00000  Uiso   1.00
C1262  C     0.96320   0.81438   0.60684   0.00000  Uiso   1.00
C1263  C     0.68096   0.88300   0.97232   0.00000  Uiso   1.00
C1264  C     0.95125   0.74095   0.54627   0.00000  Uiso   1.00
C1265  C     0.66818   0.87435   0.92221   0.00000  Uiso   1.00
C1266  C     0.98352   0.76922   0.58508   0.00000  Uiso   1.00
C1267  C     0.73577   0.80687   0.91748   0.00000  Uiso   1.00
C1268  C     0.91449   0.83488   0.58597   0.00000  Uiso   1.00
C1269  C     0.74891   0.81516   0.96919   0.00000  Uiso   1.00
C1270  C     0.98596   0.73552   0.75286   0.00000  Uiso   1.00
C1271  C     0.87712   0.80290   0.55196   0.00000  Uiso   1.00
C1272  C     0.72319   0.85598   0.99543   0.00000  Uiso   1.00
C1273  C     0.89719   0.75622   0.53092   0.00000  Uiso   1.00
C1274  C     0.79259   0.78989   0.99450   0.00000  Uiso   1.00
C1275  C     0.82114   0.81599   0.53738   0.00000  Uiso   1.00
C1276  C     0.91725   0.92007   0.57185   0.00000  Uiso   1.00
C1277  C     0.81567   0.78198   0.88021   0.00000  Uiso   1.00
C1278  C     0.78349   0.67882   0.77673   0.00000  Uiso   1.00
C1279  C     0.94187   0.68538   0.83674   0.00000  Uiso   1.00
C1280  C     0.79878   0.76619   0.66875   0.00000  Uiso   1.00
C1281  C     0.79188   0.85325   0.56413   0.00000  Uiso   1.00
C1282  C     0.86896   0.89809   0.83249   0.00000  Uiso   1.00
C1283  C     0.81014   0.74095   0.97826   0.00000  Uiso   1.00
C1284  C     0.74236   0.87162   0.54390   0.00000  Uiso   1.00
C1285  C     0.86214   0.72445   0.99611   0.00000  Uiso   1.00
C1286  C     0.69139   0.98567   0.75283   0.00000  Uiso   1.00
C1287  C     0.98187   0.68296   0.76373   0.00000  Uiso   1.00
C1288  C     0.68788   0.83583   0.84119   0.00000  Uiso   1.00
H1289  H     0.72212   0.90143   0.56488   0.00000  Uiso   1.00
H1290  H     0.97127   0.89819   0.90460   0.00000  Uiso   1.00
H1291  H     0.99412   0.91362   0.99227   0.00000  Uiso   1.00
H1292  H     0.96668   0.70522   0.53069   0.00000  Uiso   1.00
H1293  H     0.80558   0.86813   0.60119   0.00000  Uiso   1.00
H1294  H     0.78413   0.71519   0.95152   0.00000  Uiso   1.00
H1295  H     0.82394   0.69468   0.76399   0.00000  Uiso   1.00
H1296  H     0.79217   0.97558   0.79330   0.00000  Uiso   1.00
H1297  H     0.76995   0.70722   0.80530   0.00000  Uiso   1.00
H1298  H     0.94673   0.72841   0.84124   0.00000  Uiso   1.00
H1299  H     0.97882   0.66880   0.85613   0.00000  Uiso   1.00
H1300  H     0.87559   0.68741   0.98169   0.00000  Uiso   1.00
H1301  H     0.90315   0.67408   0.85487   0.00000  Uiso   1.00
H1302  H     0.79007   0.80080   0.64903   0.00000  Uiso   1.00
H1303  H     0.75888   0.74535   0.67689   0.00000  Uiso   1.00
H1304  H     0.82065   0.73968   0.64368   0.00000  Uiso   1.00
H1305  H     0.90920   0.91714   0.82354   0.00000  Uiso   1.00
H1306  H     0.87806   0.86349   0.85184   0.00000  Uiso   1.00
H1307  H     0.84855   0.92500   0.85824   0.00000  Uiso   1.00
H1308  H     0.90042   0.90854   0.53321   0.00000  Uiso   1.00
H1309  H     0.96424   0.92691   0.57449   0.00000  Uiso   1.00
H1310  H     0.89932   0.95738   0.58304   0.00000  Uiso   1.00
H1311  H     0.83644   0.81436   0.90574   0.00000  Uiso   1.00
H1312  H     0.84136   0.74791   0.88408   0.00000  Uiso   1.00
H1313  H     0.81766   0.79128   0.84171   0.00000  Uiso   1.00
H1314  H     0.68817   0.75336   0.60080   0.00000  Uiso   1.00
N1315  N     0.81362   0.81883   0.73740   0.00000  Uiso   1.00
N1316  N     0.85305   0.84784   0.76261   0.00000  Uiso   1.00
O1317  O     0.96386   0.91298   0.75310   0.00000  Uiso   1.00
O1318  O     0.75863   0.76793   0.88889   0.00000  Uiso   1.00
O1319  O     0.74243   0.67061   0.73621   0.00000  Uiso   1.00
O1320  O     0.93486   0.99901   0.78684   0.00000  Uiso   1.00
O1321  O     0.83490   0.77919   0.71140   0.00000  Uiso   1.00
O1322  O     0.83169   0.88597   0.79043   0.00000  Uiso   1.00
O1323  O     0.70281   0.75369   0.74691   0.00000  Uiso   1.00
O1324  O     0.72488   0.90368   0.74502   0.00000  Uiso   1.00
O1325  O     0.94178   0.76298   0.75499   0.00000  Uiso   1.00
O1326  O     0.96995   0.84063   0.82247   0.00000  Uiso   1.00
O1327  O     0.69672   0.82603   0.67753   0.00000  Uiso   1.00
O1328  O     0.73098   0.83134   0.81439   0.00000  Uiso   1.00
O1329  O     0.93569   0.83533   0.68561   0.00000  Uiso   1.00
O1330  O     0.90102   0.88350   0.60431   0.00000  Uiso   1.00
Zn1331 Zn    0.93700   0.83954   0.75540   0.00000  Uiso   1.00
Zn1332 Zn    0.72967   0.82713   0.74461   0.00000  Uiso   1.00
loop_
_geom_bond_atom_site_label_1
_geom_bond_atom_site_label_2
_geom_bond_distance
_geom_bond_site_symmetry_2
_ccdc_geom_bond_type
C1     C28     1.411   .     S
C1     O66     1.291   .     A
C1     O207    1.283   1_455 S
C2     C4      1.455   .     S
C2     O71     1.298   .     A
C2     O143    1.299   .     S
C3     C9      1.407   .     A
C3     C30     1.457   .     S
C3     C7      1.398   .     A
C4     C8      1.399   .     A
C4     C10     1.398   .     A
C5     C14     1.395   .     A
C5     C7      1.382   .     A
C5     H181    1.082   1_455 S
C6     C15     1.402   .     A
C6     H34     1.084   .     S
C6     C8      1.392   .     A
C7     H180    1.083   1_455 S
C8     H130    1.083   .     S
C9     O60     1.388   .     S
C9     C11     1.425   .     A
C10    O72     1.384   .     S
C10    C13     1.415   .     A
C11    C16     1.421   .     A
C11    C14     1.424   .     A
C12    C29     1.419   .     S
C12    O67     1.299   .     A
C12    O139    1.275   .     S
C13    C17     1.420   .     A
C13    C15     1.422   .     A
C14    C692    1.392   .     S
C15    C693    1.397   1_554 S
C16    C25     1.408   .     A
C16    C683    1.412   .     S
C17    C23     1.411   .     A
C17    C682    1.412   1_554 S
C18    H52     1.109   .     S
C18    H51     1.108   .     S
C18    O72     1.408   .     S
C18    H50     1.114   .     S
C19    O60     1.416   .     S
C19    H53     1.115   .     S
C19    H54     1.109   .     S
C19    H55     1.105   .     S
C20    H37     1.108   .     S
C20    O61     1.412   .     S
C20    H39     1.110   .     S
C20    H482    1.108   1_545 S
C21    H43     1.108   .     S
C21    H40     1.112   .     S
C21    H41     1.113   .     S
C21    O506    1.415   1_545 S
C22    H44     1.107   .     S
C22    H45     1.104   .     S
C22    H46     1.109   .     S
C22    O63     1.400   .     S
C23    C26     1.382   .     A
C23    H35     1.076   .     S
C24    O64     1.400   .     S
C24    H49     1.109   .     S
C24    H47     1.098   .     S
C24    H48     1.103   .     S
C25    C27     1.390   .     A
C25    H36     1.080   .     S
C26    H31     1.082   .     S
C26    C680    1.392   1_554 S
C27    H42     1.084   .     S
C27    C681    1.397   .     S
C28    C399    1.358   1_455 S
C28    O283    1.390   .     S
C29    C546    1.358   1_545 S
C29    O506    1.387   1_545 S
C30    O70     1.303   .     A
C30    O216    1.295   1_455 S
H32    C81     1.083   .     S
H33    C79     1.082   .     S
H38    C242    1.108   .     S
H56    C156    1.083   1_455 S
N57    Zn74    2.027   .     S
N57    N58     1.284   .     D
N57    O63     1.347   .     S
N58    O64     1.346   .     S
N58    Zn73    2.027   .     S
O59    Zn73    1.981   .     S
O59    C75     1.283   .     S
O61    C472    1.390   1_545 S
O62    C243    1.415   .     S
O62    C251    1.387   .     S
O65    Zn74    1.981   .     S
O65    C160    1.275   1_455 S
O66    Zn74    1.997   .     S
O67    Zn73    1.997   .     S
O68    Zn73    1.939   .     S
O68    C104    1.295   .     S
O69    Zn74    1.939   .     S
O69    C150    1.299   1_455 S
O70    Zn74    1.905   .     S
O71    Zn73    1.905   .     S
C75    C102    1.411   .     S
C75    O140    1.291   .     A
C76    C78     1.455   .     S
C76    O145    1.298   .     A
C76    O217    1.299   .     S
C77    C83     1.407   .     A
C77    C104    1.457   .     S
C77    C81     1.398   .     A
C78    C82     1.399   .     A
C78    C84     1.398   .     A
C79    C88     1.395   .     A
C79    C81     1.382   .     A
C80    C89     1.402   .     A
C80    H108    1.084   .     S
C80    C82     1.392   .     A
C82    H204    1.083   .     S
C83    O134    1.388   .     S
C83    C85     1.425   .     A
C84    O146    1.384   .     S
C84    C87     1.415   .     A
C85    C90     1.421   .     A
C85    C88     1.424   .     A
C86    C103    1.419   .     S
C86    O141    1.299   .     A
C86    O213    1.275   .     S
C87    C91     1.420   .     A
C87    C89     1.422   .     A
C88    C766    1.392   .     S
C89    C767    1.397   1_554 S
C90    C99     1.408   .     A
C90    C757    1.412   .     S
C91    C97     1.411   .     A
C91    C756    1.412   1_554 S
C92    H126    1.109   .     S
C92    H125    1.108   .     S
C92    O146    1.408   .     S
C92    H124    1.114   .     S
C93    O134    1.416   .     S
C93    H127    1.115   .     S
C93    H128    1.109   .     S
C93    H129    1.105   .     S
C94    H111    1.108   .     S
C94    O135    1.412   .     S
C94    H113    1.110   .     S
C94    H556    1.108   1_545 S
C95    H117    1.108   .     S
C95    H114    1.112   .     S
C95    H115    1.113   .     S
C95    O580    1.415   1_545 S
C96    H118    1.107   .     S
C96    H119    1.104   .     S
C96    H120    1.109   .     S
C96    O137    1.400   .     S
C97    C100    1.382   .     A
C97    H109    1.076   .     S
C98    O138    1.400   .     S
C98    H123    1.109   .     S
C98    H121    1.098   .     S
C98    H122    1.103   .     S
C99    C101    1.390   .     A
C99    H110    1.080   .     S
C100   H105    1.082   .     S
C100   C754    1.392   1_554 S
C101   H116    1.084   .     S
C101   C755    1.397   .     S
C102   C251    1.358   .     S
C102   O357    1.390   .     S
C103   C620    1.358   1_545 S
C103   O580    1.387   1_545 S
C104   O144    1.303   .     A
H106   C155    1.083   .     S
H107   C153    1.082   .     S
H112   C316    1.108   .     S
N131   Zn148   2.027   .     S
N131   N132    1.284   .     D
N131   O137    1.347   .     S
N132   O138    1.346   .     S
N132   Zn147   2.027   .     S
O133   Zn147   1.981   .     S
O133   C149    1.283   .     S
O135   C546    1.390   1_545 S
O136   C317    1.415   .     S
O136   C325    1.387   .     S
O139   Zn148   1.981   .     S
O140   Zn148   1.997   .     S
O141   Zn147   1.997   .     S
O142   Zn147   1.939   .     S
O142   C178    1.295   .     S
O143   Zn148   1.939   .     S
O144   Zn148   1.905   .     S
O145   Zn147   1.905   .     S
C149   C176    1.411   .     S
C149   O214    1.291   .     A
C150   C152    1.455   .     S
C150   O219    1.298   .     A
C150   O69     1.299   1_655 S
C151   C157    1.407   .     A
C151   C178    1.457   .     S
C151   C155    1.398   .     A
C152   C156    1.399   .     A
C152   C158    1.398   .     A
C153   C162    1.395   .     A
C153   C155    1.382   .     A
C154   C163    1.402   .     A
C154   H182    1.084   .     S
C154   C156    1.392   .     A
C156   H56     1.083   1_655 S
C157   O208    1.388   .     S
C157   C159    1.425   .     A
C158   O220    1.384   .     S
C158   C161    1.415   .     A
C159   C164    1.421   .     A
C159   C162    1.424   .     A
C160   C177    1.419   .     S
C160   O215    1.299   .     A
C160   O65     1.275   1_655 S
C161   C165    1.420   .     A
C161   C163    1.422   .     A
C162   C840    1.392   .     S
C163   C841    1.397   1_554 S
C164   C173    1.408   .     A
C164   C831    1.412   .     S
C165   C171    1.411   .     A
C165   C830    1.412   1_554 S
C166   H200    1.109   .     S
C166   H199    1.108   .     S
C166   O220    1.408   .     S
C166   H198    1.114   .     S
C167   O208    1.416   .     S
C167   H201    1.115   .     S
C167   H202    1.109   .     S
C167   H203    1.105   .     S
C168   H185    1.108   .     S
C168   O209    1.412   .     S
C168   H187    1.110   .     S
C168   H630    1.108   1_545 S
C169   H191    1.108   .     S
C169   H188    1.112   .     S
C169   H189    1.113   .     S
C169   O654    1.415   1_545 S
C170   H192    1.107   .     S
C170   H193    1.104   .     S
C170   H194    1.109   .     S
C170   O211    1.400   .     S
C171   C174    1.382   .     A
C171   H183    1.076   .     S
C172   O212    1.400   .     S
C172   H197    1.109   .     S
C172   H195    1.098   .     S
C172   H196    1.103   .     S
C173   C175    1.390   .     A
C173   H184    1.080   .     S
C174   H179    1.082   .     S
C174   C828    1.392   1_554 S
C175   H190    1.084   .     S
C175   C829    1.397   .     S
C176   C325    1.358   .     S
C176   O431    1.390   .     S
C177   C472    1.358   1_645 S
C177   O654    1.387   1_545 S
C178   O218    1.303   .     A
H180   C7      1.083   1_655 S
H181   C5      1.082   1_655 S
H186   C390    1.108   .     S
N205   Zn222   2.027   .     S
N205   N206    1.284   .     D
N205   O211    1.347   .     S
N206   O212    1.346   .     S
N206   Zn221   2.027   .     S
O207   Zn221   1.981   .     S
O207   C1      1.283   1_655 S
O209   C620    1.390   1_545 S
O210   C391    1.415   .     S
O210   C399    1.387   .     S
O213   Zn222   1.981   .     S
O214   Zn222   1.997   .     S
O215   Zn221   1.997   .     S
O216   Zn221   1.939   .     S
O216   C30     1.295   1_655 S
O217   Zn222   1.939   .     S
O218   Zn222   1.905   .     S
O219   Zn221   1.905   .     S
C223   C250    1.411   .     S
C223   O288    1.291   .     A
C223   O429    1.283   1_455 S
C224   C226    1.455   .     S
C224   O293    1.298   .     A
C224   O365    1.299   .     S
C225   C231    1.407   .     A
C225   C252    1.457   .     S
C225   C229    1.398   .     A
C226   C230    1.399   .     A
C226   C232    1.398   .     A
C227   C236    1.395   .     A
C227   C229    1.382   .     A
C227   H403    1.082   1_455 S
C228   C237    1.402   .     A
C228   H256    1.084   .     S
C228   C230    1.392   .     A
C229   H402    1.083   1_455 S
C230   H352    1.083   .     S
C231   O282    1.388   .     S
C231   C233    1.425   .     A
C232   O294    1.384   .     S
C232   C235    1.415   .     A
C233   C238    1.421   .     A
C233   C236    1.424   .     A
C234   C251    1.419   .     S
C234   O289    1.299   .     A
C234   O361    1.275   .     S
C235   C239    1.420   .     A
C235   C237    1.422   .     A
C236   C914    1.392   .     S
C237   C915    1.397   1_554 S
C238   C247    1.408   .     A
C238   C905    1.412   .     S
C239   C245    1.411   .     A
C239   C904    1.412   1_554 S
C240   H274    1.109   .     S
C240   H273    1.108   .     S
C240   O294    1.408   .     S
C240   H272    1.114   .     S
C241   O282    1.416   .     S
C241   H275    1.115   .     S
C241   H276    1.109   .     S
C241   H277    1.105   .     S
C242   H259    1.108   .     S
C242   O283    1.412   .     S
C242   H261    1.110   .     S
C243   H265    1.108   .     S
C243   H262    1.112   .     S
C243   H263    1.113   .     S
C244   H266    1.107   .     S
C244   H267    1.104   .     S
C244   H268    1.109   .     S
C244   O285    1.400   .     S
C245   C248    1.382   .     A
C245   H257    1.076   .     S
C246   O286    1.400   .     S
C246   H271    1.109   .     S
C246   H269    1.098   .     S
C246   H270    1.103   .     S
C247   C249    1.390   .     A
C247   H258    1.080   .     S
C248   H253    1.082   .     S
C248   C902    1.392   1_554 S
C249   H264    1.084   .     S
C249   C903    1.397   .     S
C250   C621    1.358   1_455 S
C250   O505    1.390   .     S
C252   O292    1.303   .     A
C252   O438    1.295   1_455 S
H254   C303    1.083   .     S
H255   C301    1.082   .     S
H260   C464    1.108   .     S
H278   C378    1.083   1_455 S
N279   Zn296   2.027   .     S
N279   N280    1.284   .     D
N279   O285    1.347   .     S
N280   O286    1.346   .     S
N280   Zn295   2.027   .     S
O281   Zn295   1.981   .     S
O281   C297    1.283   .     S
O284   C465    1.415   .     S
O284   C473    1.387   .     S
O287   Zn296   1.981   .     S
O287   C382    1.275   1_455 S
O288   Zn296   1.997   .     S
O289   Zn295   1.997   .     S
O290   Zn295   1.939   .     S
O290   C326    1.295   .     S
O291   Zn296   1.939   .     S
O291   C372    1.299   1_455 S
O292   Zn296   1.905   .     S
O293   Zn295   1.905   .     S
C297   C324    1.411   .     S
C297   O362    1.291   .     A
C298   C300    1.455   .     S
C298   O367    1.298   .     A
C298   O439    1.299   .     S
C299   C305    1.407   .     A
C299   C326    1.457   .     S
C299   C303    1.398   .     A
C300   C304    1.399   .     A
C300   C306    1.398   .     A
C301   C310    1.395   .     A
C301   C303    1.382   .     A
C302   C311    1.402   .     A
C302   H330    1.084   .     S
C302   C304    1.392   .     A
C304   H426    1.083   .     S
C305   O356    1.388   .     S
C305   C307    1.425   .     A
C306   O368    1.384   .     S
C306   C309    1.415   .     A
C307   C312    1.421   .     A
C307   C310    1.424   .     A
C308   C325    1.419   .     S
C308   O363    1.299   .     A
C308   O435    1.275   .     S
C309   C313    1.420   .     A
C309   C311    1.422   .     A
C310   C988    1.392   .     S
C311   C989    1.397   1_554 S
C312   C321    1.408   .     A
C312   C979    1.412   .     S
C313   C319    1.411   .     A
C313   C978    1.412   1_554 S
C314   H348    1.109   .     S
C314   H347    1.108   .     S
C314   O368    1.408   .     S
C314   H346    1.114   .     S
C315   O356    1.416   .     S
C315   H349    1.115   .     S
C315   H350    1.109   .     S
C315   H351    1.105   .     S
C316   H333    1.108   .     S
C316   O357    1.412   .     S
C316   H335    1.110   .     S
C317   H339    1.108   .     S
C317   H336    1.112   .     S
C317   H337    1.113   .     S
C318   H340    1.107   .     S
C318   H341    1.104   .     S
C318   H342    1.109   .     S
C318   O359    1.400   .     S
C319   C322    1.382   .     A
C319   H331    1.076   .     S
C320   O360    1.400   .     S
C320   H345    1.109   .     S
C320   H343    1.098   .     S
C320   H344    1.103   .     S
C321   C323    1.390   .     A
C321   H332    1.080   .     S
C322   H327    1.082   .     S
C322   C976    1.392   1_554 S
C323   H338    1.084   .     S
C323   C977    1.397   .     S
C324   C473    1.358   .     S
C324   O579    1.390   .     S
C326   O366    1.303   .     A
H328   C377    1.083   .     S
H329   C375    1.082   .     S
H334   C538    1.108   .     S
N353   Zn370   2.027   .     S
N353   N354    1.284   .     D
N353   O359    1.347   .     S
N354   O360    1.346   .     S
N354   Zn369   2.027   .     S
O355   Zn369   1.981   .     S
O355   C371    1.283   .     S
O358   C539    1.415   .     S
O358   C547    1.387   .     S
O361   Zn370   1.981   .     S
O362   Zn370   1.997   .     S
O363   Zn369   1.997   .     S
O364   Zn369   1.939   .     S
O364   C400    1.295   .     S
O365   Zn370   1.939   .     S
O366   Zn370   1.905   .     S
O367   Zn369   1.905   .     S
C371   C398    1.411   .     S
C371   O436    1.291   .     A
C372   C374    1.455   .     S
C372   O441    1.298   .     A
C372   O291    1.299   1_655 S
C373   C379    1.407   .     A
C373   C400    1.457   .     S
C373   C377    1.398   .     A
C374   C378    1.399   .     A
C374   C380    1.398   .     A
C375   C384    1.395   .     A
C375   C377    1.382   .     A
C376   C385    1.402   .     A
C376   H404    1.084   .     S
C376   C378    1.392   .     A
C378   H278    1.083   1_655 S
C379   O430    1.388   .     S
C379   C381    1.425   .     A
C380   O442    1.384   .     S
C380   C383    1.415   .     A
C381   C386    1.421   .     A
C381   C384    1.424   .     A
C382   C399    1.419   .     S
C382   O437    1.299   .     A
C382   O287    1.275   1_655 S
C383   C387    1.420   .     A
C383   C385    1.422   .     A
C384   C1062   1.392   .     S
C385   C1063   1.397   1_554 S
C386   C395    1.408   .     A
C386   C1053   1.412   .     S
C387   C393    1.411   .     A
C387   C1052   1.412   1_554 S
C388   H422    1.109   .     S
C388   H421    1.108   .     S
C388   O442    1.408   .     S
C388   H420    1.114   .     S
C389   O430    1.416   .     S
C389   H423    1.115   .     S
C389   H424    1.109   .     S
C389   H425    1.105   .     S
C390   H407    1.108   .     S
C390   O431    1.412   .     S
C390   H409    1.110   .     S
C391   H413    1.108   .     S
C391   H410    1.112   .     S
C391   H411    1.113   .     S
C392   H414    1.107   .     S
C392   H415    1.104   .     S
C392   H416    1.109   .     S
C392   O433    1.400   .     S
C393   C396    1.382   .     A
C393   H405    1.076   .     S
C394   O434    1.400   .     S
C394   H419    1.109   .     S
C394   H417    1.098   .     S
C394   H418    1.103   .     S
C395   C397    1.390   .     A
C395   H406    1.080   .     S
C396   H401    1.082   .     S
C396   C1050   1.392   1_554 S
C397   H412    1.084   .     S
C397   C1051   1.397   .     S
C398   C547    1.358   .     S
C398   O653    1.390   .     S
C399   C28     1.358   1_655 S
C400   O440    1.303   .     A
H402   C229    1.083   1_655 S
H403   C227    1.082   1_655 S
H408   C612    1.108   .     S
N427   Zn444   2.027   .     S
N427   N428    1.284   .     D
N427   O433    1.347   .     S
N428   O434    1.346   .     S
N428   Zn443   2.027   .     S
O429   Zn443   1.981   .     S
O429   C223    1.283   1_655 S
O432   C613    1.415   .     S
O432   C621    1.387   .     S
O435   Zn444   1.981   .     S
O436   Zn444   1.997   .     S
O437   Zn443   1.997   .     S
O438   Zn443   1.939   .     S
O438   C252    1.295   1_655 S
O439   Zn444   1.939   .     S
O440   Zn444   1.905   .     S
O441   Zn443   1.905   .     S
C445   C472    1.411   .     S
C445   O510    1.291   .     A
C445   O651    1.283   1_455 S
C446   C448    1.455   .     S
C446   O515    1.298   .     A
C446   O587    1.299   .     S
C447   C453    1.407   .     A
C447   C474    1.457   .     S
C447   C451    1.398   .     A
C448   C452    1.399   .     A
C448   C454    1.398   .     A
C449   C458    1.395   .     A
C449   C451    1.382   .     A
C449   H625    1.082   1_455 S
C450   C459    1.402   .     A
C450   H478    1.084   .     S
C450   C452    1.392   .     A
C451   H624    1.083   1_455 S
C452   H574    1.083   .     S
C453   O504    1.388   .     S
C453   C455    1.425   .     A
C454   O516    1.384   .     S
C454   C457    1.415   .     A
C455   C460    1.421   .     A
C455   C458    1.424   .     A
C456   C473    1.419   .     S
C456   O511    1.299   .     A
C456   O583    1.275   .     S
C457   C461    1.420   .     A
C457   C459    1.422   .     A
C458   C1136   1.392   .     S
C459   C1137   1.397   1_554 S
C460   C469    1.408   .     A
C460   C1127   1.412   .     S
C461   C467    1.411   .     A
C461   C1126   1.412   1_554 S
C462   H496    1.109   .     S
C462   H495    1.108   .     S
C462   O516    1.408   .     S
C462   H494    1.114   .     S
C463   O504    1.416   .     S
C463   H497    1.115   .     S
C463   H498    1.109   .     S
C463   H499    1.105   .     S
C464   H481    1.108   .     S
C464   O505    1.412   .     S
C464   H483    1.110   .     S
C465   H487    1.108   .     S
C465   H484    1.112   .     S
C465   H485    1.113   .     S
C466   H488    1.107   .     S
C466   H489    1.104   .     S
C466   H490    1.109   .     S
C466   O507    1.400   .     S
C467   C470    1.382   .     A
C467   H479    1.076   .     S
C468   O508    1.400   .     S
C468   H493    1.109   .     S
C468   H491    1.098   .     S
C468   H492    1.103   .     S
C469   C471    1.390   .     A
C469   H480    1.080   .     S
C470   H475    1.082   .     S
C470   C1124   1.392   1_554 S
C471   H486    1.084   .     S
C471   C1125   1.397   .     S
C472   C177    1.358   1_465 S
C472   O61     1.390   1_565 S
C474   O514    1.303   .     A
C474   O660    1.295   1_455 S
H476   C525    1.083   .     S
H477   C523    1.082   .     S
H482   C20     1.108   1_565 S
H500   C600    1.083   1_455 S
N501   Zn518   2.027   .     S
N501   N502    1.284   .     D
N501   O507    1.347   .     S
N502   O508    1.346   .     S
N502   Zn517   2.027   .     S
O503   Zn517   1.981   .     S
O503   C519    1.283   .     S
O506   C21     1.415   1_565 S
O506   C29     1.387   1_565 S
O509   Zn518   1.981   .     S
O509   C604    1.275   1_455 S
O510   Zn518   1.997   .     S
O511   Zn517   1.997   .     S
O512   Zn517   1.939   .     S
O512   C548    1.295   .     S
O513   Zn518   1.939   .     S
O513   C594    1.299   1_455 S
O514   Zn518   1.905   .     S
O515   Zn517   1.905   .     S
C519   C546    1.411   .     S
C519   O584    1.291   .     A
C520   C522    1.455   .     S
C520   O589    1.298   .     A
C520   O661    1.299   .     S
C521   C527    1.407   .     A
C521   C548    1.457   .     S
C521   C525    1.398   .     A
C522   C526    1.399   .     A
C522   C528    1.398   .     A
C523   C532    1.395   .     A
C523   C525    1.382   .     A
C524   C533    1.402   .     A
C524   H552    1.084   .     S
C524   C526    1.392   .     A
C526   H648    1.083   .     S
C527   O578    1.388   .     S
C527   C529    1.425   .     A
C528   O590    1.384   .     S
C528   C531    1.415   .     A
C529   C534    1.421   .     A
C529   C532    1.424   .     A
C530   C547    1.419   .     S
C530   O585    1.299   .     A
C530   O657    1.275   .     S
C531   C535    1.420   .     A
C531   C533    1.422   .     A
C532   C1210   1.392   .     S
C533   C1211   1.397   1_554 S
C534   C543    1.408   .     A
C534   C1201   1.412   .     S
C535   C541    1.411   .     A
C535   C1200   1.412   1_554 S
C536   H570    1.109   .     S
C536   H569    1.108   .     S
C536   O590    1.408   .     S
C536   H568    1.114   .     S
C537   O578    1.416   .     S
C537   H571    1.115   .     S
C537   H572    1.109   .     S
C537   H573    1.105   .     S
C538   H555    1.108   .     S
C538   O579    1.412   .     S
C538   H557    1.110   .     S
C539   H561    1.108   .     S
C539   H558    1.112   .     S
C539   H559    1.113   .     S
C540   H562    1.107   .     S
C540   H563    1.104   .     S
C540   H564    1.109   .     S
C540   O581    1.400   .     S
C541   C544    1.382   .     A
C541   H553    1.076   .     S
C542   O582    1.400   .     S
C542   H567    1.109   .     S
C542   H565    1.098   .     S
C542   H566    1.103   .     S
C543   C545    1.390   .     A
C543   H554    1.080   .     S
C544   H549    1.082   .     S
C544   C1198   1.392   1_554 S
C545   H560    1.084   .     S
C545   C1199   1.397   .     S
C546   C29     1.358   1_565 S
C546   O135    1.390   1_565 S
C548   O588    1.303   .     A
H550   C599    1.083   .     S
H551   C597    1.082   .     S
H556   C94     1.108   1_565 S
N575   Zn592   2.027   .     S
N575   N576    1.284   .     D
N575   O581    1.347   .     S
N576   O582    1.346   .     S
N576   Zn591   2.027   .     S
O577   Zn591   1.981   .     S
O577   C593    1.283   .     S
O580   C95     1.415   1_565 S
O580   C103    1.387   1_565 S
O583   Zn592   1.981   .     S
O584   Zn592   1.997   .     S
O585   Zn591   1.997   .     S
O586   Zn591   1.939   .     S
O586   C622    1.295   .     S
O587   Zn592   1.939   .     S
O588   Zn592   1.905   .     S
O589   Zn591   1.905   .     S
C593   C620    1.411   .     S
C593   O658    1.291   .     A
C594   C596    1.455   .     S
C594   O663    1.298   .     A
C594   O513    1.299   1_655 S
C595   C601    1.407   .     A
C595   C622    1.457   .     S
C595   C599    1.398   .     A
C596   C600    1.399   .     A
C596   C602    1.398   .     A
C597   C606    1.395   .     A
C597   C599    1.382   .     A
C598   C607    1.402   .     A
C598   H626    1.084   .     S
C598   C600    1.392   .     A
C600   H500    1.083   1_655 S
C601   O652    1.388   .     S
C601   C603    1.425   .     A
C602   O664    1.384   .     S
C602   C605    1.415   .     A
C603   C608    1.421   .     A
C603   C606    1.424   .     A
C604   C621    1.419   .     S
C604   O659    1.299   .     A
C604   O509    1.275   1_655 S
C605   C609    1.420   .     A
C605   C607    1.422   .     A
C606   C1284   1.392   .     S
C607   C1285   1.397   1_554 S
C608   C617    1.408   .     A
C608   C1275   1.412   .     S
C609   C615    1.411   .     A
C609   C1274   1.412   1_554 S
C610   H644    1.109   .     S
C610   H643    1.108   .     S
C610   O664    1.408   .     S
C610   H642    1.114   .     S
C611   O652    1.416   .     S
C611   H645    1.115   .     S
C611   H646    1.109   .     S
C611   H647    1.105   .     S
C612   H629    1.108   .     S
C612   O653    1.412   .     S
C612   H631    1.110   .     S
C613   H635    1.108   .     S
C613   H632    1.112   .     S
C613   H633    1.113   .     S
C614   H636    1.107   .     S
C614   H637    1.104   .     S
C614   H638    1.109   .     S
C614   O655    1.400   .     S
C615   C618    1.382   .     A
C615   H627    1.076   .     S
C616   O656    1.400   .     S
C616   H641    1.109   .     S
C616   H639    1.098   .     S
C616   H640    1.103   .     S
C617   C619    1.390   .     A
C617   H628    1.080   .     S
C618   H623    1.082   .     S
C618   C1272   1.392   1_554 S
C619   H634    1.084   .     S
C619   C1273   1.397   .     S
C620   C103    1.358   1_565 S
C620   O209    1.390   1_565 S
C621   C250    1.358   1_655 S
C622   O662    1.303   .     A
H624   C451    1.083   1_655 S
H625   C449    1.082   1_655 S
H630   C168    1.108   1_565 S
N649   Zn666   2.027   .     S
N649   N650    1.284   .     D
N649   O655    1.347   .     S
N650   O656    1.346   .     S
N650   Zn665   2.027   .     S
O651   Zn665   1.981   .     S
O651   C445    1.283   1_655 S
O654   C169    1.415   1_565 S
O654   C177    1.387   1_565 S
O657   Zn666   1.981   .     S
O658   Zn666   1.997   .     S
O659   Zn665   1.997   .     S
O660   Zn665   1.939   .     S
O660   C474    1.295   1_655 S
O661   Zn666   1.939   .     S
O662   Zn666   1.905   .     S
O663   Zn665   1.905   .     S
C667   C694    1.411   .     S
C667   O732    1.291   .     A
C667   O873    1.283   1_455 S
C668   C670    1.455   .     S
C668   O737    1.298   .     A
C668   O809    1.299   .     S
C669   C675    1.407   .     A
C669   C696    1.457   .     S
C669   C673    1.398   .     A
C670   C674    1.399   .     A
C670   C676    1.398   .     A
C671   C680    1.395   .     A
C671   C673    1.382   .     A
C671   H847    1.082   1_455 S
C672   C681    1.402   .     A
C672   H700    1.084   .     S
C672   C674    1.392   .     A
C673   H846    1.083   1_455 S
C674   H796    1.083   .     S
C675   O726    1.388   .     S
C675   C677    1.425   .     A
C676   O738    1.384   .     S
C676   C679    1.415   .     A
C677   C682    1.421   .     A
C677   C680    1.424   .     A
C678   C695    1.419   .     S
C678   O733    1.299   .     A
C678   O805    1.275   .     S
C679   C683    1.420   .     A
C679   C681    1.422   .     A
C680   C26     1.392   1_556 S
C682   C691    1.408   .     A
C682   C17     1.412   1_556 S
C683   C689    1.411   .     A
C684   H718    1.109   .     S
C684   H717    1.108   .     S
C684   O738    1.408   .     S
C684   H716    1.114   .     S
C685   O726    1.416   .     S
C685   H719    1.115   .     S
C685   H720    1.109   .     S
C685   H721    1.105   .     S
C686   H703    1.108   .     S
C686   O727    1.412   .     S
C686   H705    1.110   .     S
C686   H1148   1.108   1_545 S
C687   H709    1.108   .     S
C687   H706    1.112   .     S
C687   H707    1.113   .     S
C687   O1172   1.415   1_545 S
C688   H710    1.107   .     S
C688   H711    1.104   .     S
C688   H712    1.109   .     S
C688   O729    1.400   .     S
C689   C692    1.382   .     A
C689   H701    1.076   .     S
C690   O730    1.400   .     S
C690   H715    1.109   .     S
C690   H713    1.098   .     S
C690   H714    1.103   .     S
C691   C693    1.390   .     A
C691   H702    1.080   .     S
C692   H697    1.082   .     S
C693   H708    1.084   .     S
C693   C15     1.397   1_556 S
C694   C1065   1.358   1_455 S
C694   O949    1.390   .     S
C695   C1212   1.358   1_545 S
C695   O1172   1.387   1_545 S
C696   O736    1.303   .     A
C696   O882    1.295   1_455 S
H698   C747    1.083   .     S
H699   C745    1.082   .     S
H704   C908    1.108   .     S
H722   C822    1.083   1_455 S
N723   Zn740   2.027   .     S
N723   N724    1.284   .     D
N723   O729    1.347   .     S
N724   O730    1.346   .     S
N724   Zn739   2.027   .     S
O725   Zn739   1.981   .     S
O725   C741    1.283   .     S
O727   C1138   1.390   1_545 S
O728   C909    1.415   .     S
O728   C917    1.387   .     S
O731   Zn740   1.981   .     S
O731   C826    1.275   1_455 S
O732   Zn740   1.997   .     S
O733   Zn739   1.997   .     S
O734   Zn739   1.939   .     S
O734   C770    1.295   .     S
O735   Zn740   1.939   .     S
O735   C816    1.299   1_455 S
O736   Zn740   1.905   .     S
O737   Zn739   1.905   .     S
C741   C768    1.411   .     S
C741   O806    1.291   .     A
C742   C744    1.455   .     S
C742   O811    1.298   .     A
C742   O883    1.299   .     S
C743   C749    1.407   .     A
C743   C770    1.457   .     S
C743   C747    1.398   .     A
C744   C748    1.399   .     A
C744   C750    1.398   .     A
C745   C754    1.395   .     A
C745   C747    1.382   .     A
C746   C755    1.402   .     A
C746   H774    1.084   .     S
C746   C748    1.392   .     A
C748   H870    1.083   .     S
C749   O800    1.388   .     S
C749   C751    1.425   .     A
C750   O812    1.384   .     S
C750   C753    1.415   .     A
C751   C756    1.421   .     A
C751   C754    1.424   .     A
C752   C769    1.419   .     S
C752   O807    1.299   .     A
C752   O879    1.275   .     S
C753   C757    1.420   .     A
C753   C755    1.422   .     A
C754   C100    1.392   1_556 S
C756   C765    1.408   .     A
C756   C91     1.412   1_556 S
C757   C763    1.411   .     A
C758   H792    1.109   .     S
C758   H791    1.108   .     S
C758   O812    1.408   .     S
C758   H790    1.114   .     S
C759   O800    1.416   .     S
C759   H793    1.115   .     S
C759   H794    1.109   .     S
C759   H795    1.105   .     S
C760   H777    1.108   .     S
C760   O801    1.412   .     S
C760   H779    1.110   .     S
C760   H1222   1.108   1_545 S
C761   H783    1.108   .     S
C761   H780    1.112   .     S
C761   H781    1.113   .     S
C761   O1246   1.415   1_545 S
C762   H784    1.107   .     S
C762   H785    1.104   .     S
C762   H786    1.109   .     S
C762   O803    1.400   .     S
C763   C766    1.382   .     A
C763   H775    1.076   .     S
C764   O804    1.400   .     S
C764   H789    1.109   .     S
C764   H787    1.098   .     S
C764   H788    1.103   .     S
C765   C767    1.390   .     A
C765   H776    1.080   .     S
C766   H771    1.082   .     S
C767   H782    1.084   .     S
C767   C89     1.397   1_556 S
C768   C917    1.358   .     S
C768   O1023   1.390   .     S
C769   C1286   1.358   1_545 S
C769   O1246   1.387   1_545 S
C770   O810    1.303   .     A
H772   C821    1.083   .     S
H773   C819    1.082   .     S
H778   C982    1.108   .     S
N797   Zn814   2.027   .     S
N797   N798    1.284   .     D
N797   O803    1.347   .     S
N798   O804    1.346   .     S
N798   Zn813   2.027   .     S
O799   Zn813   1.981   .     S
O799   C815    1.283   .     S
O801   C1212   1.390   1_545 S
O802   C983    1.415   .     S
O802   C991    1.387   .     S
O805   Zn814   1.981   .     S
O806   Zn814   1.997   .     S
O807   Zn813   1.997   .     S
O808   Zn813   1.939   .     S
O808   C844    1.295   .     S
O809   Zn814   1.939   .     S
O810   Zn814   1.905   .     S
O811   Zn813   1.905   .     S
C815   C842    1.411   .     S
C815   O880    1.291   .     A
C816   C818    1.455   .     S
C816   O885    1.298   .     A
C816   O735    1.299   1_655 S
C817   C823    1.407   .     A
C817   C844    1.457   .     S
C817   C821    1.398   .     A
C818   C822    1.399   .     A
C818   C824    1.398   .     A
C819   C828    1.395   .     A
C819   C821    1.382   .     A
C820   C829    1.402   .     A
C820   H848    1.084   .     S
C820   C822    1.392   .     A
C822   H722    1.083   1_655 S
C823   O874    1.388   .     S
C823   C825    1.425   .     A
C824   O886    1.384   .     S
C824   C827    1.415   .     A
C825   C830    1.421   .     A
C825   C828    1.424   .     A
C826   C843    1.419   .     S
C826   O881    1.299   .     A
C826   O731    1.275   1_655 S
C827   C831    1.420   .     A
C827   C829    1.422   .     A
C828   C174    1.392   1_556 S
C830   C839    1.408   .     A
C830   C165    1.412   1_556 S
C831   C837    1.411   .     A
C832   H866    1.109   .     S
C832   H865    1.108   .     S
C832   O886    1.408   .     S
C832   H864    1.114   .     S
C833   O874    1.416   .     S
C833   H867    1.115   .     S
C833   H868    1.109   .     S
C833   H869    1.105   .     S
C834   H851    1.108   .     S
C834   O875    1.412   .     S
C834   H853    1.110   .     S
C834   H1296   1.108   1_545 S
C835   H857    1.108   .     S
C835   H854    1.112   .     S
C835   H855    1.113   .     S
C835   O1320   1.415   1_545 S
C836   H858    1.107   .     S
C836   H859    1.104   .     S
C836   H860    1.109   .     S
C836   O877    1.400   .     S
C837   C840    1.382   .     A
C837   H849    1.076   .     S
C838   O878    1.400   .     S
C838   H863    1.109   .     S
C838   H861    1.098   .     S
C838   H862    1.103   .     S
C839   C841    1.390   .     A
C839   H850    1.080   .     S
C840   H845    1.082   .     S
C841   H856    1.084   .     S
C841   C163    1.397   1_556 S
C842   C991    1.358   .     S
C842   O1097   1.390   .     S
C843   C1138   1.358   1_645 S
C843   O1320   1.387   1_545 S
C844   O884    1.303   .     A
H846   C673    1.083   1_655 S
H847   C671    1.082   1_655 S
H852   C1056   1.108   .     S
N871   Zn888   2.027   .     S
N871   N872    1.284   .     D
N871   O877    1.347   .     S
N872   O878    1.346   .     S
N872   Zn887   2.027   .     S
O873   Zn887   1.981   .     S
O873   C667    1.283   1_655 S
O875   C1286   1.390   1_545 S
O876   C1057   1.415   .     S
O876   C1065   1.387   .     S
O879   Zn888   1.981   .     S
O880   Zn888   1.997   .     S
O881   Zn887   1.997   .     S
O882   Zn887   1.939   .     S
O882   C696    1.295   1_655 S
O883   Zn888   1.939   .     S
O884   Zn888   1.905   .     S
O885   Zn887   1.905   .     S
C889   C916    1.411   .     S
C889   O954    1.291   .     A
C889   O1095   1.283   1_455 S
C890   C892    1.455   .     S
C890   O959    1.298   .     A
C890   O1031   1.299   .     S
C891   C897    1.407   .     A
C891   C918    1.457   .     S
C891   C895    1.398   .     A
C892   C896    1.399   .     A
C892   C898    1.398   .     A
C893   C902    1.395   .     A
C893   C895    1.382   .     A
C893   H1069   1.082   1_455 S
C894   C903    1.402   .     A
C894   H922    1.084   .     S
C894   C896    1.392   .     A
C895   H1068   1.083   1_455 S
C896   H1018   1.083   .     S
C897   O948    1.388   .     S
C897   C899    1.425   .     A
C898   O960    1.384   .     S
C898   C901    1.415   .     A
C899   C904    1.421   .     A
C899   C902    1.424   .     A
C900   C917    1.419   .     S
C900   O955    1.299   .     A
C900   O1027   1.275   .     S
C901   C905    1.420   .     A
C901   C903    1.422   .     A
C902   C248    1.392   1_556 S
C904   C913    1.408   .     A
C904   C239    1.412   1_556 S
C905   C911    1.411   .     A
C906   H940    1.109   .     S
C906   H939    1.108   .     S
C906   O960    1.408   .     S
C906   H938    1.114   .     S
C907   O948    1.416   .     S
C907   H941    1.115   .     S
C907   H942    1.109   .     S
C907   H943    1.105   .     S
C908   H925    1.108   .     S
C908   O949    1.412   .     S
C908   H927    1.110   .     S
C909   H931    1.108   .     S
C909   H928    1.112   .     S
C909   H929    1.113   .     S
C910   H932    1.107   .     S
C910   H933    1.104   .     S
C910   H934    1.109   .     S
C910   O951    1.400   .     S
C911   C914    1.382   .     A
C911   H923    1.076   .     S
C912   O952    1.400   .     S
C912   H937    1.109   .     S
C912   H935    1.098   .     S
C912   H936    1.103   .     S
C913   C915    1.390   .     A
C913   H924    1.080   .     S
C914   H919    1.082   .     S
C915   H930    1.084   .     S
C915   C237    1.397   1_556 S
C916   C1287   1.358   1_455 S
C916   O1171   1.390   .     S
C918   O958    1.303   .     A
C918   O1104   1.295   1_455 S
H920   C969    1.083   .     S
H921   C967    1.082   .     S
H926   C1130   1.108   .     S
H944   C1044   1.083   1_455 S
N945   Zn962   2.027   .     S
N945   N946    1.284   .     D
N945   O951    1.347   .     S
N946   O952    1.346   .     S
N946   Zn961   2.027   .     S
O947   Zn961   1.981   .     S
O947   C963    1.283   .     S
O950   C1131   1.415   .     S
O950   C1139   1.387   .     S
O953   Zn962   1.981   .     S
O953   C1048   1.275   1_455 S
O954   Zn962   1.997   .     S
O955   Zn961   1.997   .     S
O956   Zn961   1.939   .     S
O956   C992    1.295   .     S
O957   Zn962   1.939   .     S
O957   C1038   1.299   1_455 S
O958   Zn962   1.905   .     S
O959   Zn961   1.905   .     S
C963   C990    1.411   .     S
C963   O1028   1.291   .     A
C964   C966    1.455   .     S
C964   O1033   1.298   .     A
C964   O1105   1.299   .     S
C965   C971    1.407   .     A
C965   C992    1.457   .     S
C965   C969    1.398   .     A
C966   C970    1.399   .     A
C966   C972    1.398   .     A
C967   C976    1.395   .     A
C967   C969    1.382   .     A
C968   C977    1.402   .     A
C968   H996    1.084   .     S
C968   C970    1.392   .     A
C970   H1092   1.083   .     S
C971   O1022   1.388   .     S
C971   C973    1.425   .     A
C972   O1034   1.384   .     S
C972   C975    1.415   .     A
C973   C978    1.421   .     A
C973   C976    1.424   .     A
C974   C991    1.419   .     S
C974   O1029   1.299   .     A
C974   O1101   1.275   .     S
C975   C979    1.420   .     A
C975   C977    1.422   .     A
C976   C322    1.392   1_556 S
C978   C987    1.408   .     A
C978   C313    1.412   1_556 S
C979   C985    1.411   .     A
C980   H1014   1.109   .     S
C980   H1013   1.108   .     S
C980   O1034   1.408   .     S
C980   H1012   1.114   .     S
C981   O1022   1.416   .     S
C981   H1015   1.115   .     S
C981   H1016   1.109   .     S
C981   H1017   1.105   .     S
C982   H999    1.108   .     S
C982   O1023   1.412   .     S
C982   H1001   1.110   .     S
C983   H1005   1.108   .     S
C983   H1002   1.112   .     S
C983   H1003   1.113   .     S
C984   H1006   1.107   .     S
C984   H1007   1.104   .     S
C984   H1008   1.109   .     S
C984   O1025   1.400   .     S
C985   C988    1.382   .     A
C985   H997    1.076   .     S
C986   O1026   1.400   .     S
C986   H1011   1.109   .     S
C986   H1009   1.098   .     S
C986   H1010   1.103   .     S
C987   C989    1.390   .     A
C987   H998    1.080   .     S
C988   H993    1.082   .     S
C989   H1004   1.084   .     S
C989   C311    1.397   1_556 S
C990   C1139   1.358   .     S
C990   O1245   1.390   .     S
C992   O1032   1.303   .     A
H994   C1043   1.083   .     S
H995   C1041   1.082   .     S
H1000  C1204   1.108   .     S
N1019  Zn1036  2.027   .     S
N1019  N1020   1.284   .     D
N1019  O1025   1.347   .     S
N1020  O1026   1.346   .     S
N1020  Zn1035  2.027   .     S
O1021  Zn1035  1.981   .     S
O1021  C1037   1.283   .     S
O1024  C1205   1.415   .     S
O1024  C1213   1.387   .     S
O1027  Zn1036  1.981   .     S
O1028  Zn1036  1.997   .     S
O1029  Zn1035  1.997   .     S
O1030  Zn1035  1.939   .     S
O1030  C1066   1.295   .     S
O1031  Zn1036  1.939   .     S
O1032  Zn1036  1.905   .     S
O1033  Zn1035  1.905   .     S
C1037  C1064   1.411   .     S
C1037  O1102   1.291   .     A
C1038  C1040   1.455   .     S
C1038  O1107   1.298   .     A
C1038  O957    1.299   1_655 S
C1039  C1045   1.407   .     A
C1039  C1066   1.457   .     S
C1039  C1043   1.398   .     A
C1040  C1044   1.399   .     A
C1040  C1046   1.398   .     A
C1041  C1050   1.395   .     A
C1041  C1043   1.382   .     A
C1042  C1051   1.402   .     A
C1042  H1070   1.084   .     S
C1042  C1044   1.392   .     A
C1044  H944    1.083   1_655 S
C1045  O1096   1.388   .     S
C1045  C1047   1.425   .     A
C1046  O1108   1.384   .     S
C1046  C1049   1.415   .     A
C1047  C1052   1.421   .     A
C1047  C1050   1.424   .     A
C1048  C1065   1.419   .     S
C1048  O1103   1.299   .     A
C1048  O953    1.275   1_655 S
C1049  C1053   1.420   .     A
C1049  C1051   1.422   .     A
C1050  C396    1.392   1_556 S
C1052  C1061   1.408   .     A
C1052  C387    1.412   1_556 S
C1053  C1059   1.411   .     A
C1054  H1088   1.109   .     S
C1054  H1087   1.108   .     S
C1054  O1108   1.408   .     S
C1054  H1086   1.114   .     S
C1055  O1096   1.416   .     S
C1055  H1089   1.115   .     S
C1055  H1090   1.109   .     S
C1055  H1091   1.105   .     S
C1056  H1073   1.108   .     S
C1056  O1097   1.412   .     S
C1056  H1075   1.110   .     S
C1057  H1079   1.108   .     S
C1057  H1076   1.112   .     S
C1057  H1077   1.113   .     S
C1058  H1080   1.107   .     S
C1058  H1081   1.104   .     S
C1058  H1082   1.109   .     S
C1058  O1099   1.400   .     S
C1059  C1062   1.382   .     A
C1059  H1071   1.076   .     S
C1060  O1100   1.400   .     S
C1060  H1085   1.109   .     S
C1060  H1083   1.098   .     S
C1060  H1084   1.103   .     S
C1061  C1063   1.390   .     A
C1061  H1072   1.080   .     S
C1062  H1067   1.082   .     S
C1063  H1078   1.084   .     S
C1063  C385    1.397   1_556 S
C1064  C1213   1.358   .     S
C1064  O1319   1.390   .     S
C1065  C694    1.358   1_655 S
C1066  O1106   1.303   .     A
H1068  C895    1.083   1_655 S
H1069  C893    1.082   1_655 S
H1074  C1278   1.108   .     S
N1093  Zn1110  2.027   .     S
N1093  N1094   1.284   .     D
N1093  O1099   1.347   .     S
N1094  O1100   1.346   .     S
N1094  Zn1109  2.027   .     S
O1095  Zn1109  1.981   .     S
O1095  C889    1.283   1_655 S
O1098  C1279   1.415   .     S
O1098  C1287   1.387   .     S
O1101  Zn1110  1.981   .     S
O1102  Zn1110  1.997   .     S
O1103  Zn1109  1.997   .     S
O1104  Zn1109  1.939   .     S
O1104  C918    1.295   1_655 S
O1105  Zn1110  1.939   .     S
O1106  Zn1110  1.905   .     S
O1107  Zn1109  1.905   .     S
C1111  C1138   1.411   .     S
C1111  O1176   1.291   .     A
C1111  O1317   1.283   1_455 S
C1112  C1114   1.455   .     S
C1112  O1181   1.298   .     A
C1112  O1253   1.299   .     S
C1113  C1119   1.407   .     A
C1113  C1140   1.457   .     S
C1113  C1117   1.398   .     A
C1114  C1118   1.399   .     A
C1114  C1120   1.398   .     A
C1115  C1124   1.395   .     A
C1115  C1117   1.382   .     A
C1115  H1291   1.082   1_455 S
C1116  C1125   1.402   .     A
C1116  H1144   1.084   .     S
C1116  C1118   1.392   .     A
C1117  H1290   1.083   1_455 S
C1118  H1240   1.083   .     S
C1119  O1170   1.388   .     S
C1119  C1121   1.425   .     A
C1120  O1182   1.384   .     S
C1120  C1123   1.415   .     A
C1121  C1126   1.421   .     A
C1121  C1124   1.424   .     A
C1122  C1139   1.419   .     S
C1122  O1177   1.299   .     A
C1122  O1249   1.275   .     S
C1123  C1127   1.420   .     A
C1123  C1125   1.422   .     A
C1124  C470    1.392   1_556 S
C1126  C1135   1.408   .     A
C1126  C461    1.412   1_556 S
C1127  C1133   1.411   .     A
C1128  H1162   1.109   .     S
C1128  H1161   1.108   .     S
C1128  O1182   1.408   .     S
C1128  H1160   1.114   .     S
C1129  O1170   1.416   .     S
C1129  H1163   1.115   .     S
C1129  H1164   1.109   .     S
C1129  H1165   1.105   .     S
C1130  H1147   1.108   .     S
C1130  O1171   1.412   .     S
C1130  H1149   1.110   .     S
C1131  H1153   1.108   .     S
C1131  H1150   1.112   .     S
C1131  H1151   1.113   .     S
C1132  H1154   1.107   .     S
C1132  H1155   1.104   .     S
C1132  H1156   1.109   .     S
C1132  O1173   1.400   .     S
C1133  C1136   1.382   .     A
C1133  H1145   1.076   .     S
C1134  O1174   1.400   .     S
C1134  H1159   1.109   .     S
C1134  H1157   1.098   .     S
C1134  H1158   1.103   .     S
C1135  C1137   1.390   .     A
C1135  H1146   1.080   .     S
C1136  H1141   1.082   .     S
C1137  H1152   1.084   .     S
C1137  C459    1.397   1_556 S
C1138  C843    1.358   1_465 S
C1138  O727    1.390   1_565 S
C1140  O1180   1.303   .     A
C1140  O1326   1.295   1_455 S
H1142  C1191   1.083   .     S
H1143  C1189   1.082   .     S
H1148  C686    1.108   1_565 S
H1166  C1266   1.083   1_455 S
N1167  Zn1184  2.027   .     S
N1167  N1168   1.284   .     D
N1167  O1173   1.347   .     S
N1168  O1174   1.346   .     S
N1168  Zn1183  2.027   .     S
O1169  Zn1183  1.981   .     S
O1169  C1185   1.283   .     S
O1172  C687    1.415   1_565 S
O1172  C695    1.387   1_565 S
O1175  Zn1184  1.981   .     S
O1175  C1270   1.275   1_455 S
O1176  Zn1184  1.997   .     S
O1177  Zn1183  1.997   .     S
O1178  Zn1183  1.939   .     S
O1178  C1214   1.295   .     S
O1179  Zn1184  1.939   .     S
O1179  C1260   1.299   1_455 S
O1180  Zn1184  1.905   .     S
O1181  Zn1183  1.905   .     S
C1185  C1212   1.411   .     S
C1185  O1250   1.291   .     A
C1186  C1188   1.455   .     S
C1186  O1255   1.298   .     A
C1186  O1327   1.299   .     S
C1187  C1193   1.407   .     A
C1187  C1214   1.457   .     S
C1187  C1191   1.398   .     A
C1188  C1192   1.399   .     A
C1188  C1194   1.398   .     A
C1189  C1198   1.395   .     A
C1189  C1191   1.382   .     A
C1190  C1199   1.402   .     A
C1190  H1218   1.084   .     S
C1190  C1192   1.392   .     A
C1192  H1314   1.083   .     S
C1193  O1244   1.388   .     S
C1193  C1195   1.425   .     A
C1194  O1256   1.384   .     S
C1194  C1197   1.415   .     A
C1195  C1200   1.421   .     A
C1195  C1198   1.424   .     A
C1196  C1213   1.419   .     S
C1196  O1251   1.299   .     A
C1196  O1323   1.275   .     S
C1197  C1201   1.420   .     A
C1197  C1199   1.422   .     A
C1198  C544    1.392   1_556 S
C1200  C1209   1.408   .     A
C1200  C535    1.412   1_556 S
C1201  C1207   1.411   .     A
C1202  H1236   1.109   .     S
C1202  H1235   1.108   .     S
C1202  O1256   1.408   .     S
C1202  H1234   1.114   .     S
C1203  O1244   1.416   .     S
C1203  H1237   1.115   .     S
C1203  H1238   1.109   .     S
C1203  H1239   1.105   .     S
C1204  H1221   1.108   .     S
C1204  O1245   1.412   .     S
C1204  H1223   1.110   .     S
C1205  H1227   1.108   .     S
C1205  H1224   1.112   .     S
C1205  H1225   1.113   .     S
C1206  H1228   1.107   .     S
C1206  H1229   1.104   .     S
C1206  H1230   1.109   .     S
C1206  O1247   1.400   .     S
C1207  C1210   1.382   .     A
C1207  H1219   1.076   .     S
C1208  O1248   1.400   .     S
C1208  H1233   1.109   .     S
C1208  H1231   1.098   .     S
C1208  H1232   1.103   .     S
C1209  C1211   1.390   .     A
C1209  H1220   1.080   .     S
C1210  H1215   1.082   .     S
C1211  H1226   1.084   .     S
C1211  C533    1.397   1_556 S
C1212  C695    1.358   1_565 S
C1212  O801    1.390   1_565 S
C1214  O1254   1.303   .     A
H1216  C1265   1.083   .     S
H1217  C1263   1.082   .     S
H1222  C760    1.108   1_565 S
N1241  Zn1258  2.027   .     S
N1241  N1242   1.284   .     D
N1241  O1247   1.347   .     S
N1242  O1248   1.346   .     S
N1242  Zn1257  2.027   .     S
O1243  Zn1257  1.981   .     S
O1243  C1259   1.283   .     S
O1246  C761    1.415   1_565 S
O1246  C769    1.387   1_565 S
O1249  Zn1258  1.981   .     S
O1250  Zn1258  1.997   .     S
O1251  Zn1257  1.997   .     S
O1252  Zn1257  1.939   .     S
O1252  C1288   1.295   .     S
O1253  Zn1258  1.939   .     S
O1254  Zn1258  1.905   .     S
O1255  Zn1257  1.905   .     S
C1259  C1286   1.411   .     S
C1259  O1324   1.291   .     A
C1260  C1262   1.455   .     S
C1260  O1329   1.298   .     A
C1260  O1179   1.299   1_655 S
C1261  C1267   1.407   .     A
C1261  C1288   1.457   .     S
C1261  C1265   1.398   .     A
C1262  C1266   1.399   .     A
C1262  C1268   1.398   .     A
C1263  C1272   1.395   .     A
C1263  C1265   1.382   .     A
C1264  C1273   1.402   .     A
C1264  H1292   1.084   .     S
C1264  C1266   1.392   .     A
C1266  H1166   1.083   1_655 S
C1267  O1318   1.388   .     S
C1267  C1269   1.425   .     A
C1268  O1330   1.384   .     S
C1268  C1271   1.415   .     A
C1269  C1274   1.421   .     A
C1269  C1272   1.424   .     A
C1270  C1287   1.419   .     S
C1270  O1325   1.299   .     A
C1270  O1175   1.275   1_655 S
C1271  C1275   1.420   .     A
C1271  C1273   1.422   .     A
C1272  C618    1.392   1_556 S
C1274  C1283   1.408   .     A
C1274  C609    1.412   1_556 S
C1275  C1281   1.411   .     A
C1276  H1310   1.109   .     S
C1276  H1309   1.108   .     S
C1276  O1330   1.408   .     S
C1276  H1308   1.114   .     S
C1277  O1318   1.416   .     S
C1277  H1311   1.115   .     S
C1277  H1312   1.109   .     S
C1277  H1313   1.105   .     S
C1278  H1295   1.108   .     S
C1278  O1319   1.412   .     S
C1278  H1297   1.110   .     S
C1279  H1301   1.108   .     S
C1279  H1298   1.112   .     S
C1279  H1299   1.113   .     S
C1280  H1302   1.107   .     S
C1280  H1303   1.104   .     S
C1280  H1304   1.109   .     S
C1280  O1321   1.400   .     S
C1281  C1284   1.382   .     A
C1281  H1293   1.076   .     S
C1282  O1322   1.400   .     S
C1282  H1307   1.109   .     S
C1282  H1305   1.098   .     S
C1282  H1306   1.103   .     S
C1283  C1285   1.390   .     A
C1283  H1294   1.080   .     S
C1284  H1289   1.082   .     S
C1285  H1300   1.084   .     S
C1285  C607    1.397   1_556 S
C1286  C769    1.358   1_565 S
C1286  O875    1.390   1_565 S
C1287  C916    1.358   1_655 S
C1288  O1328   1.303   .     A
H1290  C1117   1.083   1_655 S
H1291  C1115   1.082   1_655 S
H1296  C834    1.108   1_565 S
N1315  Zn1332  2.027   .     S
N1315  N1316   1.284   .     D
N1315  O1321   1.347   .     S
N1316  O1322   1.346   .     S
N1316  Zn1331  2.027   .     S
O1317  Zn1331  1.981   .     S
O1317  C1111   1.283   1_655 S
O1320  C835    1.415   1_565 S
O1320  C843    1.387   1_565 S
O1323  Zn1332  1.981   .     S
O1324  Zn1332  1.997   .     S
O1325  Zn1331  1.997   .     S
O1326  Zn1331  1.939   .     S
O1326  C1140   1.295   1_655 S
O1327  Zn1332  1.939   .     S
O1328  Zn1332  1.905   .     S
O1329  Zn1331  1.905   .     S
