data_str_m1_o1_o2_pcu_sym.99
_audit_creation_date              2020-01-03
_audit_creation_method            'Materials Studio'
_symmetry_space_group_name_H-M    'P1'
_symmetry_Int_Tables_number       1
_symmetry_cell_setting            triclinic
loop_
_symmetry_equiv_pos_as_xyz
  x,y,z
_cell_length_a                    36.6596
_cell_length_b                    36.6596
_cell_length_c                    34.5815
_cell_angle_alpha                 90.0005
_cell_angle_beta                  90.0153
_cell_angle_gamma                 89.9987
loop_
_atom_site_label
_atom_site_type_symbol
_atom_site_fract_x
_atom_site_fract_y
_atom_site_fract_z
_atom_site_U_iso_or_equiv
_atom_site_adp_type
_atom_site_occupancy
C1     C     0.21929   0.01223   0.04157   0.00000  Uiso   1.00
C2     C     0.03071   0.23777   0.45843   0.00000  Uiso   1.00
C3     C     0.34799   0.40172   0.75012   0.00000  Uiso   1.00
C4     C     0.40173   0.15201   0.24988   0.00000  Uiso   1.00
C5     C     0.09828   0.34799   0.75012   0.00000  Uiso   1.00
C6     C     0.34828   0.40201   0.25012   0.00000  Uiso   1.00
C7     C     0.15172   0.09799   0.74988   0.00000  Uiso   1.00
C8     C     0.09828   0.15201   0.75012   0.00000  Uiso   1.00
C9     C     0.40172   0.34799   0.24988   0.00000  Uiso   1.00
C10    C     0.15172   0.40201   0.74988   0.00000  Uiso   1.00
C11    C     0.34827   0.09799   0.25012   0.00000  Uiso   1.00
C12    C     0.40201   0.34828   0.74988   0.00000  Uiso   1.00
C13    C     0.23777   0.46929   0.54157   0.00000  Uiso   1.00
C14    C     0.09799   0.15172   0.25012   0.00000  Uiso   1.00
C15    C     0.34799   0.09828   0.75012   0.00000  Uiso   1.00
C16    C     0.15201   0.40172   0.24988   0.00000  Uiso   1.00
C17    C     0.24999   0.49999   0.10231   0.00000  Uiso   1.00
C18    C     0.25001   0.49999   0.89768   0.00000  Uiso   1.00
C19    C     0.00000   0.25000   0.10231   0.00000  Uiso   1.00
C20    C    -0.00000   0.25000   0.89768   0.00000  Uiso   1.00
C21    C     0.49999   0.25001   0.60231   0.00000  Uiso   1.00
C22    C     0.00001   0.25001   0.39768   0.00000  Uiso   1.00
C23    C     0.25000  -0.00000   0.60231   0.00000  Uiso   1.00
C24    C     0.23776   0.03070   0.45842   0.00000  Uiso   1.00
C25    C     0.25000  -0.00000   0.39768   0.00000  Uiso   1.00
C26    C     0.03070   0.26224   0.54159   0.00000  Uiso   1.00
C27    C     0.46930   0.26224   0.45841   0.00000  Uiso   1.00
C28    C     0.26224   0.03070   0.54158   0.00000  Uiso   1.00
C29    C     0.26223   0.46929   0.45842   0.00000  Uiso   1.00
C30    C     0.21916   0.01222   0.08179   0.00000  Uiso   1.00
C31    C     0.28084   0.01222   0.91821   0.00000  Uiso   1.00
C32    C     0.01224   0.21917   0.08180   0.00000  Uiso   1.00
C33    C     0.28071   0.01222   0.95843   0.00000  Uiso   1.00
C34    C     0.01223   0.28083   0.91821   0.00000  Uiso   1.00
C35    C     0.28082   0.48775   0.08181   0.00000  Uiso   1.00
C36    C     0.21918   0.48775   0.91819   0.00000  Uiso   1.00
C37    C     0.48777   0.28083   0.08179   0.00000  Uiso   1.00
C38    C     0.48776   0.21917   0.91820   0.00000  Uiso   1.00
C39    C     0.46916   0.23778   0.58179   0.00000  Uiso   1.00
C40    C     0.03084   0.23778   0.41821   0.00000  Uiso   1.00
C41    C     0.23777   0.46917   0.58179   0.00000  Uiso   1.00
C42    C     0.23776   0.03083   0.41820   0.00000  Uiso   1.00
C43    C     0.03082   0.26225   0.58181   0.00000  Uiso   1.00
C44    C     0.01224   0.21930   0.04158   0.00000  Uiso   1.00
C45    C     0.46918   0.26225   0.41819   0.00000  Uiso   1.00
C46    C     0.26224   0.03083   0.58180   0.00000  Uiso   1.00
C47    C     0.26223   0.46917   0.41820   0.00000  Uiso   1.00
C48    C     0.25000   0.49999   0.02123   0.00000  Uiso   1.00
C49    C     0.25000   0.49999   0.97877   0.00000  Uiso   1.00
C50    C     0.00000   0.25000   0.02123   0.00000  Uiso   1.00
C51    C    -0.00000   0.25000   0.97877   0.00000  Uiso   1.00
C52    C    -0.00000   0.25001   0.52123   0.00000  Uiso   1.00
C53    C     0.00000   0.25001   0.47877   0.00000  Uiso   1.00
C54    C     0.25000  -0.00000   0.52123   0.00000  Uiso   1.00
C55    C     0.01223   0.28070   0.95843   0.00000  Uiso   1.00
C56    C     0.25000  -0.00000   0.47877   0.00000  Uiso   1.00
C57    C     0.25000  -0.00000   0.35525   0.00000  Uiso   1.00
C58    C     0.25000  -0.00000   0.64475   0.00000  Uiso   1.00
C59    C     0.00000   0.25000   0.35525   0.00000  Uiso   1.00
C60    C    -0.00000   0.25000   0.64475   0.00000  Uiso   1.00
C61    C    -0.00000   0.25000   0.85525   0.00000  Uiso   1.00
C62    C     0.00000   0.25000   0.14475   0.00000  Uiso   1.00
C63    C     0.25000  -0.00000   0.85525   0.00000  Uiso   1.00
C64    C     0.25000  -0.00000   0.14475   0.00000  Uiso   1.00
C65    C     0.18000   0.07007   0.24993   0.00000  Uiso   1.00
C66    C     0.28070   0.48776   0.04159   0.00000  Uiso   1.00
C67    C     0.32000   0.42993   0.75006   0.00000  Uiso   1.00
C68    C     0.42993   0.18000   0.24994   0.00000  Uiso   1.00
C69    C     0.07007   0.31999   0.75006   0.00000  Uiso   1.00
C70    C     0.32007   0.43000   0.25006   0.00000  Uiso   1.00
C71    C     0.17993   0.07000   0.74993   0.00000  Uiso   1.00
C72    C     0.07000   0.32007   0.25006   0.00000  Uiso   1.00
C73    C     0.43000   0.17993   0.74993   0.00000  Uiso   1.00
C74    C     0.17993   0.43000   0.74993   0.00000  Uiso   1.00
C75    C     0.32007   0.07000   0.25006   0.00000  Uiso   1.00
C76    C     0.43000   0.32007   0.74993   0.00000  Uiso   1.00
C77    C     0.21930   0.48776   0.95841   0.00000  Uiso   1.00
C78    C     0.07000   0.17993   0.25006   0.00000  Uiso   1.00
C79    C     0.32000   0.07007   0.75006   0.00000  Uiso   1.00
C80    C     0.18000   0.42993   0.24993   0.00000  Uiso   1.00
C81    C     0.07007   0.18000   0.75006   0.00000  Uiso   1.00
C82    C     0.42993   0.31999   0.24993   0.00000  Uiso   1.00
C83    C     0.13602   0.39101   0.21469   0.00000  Uiso   1.00
C84    C     0.36398   0.10898   0.78531   0.00000  Uiso   1.00
C85    C     0.10945   0.13676   0.21473   0.00000  Uiso   1.00
C86    C     0.39053   0.36322   0.78527   0.00000  Uiso   1.00
C87    C     0.36330   0.10939   0.21474   0.00000  Uiso   1.00
C88    C     0.48777   0.28070   0.04157   0.00000  Uiso   1.00
C89    C     0.13677   0.39054   0.78527   0.00000  Uiso   1.00
C90    C     0.39101   0.36397   0.21469   0.00000  Uiso   1.00
C91    C     0.10901   0.13605   0.78531   0.00000  Uiso   1.00
C92    C     0.13680   0.10949   0.78527   0.00000  Uiso   1.00
C93    C     0.36322   0.39053   0.21473   0.00000  Uiso   1.00
C94    C     0.10898   0.36398   0.78530   0.00000  Uiso   1.00
C95    C     0.39109   0.13595   0.21471   0.00000  Uiso   1.00
C96    C     0.36397   0.39100   0.78531   0.00000  Uiso   1.00
C97    C     0.13602   0.10898   0.21469   0.00000  Uiso   1.00
C98    C     0.39055   0.13676   0.78527   0.00000  Uiso   1.00
C99    C     0.48776   0.21930   0.95842   0.00000  Uiso   1.00
C100   C     0.10946   0.36323   0.21473   0.00000  Uiso   1.00
C101   C     0.38602   0.14102   0.71469   0.00000  Uiso   1.00
C102   C     0.11398   0.35899   0.28530   0.00000  Uiso   1.00
C103   C     0.35947   0.38678   0.71473   0.00000  Uiso   1.00
C104   C     0.14055   0.11324   0.28527   0.00000  Uiso   1.00
C105   C     0.11323   0.35946   0.71473   0.00000  Uiso   1.00
C106   C     0.38670   0.14061   0.28526   0.00000  Uiso   1.00
C107   C     0.14099   0.11395   0.71469   0.00000  Uiso   1.00
C108   C     0.35899   0.38603   0.28531   0.00000  Uiso   1.00
C109   C     0.38678   0.35947   0.28527   0.00000  Uiso   1.00
C110   C     0.46929   0.23778   0.54157   0.00000  Uiso   1.00
C111   C     0.11321   0.14052   0.71473   0.00000  Uiso   1.00
C112   C     0.35891   0.11406   0.28529   0.00000  Uiso   1.00
C113   C     0.14102   0.38602   0.71469   0.00000  Uiso   1.00
C114   C     0.11398   0.14102   0.28531   0.00000  Uiso   1.00
C115   C     0.38603   0.35900   0.71469   0.00000  Uiso   1.00
C116   C     0.14054   0.38677   0.28527   0.00000  Uiso   1.00
C117   C     0.35945   0.11324   0.71473   0.00000  Uiso   1.00
C118   C     0.09799   0.34828   0.25012   0.00000  Uiso   1.00
C119   C     0.40201   0.15172   0.74988   0.00000  Uiso   1.00
C120   C     0.15201   0.09828   0.24988   0.00000  Uiso   1.00
F121   F     0.18917   0.02495   0.10045   0.00000  Uiso   1.00
F122   F     0.06083   0.22505   0.39955   0.00000  Uiso   1.00
F123   F     0.22504   0.43917   0.60046   0.00000  Uiso   1.00
F124   F     0.22503   0.06082   0.39952   0.00000  Uiso   1.00
F125   F     0.06081   0.27498   0.60049   0.00000  Uiso   1.00
F126   F     0.43919   0.27498   0.39951   0.00000  Uiso   1.00
F127   F     0.27497   0.06082   0.60048   0.00000  Uiso   1.00
F128   F     0.27496   0.43917   0.39954   0.00000  Uiso   1.00
F129   F     0.31083   0.02495   0.89955   0.00000  Uiso   1.00
F130   F     0.02497   0.18918   0.10047   0.00000  Uiso   1.00
F131   F     0.02496   0.31083   0.89954   0.00000  Uiso   1.00
F132   F     0.31081   0.47502   0.10049   0.00000  Uiso   1.00
F133   F     0.18919   0.47502   0.89951   0.00000  Uiso   1.00
F134   F     0.47504   0.31083   0.10046   0.00000  Uiso   1.00
F135   F     0.47503   0.18918   0.89952   0.00000  Uiso   1.00
F136   F     0.43917   0.22505   0.60045   0.00000  Uiso   1.00
H137   H     0.19554   0.02230   0.02629   0.00000  Uiso   1.00
H138   H     0.05446   0.22770   0.47371   0.00000  Uiso   1.00
H139   H     0.22769   0.44555   0.52630   0.00000  Uiso   1.00
H140   H     0.22769   0.05445   0.47369   0.00000  Uiso   1.00
H141   H     0.05445   0.27232   0.52632   0.00000  Uiso   1.00
H142   H     0.44555   0.27232   0.47368   0.00000  Uiso   1.00
H143   H     0.27231   0.05445   0.52631   0.00000  Uiso   1.00
H144   H     0.27231   0.44555   0.47370   0.00000  Uiso   1.00
H145   H     0.12623   0.40833   0.16262   0.00000  Uiso   1.00
H146   H     0.37377   0.09164   0.83737   0.00000  Uiso   1.00
H147   H     0.11406   0.14873   0.16010   0.00000  Uiso   1.00
H148   H     0.30446   0.02230   0.97371   0.00000  Uiso   1.00
H149   H     0.38587   0.35120   0.83988   0.00000  Uiso   1.00
H150   H     0.35150   0.11389   0.16004   0.00000  Uiso   1.00
H151   H     0.14875   0.38593   0.83990   0.00000  Uiso   1.00
H152   H     0.40831   0.37373   0.16261   0.00000  Uiso   1.00
H153   H     0.09174   0.12630   0.83739   0.00000  Uiso   1.00
H154   H     0.14883   0.11416   0.83987   0.00000  Uiso   1.00
H155   H     0.35123   0.38590   0.16010   0.00000  Uiso   1.00
H156   H     0.09166   0.37376   0.83737   0.00000  Uiso   1.00
H157   H     0.40860   0.12601   0.16276   0.00000  Uiso   1.00
H158   H     0.37374   0.40830   0.83739   0.00000  Uiso   1.00
H159   H     0.02231   0.19555   0.02631   0.00000  Uiso   1.00
H160   H     0.12623   0.09165   0.16263   0.00000  Uiso   1.00
H161   H     0.38595   0.14872   0.83990   0.00000  Uiso   1.00
H162   H     0.11410   0.35123   0.16011   0.00000  Uiso   1.00
H163   H     0.37624   0.15834   0.66262   0.00000  Uiso   1.00
H164   H     0.12377   0.34167   0.33738   0.00000  Uiso   1.00
H165   H     0.36413   0.39879   0.66012   0.00000  Uiso   1.00
H166   H     0.13594   0.10126   0.33990   0.00000  Uiso   1.00
H167   H     0.10125   0.36408   0.66010   0.00000  Uiso   1.00
H168   H     0.39840   0.13619   0.33999   0.00000  Uiso   1.00
H169   H     0.15828   0.12371   0.66261   0.00000  Uiso   1.00
H170   H     0.02231   0.30445   0.97370   0.00000  Uiso   1.00
H171   H     0.34169   0.37627   0.33738   0.00000  Uiso   1.00
H172   H     0.39877   0.36410   0.33989   0.00000  Uiso   1.00
H173   H     0.10118   0.13584   0.66012   0.00000  Uiso   1.00
H174   H     0.34131   0.12402   0.33719   0.00000  Uiso   1.00
H175   H     0.15834   0.37624   0.66263   0.00000  Uiso   1.00
H176   H     0.12377   0.15835   0.33738   0.00000  Uiso   1.00
H177   H     0.37626   0.34169   0.66262   0.00000  Uiso   1.00
H178   H     0.13589   0.39877   0.33988   0.00000  Uiso   1.00
H179   H     0.36406   0.10126   0.66010   0.00000  Uiso   1.00
H180   H     0.30445   0.47768   0.02632   0.00000  Uiso   1.00
H181   H     0.19555   0.47768   0.97368   0.00000  Uiso   1.00
H182   H     0.47769   0.30445   0.02630   0.00000  Uiso   1.00
H183   H     0.47769   0.19555   0.97369   0.00000  Uiso   1.00
H184   H     0.44554   0.22770   0.52629   0.00000  Uiso   1.00
O185   O     0.25000   0.00000   0.25000   0.00000  Uiso   1.00
O186   O     0.25000   0.46964   0.66317   0.00000  Uiso   1.00
O187   O     0.46964   0.25000   0.33683   0.00000  Uiso   1.00
O188   O     0.03036   0.25000   0.66317   0.00000  Uiso   1.00
O189   O     0.00000   0.21964   0.83683   0.00000  Uiso   1.00
O190   O     0.00000   0.28036   0.16317   0.00000  Uiso   1.00
O191   O     0.28036   0.00000   0.83683   0.00000  Uiso   1.00
O192   O     0.21964   0.00000   0.16317   0.00000  Uiso   1.00
O193   O     0.00000   0.28036   0.83683   0.00000  Uiso   1.00
O194   O     0.00000   0.21964   0.16317   0.00000  Uiso   1.00
O195   O     0.21964   0.00000   0.83683   0.00000  Uiso   1.00
O196   O     0.25000   0.00000   0.75000   0.00000  Uiso   1.00
O197   O     0.28036   0.00000   0.16317   0.00000  Uiso   1.00
O198   O     0.20726   0.07307   0.27282   0.00000  Uiso   1.00
O199   O     0.29275   0.42693   0.72718   0.00000  Uiso   1.00
O200   O     0.42693   0.20725   0.27282   0.00000  Uiso   1.00
O201   O     0.07307   0.29274   0.72718   0.00000  Uiso   1.00
O202   O     0.29275   0.42693   0.27282   0.00000  Uiso   1.00
O203   O     0.20726   0.07307   0.72718   0.00000  Uiso   1.00
O204   O     0.07307   0.29274   0.27282   0.00000  Uiso   1.00
O205   O     0.42693   0.20725   0.72718   0.00000  Uiso   1.00
O206   O     0.20726   0.42693   0.72718   0.00000  Uiso   1.00
O207   O     0.00000   0.25000   0.25000   0.00000  Uiso   1.00
O208   O     0.29275   0.07307   0.27282   0.00000  Uiso   1.00
O209   O     0.42693   0.29274   0.72718   0.00000  Uiso   1.00
O210   O     0.07307   0.20725   0.27282   0.00000  Uiso   1.00
O211   O     0.29275   0.07307   0.72718   0.00000  Uiso   1.00
O212   O     0.20726   0.42693   0.27282   0.00000  Uiso   1.00
O213   O     0.07307   0.20725   0.72718   0.00000  Uiso   1.00
O214   O     0.42693   0.29274   0.27282   0.00000  Uiso   1.00
O215   O     0.45726   0.32307   0.77282   0.00000  Uiso   1.00
O216   O     0.04275   0.17693   0.22718   0.00000  Uiso   1.00
O217   O     0.17693   0.45725   0.77282   0.00000  Uiso   1.00
O218   O     0.00000   0.25000   0.75000   0.00000  Uiso   1.00
O219   O     0.32307   0.04275   0.22718   0.00000  Uiso   1.00
O220   O     0.04275   0.17693   0.77282   0.00000  Uiso   1.00
O221   O     0.45726   0.32307   0.22718   0.00000  Uiso   1.00
O222   O     0.32307   0.04275   0.77282   0.00000  Uiso   1.00
O223   O     0.17693   0.45725   0.22718   0.00000  Uiso   1.00
O224   O     0.45726   0.17693   0.22718   0.00000  Uiso   1.00
O225   O     0.04275   0.32307   0.77282   0.00000  Uiso   1.00
O226   O     0.17693   0.04275   0.22718   0.00000  Uiso   1.00
O227   O     0.32307   0.45725   0.77282   0.00000  Uiso   1.00
O228   O     0.04275   0.32307   0.22718   0.00000  Uiso   1.00
O229   O     0.25000   0.46964   0.33683   0.00000  Uiso   1.00
O230   O     0.45726   0.17693   0.77282   0.00000  Uiso   1.00
O231   O     0.32307   0.45725   0.22718   0.00000  Uiso   1.00
O232   O     0.17693   0.04275   0.77282   0.00000  Uiso   1.00
O233   O     0.14701   0.40794   0.18093   0.00000  Uiso   1.00
O234   O     0.35299   0.09205   0.81907   0.00000  Uiso   1.00
O235   O     0.09555   0.15112   0.18080   0.00000  Uiso   1.00
O236   O     0.40440   0.34883   0.81920   0.00000  Uiso   1.00
O237   O     0.34898   0.09545   0.18081   0.00000  Uiso   1.00
O238   O     0.15113   0.40444   0.81920   0.00000  Uiso   1.00
O239   O     0.40792   0.35296   0.18093   0.00000  Uiso   1.00
O240   O     0.25000   0.03036   0.66317   0.00000  Uiso   1.00
O241   O     0.09210   0.14706   0.81907   0.00000  Uiso   1.00
O242   O     0.15120   0.09563   0.81920   0.00000  Uiso   1.00
O243   O     0.34884   0.40442   0.18080   0.00000  Uiso   1.00
O244   O     0.09206   0.35298   0.81906   0.00000  Uiso   1.00
O245   O     0.40807   0.14687   0.18096   0.00000  Uiso   1.00
O246   O     0.35297   0.40792   0.81907   0.00000  Uiso   1.00
O247   O     0.14701   0.09205   0.18093   0.00000  Uiso   1.00
O248   O     0.40444   0.15113   0.81920   0.00000  Uiso   1.00
O249   O     0.09558   0.34885   0.18080   0.00000  Uiso   1.00
O250   O     0.39701   0.15795   0.68093   0.00000  Uiso   1.00
O251   O     0.03036   0.25000   0.33683   0.00000  Uiso   1.00
O252   O     0.10299   0.34206   0.31906   0.00000  Uiso   1.00
O253   O     0.34560   0.40117   0.68080   0.00000  Uiso   1.00
O254   O     0.15445   0.09888   0.31920   0.00000  Uiso   1.00
O255   O     0.09887   0.34556   0.68080   0.00000  Uiso   1.00
O256   O     0.40101   0.15456   0.31919   0.00000  Uiso   1.00
O257   O     0.15790   0.10294   0.68093   0.00000  Uiso   1.00
O258   O     0.34208   0.39704   0.31907   0.00000  Uiso   1.00
O259   O     0.40115   0.34558   0.31920   0.00000  Uiso   1.00
O260   O     0.09881   0.15437   0.68080   0.00000  Uiso   1.00
O261   O     0.34192   0.10313   0.31904   0.00000  Uiso   1.00
O262   O     0.46964   0.25000   0.66317   0.00000  Uiso   1.00
O263   O     0.15794   0.39702   0.68093   0.00000  Uiso   1.00
O264   O     0.10299   0.15795   0.31907   0.00000  Uiso   1.00
O265   O     0.39703   0.34208   0.68093   0.00000  Uiso   1.00
O266   O     0.15442   0.40115   0.31920   0.00000  Uiso   1.00
O267   O     0.34556   0.09887   0.68080   0.00000  Uiso   1.00
O268   O     0.25000   0.03036   0.33683   0.00000  Uiso   1.00
Zn269  Zn    0.20660   0.00000   0.21760   0.00000  Uiso   1.00
Zn270  Zn    0.04340   0.25000   0.28240   0.00000  Uiso   1.00
Zn271  Zn    0.25000   0.45660   0.71760   0.00000  Uiso   1.00
Zn272  Zn    0.25000   0.04340   0.28240   0.00000  Uiso   1.00
Zn273  Zn    0.04340   0.25000   0.71760   0.00000  Uiso   1.00
Zn274  Zn    0.45660   0.25000   0.28240   0.00000  Uiso   1.00
Zn275  Zn    0.25000   0.04340   0.71760   0.00000  Uiso   1.00
Zn276  Zn    0.25000   0.45660   0.28240   0.00000  Uiso   1.00
Zn277  Zn    0.29340   0.00000   0.78240   0.00000  Uiso   1.00
Zn278  Zn    0.00000   0.20660   0.21760   0.00000  Uiso   1.00
Zn279  Zn    0.00000   0.29340   0.78240   0.00000  Uiso   1.00
Zn280  Zn    0.29340   0.00000   0.21760   0.00000  Uiso   1.00
Zn281  Zn    0.20660   0.00000   0.78240   0.00000  Uiso   1.00
Zn282  Zn    0.00000   0.29340   0.21760   0.00000  Uiso   1.00
Zn283  Zn    0.00000   0.20660   0.78240   0.00000  Uiso   1.00
Zn284  Zn    0.45660   0.25000   0.71760   0.00000  Uiso   1.00
C285   C     0.71929   0.01223   0.04157   0.00000  Uiso   1.00
C286   C     0.53071   0.23777   0.45843   0.00000  Uiso   1.00
C287   C     0.84799   0.40172   0.75012   0.00000  Uiso   1.00
C288   C     0.90173   0.15201   0.24988   0.00000  Uiso   1.00
C289   C     0.59828   0.34799   0.75012   0.00000  Uiso   1.00
C290   C     0.84828   0.40201   0.25012   0.00000  Uiso   1.00
C291   C     0.65172   0.09799   0.74988   0.00000  Uiso   1.00
C292   C     0.59828   0.15201   0.75012   0.00000  Uiso   1.00
C293   C     0.90172   0.34799   0.24988   0.00000  Uiso   1.00
C294   C     0.65172   0.40201   0.74988   0.00000  Uiso   1.00
C295   C     0.84827   0.09799   0.25012   0.00000  Uiso   1.00
C296   C     0.90201   0.34828   0.74988   0.00000  Uiso   1.00
C297   C     0.73777   0.46929   0.54157   0.00000  Uiso   1.00
C298   C     0.59799   0.15172   0.25012   0.00000  Uiso   1.00
C299   C     0.84799   0.09828   0.75012   0.00000  Uiso   1.00
C300   C     0.65201   0.40172   0.24988   0.00000  Uiso   1.00
C301   C     0.74999   0.49999   0.10231   0.00000  Uiso   1.00
C302   C     0.75001   0.49999   0.89768   0.00000  Uiso   1.00
C303   C     0.50000   0.25000   0.10231   0.00000  Uiso   1.00
C304   C     0.50000   0.25000   0.89768   0.00000  Uiso   1.00
C305   C     0.99999   0.25001   0.60231   0.00000  Uiso   1.00
C306   C     0.50001   0.25001   0.39768   0.00000  Uiso   1.00
C307   C     0.75000  -0.00000   0.60231   0.00000  Uiso   1.00
C308   C     0.73776   0.03070   0.45842   0.00000  Uiso   1.00
C309   C     0.75000  -0.00000   0.39768   0.00000  Uiso   1.00
C310   C     0.53070   0.26224   0.54159   0.00000  Uiso   1.00
C311   C     0.96930   0.26224   0.45841   0.00000  Uiso   1.00
C312   C     0.76224   0.03070   0.54158   0.00000  Uiso   1.00
C313   C     0.76223   0.46929   0.45842   0.00000  Uiso   1.00
C314   C     0.71916   0.01222   0.08179   0.00000  Uiso   1.00
C315   C     0.78084   0.01222   0.91821   0.00000  Uiso   1.00
C316   C     0.51224   0.21917   0.08180   0.00000  Uiso   1.00
C317   C     0.78071   0.01222   0.95843   0.00000  Uiso   1.00
C318   C     0.51223   0.28083   0.91821   0.00000  Uiso   1.00
C319   C     0.78082   0.48775   0.08181   0.00000  Uiso   1.00
C320   C     0.71918   0.48775   0.91819   0.00000  Uiso   1.00
C321   C     0.98777   0.28083   0.08179   0.00000  Uiso   1.00
C322   C     0.98776   0.21917   0.91820   0.00000  Uiso   1.00
C323   C     0.96916   0.23778   0.58179   0.00000  Uiso   1.00
C324   C     0.53084   0.23778   0.41821   0.00000  Uiso   1.00
C325   C     0.73777   0.46917   0.58179   0.00000  Uiso   1.00
C326   C     0.73776   0.03083   0.41820   0.00000  Uiso   1.00
C327   C     0.53082   0.26225   0.58181   0.00000  Uiso   1.00
C328   C     0.51224   0.21930   0.04158   0.00000  Uiso   1.00
C329   C     0.96918   0.26225   0.41819   0.00000  Uiso   1.00
C330   C     0.76224   0.03083   0.58180   0.00000  Uiso   1.00
C331   C     0.76223   0.46917   0.41820   0.00000  Uiso   1.00
C332   C     0.75000   0.49999   0.02123   0.00000  Uiso   1.00
C333   C     0.75000   0.49999   0.97877   0.00000  Uiso   1.00
C334   C     0.50000   0.25000   0.02123   0.00000  Uiso   1.00
C335   C     0.50000   0.25000   0.97877   0.00000  Uiso   1.00
C336   C     0.50000   0.25001   0.52123   0.00000  Uiso   1.00
C337   C     0.50000   0.25001   0.47877   0.00000  Uiso   1.00
C338   C     0.75000  -0.00000   0.52123   0.00000  Uiso   1.00
C339   C     0.51223   0.28070   0.95843   0.00000  Uiso   1.00
C340   C     0.75000  -0.00000   0.47877   0.00000  Uiso   1.00
C341   C     0.75000  -0.00000   0.35525   0.00000  Uiso   1.00
C342   C     0.75000  -0.00000   0.64475   0.00000  Uiso   1.00
C343   C     0.50000   0.25000   0.35525   0.00000  Uiso   1.00
C344   C     0.50000   0.25000   0.64475   0.00000  Uiso   1.00
C345   C     0.50000   0.25000   0.85525   0.00000  Uiso   1.00
C346   C     0.50000   0.25000   0.14475   0.00000  Uiso   1.00
C347   C     0.75000  -0.00000   0.85525   0.00000  Uiso   1.00
C348   C     0.75000  -0.00000   0.14475   0.00000  Uiso   1.00
C349   C     0.68000   0.07007   0.24993   0.00000  Uiso   1.00
C350   C     0.78070   0.48776   0.04159   0.00000  Uiso   1.00
C351   C     0.82000   0.42993   0.75006   0.00000  Uiso   1.00
C352   C     0.92993   0.18000   0.24994   0.00000  Uiso   1.00
C353   C     0.57007   0.31999   0.75006   0.00000  Uiso   1.00
C354   C     0.82007   0.43000   0.25006   0.00000  Uiso   1.00
C355   C     0.67993   0.07000   0.74993   0.00000  Uiso   1.00
C356   C     0.57000   0.32007   0.25006   0.00000  Uiso   1.00
C357   C     0.93000   0.17993   0.74993   0.00000  Uiso   1.00
C358   C     0.67993   0.43000   0.74993   0.00000  Uiso   1.00
C359   C     0.82007   0.07000   0.25006   0.00000  Uiso   1.00
C360   C     0.93000   0.32007   0.74993   0.00000  Uiso   1.00
C361   C     0.71930   0.48776   0.95841   0.00000  Uiso   1.00
C362   C     0.57000   0.17993   0.25006   0.00000  Uiso   1.00
C363   C     0.82000   0.07007   0.75006   0.00000  Uiso   1.00
C364   C     0.68000   0.42993   0.24993   0.00000  Uiso   1.00
C365   C     0.57007   0.18000   0.75006   0.00000  Uiso   1.00
C366   C     0.92993   0.31999   0.24993   0.00000  Uiso   1.00
C367   C     0.63602   0.39101   0.21469   0.00000  Uiso   1.00
C368   C     0.86398   0.10898   0.78531   0.00000  Uiso   1.00
C369   C     0.60945   0.13676   0.21473   0.00000  Uiso   1.00
C370   C     0.89053   0.36322   0.78527   0.00000  Uiso   1.00
C371   C     0.86330   0.10939   0.21474   0.00000  Uiso   1.00
C372   C     0.98777   0.28070   0.04157   0.00000  Uiso   1.00
C373   C     0.63677   0.39054   0.78527   0.00000  Uiso   1.00
C374   C     0.89101   0.36397   0.21469   0.00000  Uiso   1.00
C375   C     0.60901   0.13605   0.78531   0.00000  Uiso   1.00
C376   C     0.63680   0.10949   0.78527   0.00000  Uiso   1.00
C377   C     0.86322   0.39053   0.21473   0.00000  Uiso   1.00
C378   C     0.60898   0.36398   0.78530   0.00000  Uiso   1.00
C379   C     0.89109   0.13595   0.21471   0.00000  Uiso   1.00
C380   C     0.86397   0.39100   0.78531   0.00000  Uiso   1.00
C381   C     0.63602   0.10898   0.21469   0.00000  Uiso   1.00
C382   C     0.89055   0.13676   0.78527   0.00000  Uiso   1.00
C383   C     0.98776   0.21930   0.95842   0.00000  Uiso   1.00
C384   C     0.60946   0.36323   0.21473   0.00000  Uiso   1.00
C385   C     0.88602   0.14102   0.71469   0.00000  Uiso   1.00
C386   C     0.61398   0.35899   0.28530   0.00000  Uiso   1.00
C387   C     0.85947   0.38678   0.71473   0.00000  Uiso   1.00
C388   C     0.64055   0.11324   0.28527   0.00000  Uiso   1.00
C389   C     0.61323   0.35946   0.71473   0.00000  Uiso   1.00
C390   C     0.88670   0.14061   0.28526   0.00000  Uiso   1.00
C391   C     0.64099   0.11395   0.71469   0.00000  Uiso   1.00
C392   C     0.85899   0.38603   0.28531   0.00000  Uiso   1.00
C393   C     0.88678   0.35947   0.28527   0.00000  Uiso   1.00
C394   C     0.96929   0.23778   0.54157   0.00000  Uiso   1.00
C395   C     0.61321   0.14052   0.71473   0.00000  Uiso   1.00
C396   C     0.85891   0.11406   0.28529   0.00000  Uiso   1.00
C397   C     0.64102   0.38602   0.71469   0.00000  Uiso   1.00
C398   C     0.61398   0.14102   0.28531   0.00000  Uiso   1.00
C399   C     0.88603   0.35900   0.71469   0.00000  Uiso   1.00
C400   C     0.64054   0.38677   0.28527   0.00000  Uiso   1.00
C401   C     0.85945   0.11324   0.71473   0.00000  Uiso   1.00
C402   C     0.59799   0.34828   0.25012   0.00000  Uiso   1.00
C403   C     0.90201   0.15172   0.74988   0.00000  Uiso   1.00
C404   C     0.65201   0.09828   0.24988   0.00000  Uiso   1.00
F405   F     0.68917   0.02495   0.10045   0.00000  Uiso   1.00
F406   F     0.56083   0.22505   0.39955   0.00000  Uiso   1.00
F407   F     0.72504   0.43917   0.60046   0.00000  Uiso   1.00
F408   F     0.72503   0.06082   0.39952   0.00000  Uiso   1.00
F409   F     0.56081   0.27498   0.60049   0.00000  Uiso   1.00
F410   F     0.93919   0.27498   0.39951   0.00000  Uiso   1.00
F411   F     0.77497   0.06082   0.60048   0.00000  Uiso   1.00
F412   F     0.77496   0.43917   0.39954   0.00000  Uiso   1.00
F413   F     0.81083   0.02495   0.89955   0.00000  Uiso   1.00
F414   F     0.52497   0.18918   0.10047   0.00000  Uiso   1.00
F415   F     0.52496   0.31083   0.89954   0.00000  Uiso   1.00
F416   F     0.81081   0.47502   0.10049   0.00000  Uiso   1.00
F417   F     0.68919   0.47502   0.89951   0.00000  Uiso   1.00
F418   F     0.97504   0.31083   0.10046   0.00000  Uiso   1.00
F419   F     0.97503   0.18918   0.89952   0.00000  Uiso   1.00
F420   F     0.93917   0.22505   0.60045   0.00000  Uiso   1.00
H421   H     0.69554   0.02230   0.02629   0.00000  Uiso   1.00
H422   H     0.55446   0.22770   0.47371   0.00000  Uiso   1.00
H423   H     0.72769   0.44555   0.52630   0.00000  Uiso   1.00
H424   H     0.72769   0.05445   0.47369   0.00000  Uiso   1.00
H425   H     0.55445   0.27232   0.52632   0.00000  Uiso   1.00
H426   H     0.94555   0.27232   0.47368   0.00000  Uiso   1.00
H427   H     0.77231   0.05445   0.52631   0.00000  Uiso   1.00
H428   H     0.77231   0.44555   0.47370   0.00000  Uiso   1.00
H429   H     0.62623   0.40833   0.16262   0.00000  Uiso   1.00
H430   H     0.87377   0.09164   0.83737   0.00000  Uiso   1.00
H431   H     0.61406   0.14873   0.16010   0.00000  Uiso   1.00
H432   H     0.80446   0.02230   0.97371   0.00000  Uiso   1.00
H433   H     0.88587   0.35120   0.83988   0.00000  Uiso   1.00
H434   H     0.85150   0.11389   0.16004   0.00000  Uiso   1.00
H435   H     0.64875   0.38593   0.83990   0.00000  Uiso   1.00
H436   H     0.90831   0.37373   0.16261   0.00000  Uiso   1.00
H437   H     0.59174   0.12630   0.83739   0.00000  Uiso   1.00
H438   H     0.64883   0.11416   0.83987   0.00000  Uiso   1.00
H439   H     0.85123   0.38590   0.16010   0.00000  Uiso   1.00
H440   H     0.59166   0.37376   0.83737   0.00000  Uiso   1.00
H441   H     0.90860   0.12601   0.16276   0.00000  Uiso   1.00
H442   H     0.87374   0.40830   0.83739   0.00000  Uiso   1.00
H443   H     0.52231   0.19555   0.02631   0.00000  Uiso   1.00
H444   H     0.62623   0.09165   0.16263   0.00000  Uiso   1.00
H445   H     0.88595   0.14872   0.83990   0.00000  Uiso   1.00
H446   H     0.61410   0.35123   0.16011   0.00000  Uiso   1.00
H447   H     0.87624   0.15834   0.66262   0.00000  Uiso   1.00
H448   H     0.62377   0.34167   0.33738   0.00000  Uiso   1.00
H449   H     0.86413   0.39879   0.66012   0.00000  Uiso   1.00
H450   H     0.63594   0.10126   0.33990   0.00000  Uiso   1.00
H451   H     0.60125   0.36408   0.66010   0.00000  Uiso   1.00
H452   H     0.89840   0.13619   0.33999   0.00000  Uiso   1.00
H453   H     0.65828   0.12371   0.66261   0.00000  Uiso   1.00
H454   H     0.52231   0.30445   0.97370   0.00000  Uiso   1.00
H455   H     0.84169   0.37627   0.33738   0.00000  Uiso   1.00
H456   H     0.89877   0.36410   0.33989   0.00000  Uiso   1.00
H457   H     0.60118   0.13584   0.66012   0.00000  Uiso   1.00
H458   H     0.84131   0.12402   0.33719   0.00000  Uiso   1.00
H459   H     0.65834   0.37624   0.66263   0.00000  Uiso   1.00
H460   H     0.62377   0.15835   0.33738   0.00000  Uiso   1.00
H461   H     0.87626   0.34169   0.66262   0.00000  Uiso   1.00
H462   H     0.63589   0.39877   0.33988   0.00000  Uiso   1.00
H463   H     0.86406   0.10126   0.66010   0.00000  Uiso   1.00
H464   H     0.80445   0.47768   0.02632   0.00000  Uiso   1.00
H465   H     0.69555   0.47768   0.97368   0.00000  Uiso   1.00
H466   H     0.97769   0.30445   0.02630   0.00000  Uiso   1.00
H467   H     0.97769   0.19555   0.97369   0.00000  Uiso   1.00
H468   H     0.94554   0.22770   0.52629   0.00000  Uiso   1.00
O469   O     0.75000   0.00000   0.25000   0.00000  Uiso   1.00
O470   O     0.75000   0.46964   0.66317   0.00000  Uiso   1.00
O471   O     0.96964   0.25000   0.33683   0.00000  Uiso   1.00
O472   O     0.53036   0.25000   0.66317   0.00000  Uiso   1.00
O473   O     0.50000   0.21964   0.83683   0.00000  Uiso   1.00
O474   O     0.50000   0.28036   0.16317   0.00000  Uiso   1.00
O475   O     0.78036   0.00000   0.83683   0.00000  Uiso   1.00
O476   O     0.71964   0.00000   0.16317   0.00000  Uiso   1.00
O477   O     0.50000   0.28036   0.83683   0.00000  Uiso   1.00
O478   O     0.50000   0.21964   0.16317   0.00000  Uiso   1.00
O479   O     0.71964   0.00000   0.83683   0.00000  Uiso   1.00
O480   O     0.75000   0.00000   0.75000   0.00000  Uiso   1.00
O481   O     0.78036   0.00000   0.16317   0.00000  Uiso   1.00
O482   O     0.70726   0.07307   0.27282   0.00000  Uiso   1.00
O483   O     0.79275   0.42693   0.72718   0.00000  Uiso   1.00
O484   O     0.92693   0.20725   0.27282   0.00000  Uiso   1.00
O485   O     0.57307   0.29274   0.72718   0.00000  Uiso   1.00
O486   O     0.79275   0.42693   0.27282   0.00000  Uiso   1.00
O487   O     0.70726   0.07307   0.72718   0.00000  Uiso   1.00
O488   O     0.57307   0.29274   0.27282   0.00000  Uiso   1.00
O489   O     0.92693   0.20725   0.72718   0.00000  Uiso   1.00
O490   O     0.70726   0.42693   0.72718   0.00000  Uiso   1.00
O491   O     0.50000   0.25000   0.25000   0.00000  Uiso   1.00
O492   O     0.79275   0.07307   0.27282   0.00000  Uiso   1.00
O493   O     0.92693   0.29274   0.72718   0.00000  Uiso   1.00
O494   O     0.57307   0.20725   0.27282   0.00000  Uiso   1.00
O495   O     0.79275   0.07307   0.72718   0.00000  Uiso   1.00
O496   O     0.70726   0.42693   0.27282   0.00000  Uiso   1.00
O497   O     0.57307   0.20725   0.72718   0.00000  Uiso   1.00
O498   O     0.92693   0.29274   0.27282   0.00000  Uiso   1.00
O499   O     0.95726   0.32307   0.77282   0.00000  Uiso   1.00
O500   O     0.54275   0.17693   0.22718   0.00000  Uiso   1.00
O501   O     0.67693   0.45725   0.77282   0.00000  Uiso   1.00
O502   O     0.50000   0.25000   0.75000   0.00000  Uiso   1.00
O503   O     0.82307   0.04275   0.22718   0.00000  Uiso   1.00
O504   O     0.54275   0.17693   0.77282   0.00000  Uiso   1.00
O505   O     0.95726   0.32307   0.22718   0.00000  Uiso   1.00
O506   O     0.82307   0.04275   0.77282   0.00000  Uiso   1.00
O507   O     0.67693   0.45725   0.22718   0.00000  Uiso   1.00
O508   O     0.95726   0.17693   0.22718   0.00000  Uiso   1.00
O509   O     0.54275   0.32307   0.77282   0.00000  Uiso   1.00
O510   O     0.67693   0.04275   0.22718   0.00000  Uiso   1.00
O511   O     0.82307   0.45725   0.77282   0.00000  Uiso   1.00
O512   O     0.54275   0.32307   0.22718   0.00000  Uiso   1.00
O513   O     0.75000   0.46964   0.33683   0.00000  Uiso   1.00
O514   O     0.95726   0.17693   0.77282   0.00000  Uiso   1.00
O515   O     0.82307   0.45725   0.22718   0.00000  Uiso   1.00
O516   O     0.67693   0.04275   0.77282   0.00000  Uiso   1.00
O517   O     0.64701   0.40794   0.18093   0.00000  Uiso   1.00
O518   O     0.85299   0.09205   0.81907   0.00000  Uiso   1.00
O519   O     0.59555   0.15112   0.18080   0.00000  Uiso   1.00
O520   O     0.90440   0.34883   0.81920   0.00000  Uiso   1.00
O521   O     0.84898   0.09545   0.18081   0.00000  Uiso   1.00
O522   O     0.65113   0.40444   0.81920   0.00000  Uiso   1.00
O523   O     0.90792   0.35296   0.18093   0.00000  Uiso   1.00
O524   O     0.75000   0.03036   0.66317   0.00000  Uiso   1.00
O525   O     0.59210   0.14706   0.81907   0.00000  Uiso   1.00
O526   O     0.65120   0.09563   0.81920   0.00000  Uiso   1.00
O527   O     0.84884   0.40442   0.18080   0.00000  Uiso   1.00
O528   O     0.59206   0.35298   0.81906   0.00000  Uiso   1.00
O529   O     0.90807   0.14687   0.18096   0.00000  Uiso   1.00
O530   O     0.85297   0.40792   0.81907   0.00000  Uiso   1.00
O531   O     0.64701   0.09205   0.18093   0.00000  Uiso   1.00
O532   O     0.90444   0.15113   0.81920   0.00000  Uiso   1.00
O533   O     0.59558   0.34885   0.18080   0.00000  Uiso   1.00
O534   O     0.89701   0.15795   0.68093   0.00000  Uiso   1.00
O535   O     0.53036   0.25000   0.33683   0.00000  Uiso   1.00
O536   O     0.60299   0.34206   0.31906   0.00000  Uiso   1.00
O537   O     0.84560   0.40117   0.68080   0.00000  Uiso   1.00
O538   O     0.65445   0.09888   0.31920   0.00000  Uiso   1.00
O539   O     0.59887   0.34556   0.68080   0.00000  Uiso   1.00
O540   O     0.90101   0.15456   0.31919   0.00000  Uiso   1.00
O541   O     0.65790   0.10294   0.68093   0.00000  Uiso   1.00
O542   O     0.84208   0.39704   0.31907   0.00000  Uiso   1.00
O543   O     0.90115   0.34558   0.31920   0.00000  Uiso   1.00
O544   O     0.59881   0.15437   0.68080   0.00000  Uiso   1.00
O545   O     0.84192   0.10313   0.31904   0.00000  Uiso   1.00
O546   O     0.96964   0.25000   0.66317   0.00000  Uiso   1.00
O547   O     0.65794   0.39702   0.68093   0.00000  Uiso   1.00
O548   O     0.60299   0.15795   0.31907   0.00000  Uiso   1.00
O549   O     0.89703   0.34208   0.68093   0.00000  Uiso   1.00
O550   O     0.65442   0.40115   0.31920   0.00000  Uiso   1.00
O551   O     0.84556   0.09887   0.68080   0.00000  Uiso   1.00
O552   O     0.75000   0.03036   0.33683   0.00000  Uiso   1.00
Zn553  Zn    0.70660   0.00000   0.21760   0.00000  Uiso   1.00
Zn554  Zn    0.54340   0.25000   0.28240   0.00000  Uiso   1.00
Zn555  Zn    0.75000   0.45660   0.71760   0.00000  Uiso   1.00
Zn556  Zn    0.75000   0.04340   0.28240   0.00000  Uiso   1.00
Zn557  Zn    0.54340   0.25000   0.71760   0.00000  Uiso   1.00
Zn558  Zn    0.95660   0.25000   0.28240   0.00000  Uiso   1.00
Zn559  Zn    0.75000   0.04340   0.71760   0.00000  Uiso   1.00
Zn560  Zn    0.75000   0.45660   0.28240   0.00000  Uiso   1.00
Zn561  Zn    0.79340   0.00000   0.78240   0.00000  Uiso   1.00
Zn562  Zn    0.50000   0.20660   0.21760   0.00000  Uiso   1.00
Zn563  Zn    0.50000   0.29340   0.78240   0.00000  Uiso   1.00
Zn564  Zn    0.79340   0.00000   0.21760   0.00000  Uiso   1.00
Zn565  Zn    0.70660   0.00000   0.78240   0.00000  Uiso   1.00
Zn566  Zn    0.50000   0.29340   0.21760   0.00000  Uiso   1.00
Zn567  Zn    0.50000   0.20660   0.78240   0.00000  Uiso   1.00
Zn568  Zn    0.95660   0.25000   0.71760   0.00000  Uiso   1.00
C569   C     0.21929   0.51223   0.04157   0.00000  Uiso   1.00
C570   C     0.03071   0.73777   0.45843   0.00000  Uiso   1.00
C571   C     0.34799   0.90172   0.75012   0.00000  Uiso   1.00
C572   C     0.40173   0.65201   0.24988   0.00000  Uiso   1.00
C573   C     0.09828   0.84799   0.75012   0.00000  Uiso   1.00
C574   C     0.34828   0.90201   0.25012   0.00000  Uiso   1.00
C575   C     0.15172   0.59799   0.74988   0.00000  Uiso   1.00
C576   C     0.09828   0.65201   0.75012   0.00000  Uiso   1.00
C577   C     0.40172   0.84799   0.24988   0.00000  Uiso   1.00
C578   C     0.15172   0.90201   0.74988   0.00000  Uiso   1.00
C579   C     0.34827   0.59799   0.25012   0.00000  Uiso   1.00
C580   C     0.40201   0.84828   0.74988   0.00000  Uiso   1.00
C581   C     0.23777   0.96929   0.54157   0.00000  Uiso   1.00
C582   C     0.09799   0.65172   0.25012   0.00000  Uiso   1.00
C583   C     0.34799   0.59828   0.75012   0.00000  Uiso   1.00
C584   C     0.15201   0.90172   0.24988   0.00000  Uiso   1.00
C585   C     0.24999   0.99999   0.10231   0.00000  Uiso   1.00
C586   C     0.25001   0.99999   0.89768   0.00000  Uiso   1.00
C587   C     0.00000   0.75000   0.10231   0.00000  Uiso   1.00
C588   C    -0.00000   0.75000   0.89768   0.00000  Uiso   1.00
C589   C     0.49999   0.75001   0.60231   0.00000  Uiso   1.00
C590   C     0.00001   0.75001   0.39768   0.00000  Uiso   1.00
C591   C     0.25000   0.50000   0.60231   0.00000  Uiso   1.00
C592   C     0.23776   0.53070   0.45842   0.00000  Uiso   1.00
C593   C     0.25000   0.50000   0.39768   0.00000  Uiso   1.00
C594   C     0.03070   0.76224   0.54159   0.00000  Uiso   1.00
C595   C     0.46930   0.76224   0.45841   0.00000  Uiso   1.00
C596   C     0.26224   0.53070   0.54158   0.00000  Uiso   1.00
C597   C     0.26223   0.96929   0.45842   0.00000  Uiso   1.00
C598   C     0.21916   0.51222   0.08179   0.00000  Uiso   1.00
C599   C     0.28084   0.51222   0.91821   0.00000  Uiso   1.00
C600   C     0.01224   0.71917   0.08180   0.00000  Uiso   1.00
C601   C     0.28071   0.51222   0.95843   0.00000  Uiso   1.00
C602   C     0.01223   0.78083   0.91821   0.00000  Uiso   1.00
C603   C     0.28082   0.98775   0.08181   0.00000  Uiso   1.00
C604   C     0.21918   0.98775   0.91819   0.00000  Uiso   1.00
C605   C     0.48777   0.78083   0.08179   0.00000  Uiso   1.00
C606   C     0.48776   0.71917   0.91820   0.00000  Uiso   1.00
C607   C     0.46916   0.73778   0.58179   0.00000  Uiso   1.00
C608   C     0.03084   0.73778   0.41821   0.00000  Uiso   1.00
C609   C     0.23777   0.96917   0.58179   0.00000  Uiso   1.00
C610   C     0.23776   0.53083   0.41820   0.00000  Uiso   1.00
C611   C     0.03082   0.76225   0.58181   0.00000  Uiso   1.00
C612   C     0.01224   0.71930   0.04158   0.00000  Uiso   1.00
C613   C     0.46918   0.76225   0.41819   0.00000  Uiso   1.00
C614   C     0.26224   0.53083   0.58180   0.00000  Uiso   1.00
C615   C     0.26223   0.96917   0.41820   0.00000  Uiso   1.00
C616   C     0.25000   0.99999   0.02123   0.00000  Uiso   1.00
C617   C     0.25000   0.99999   0.97877   0.00000  Uiso   1.00
C618   C     0.00000   0.75000   0.02123   0.00000  Uiso   1.00
C619   C    -0.00000   0.75000   0.97877   0.00000  Uiso   1.00
C620   C    -0.00000   0.75001   0.52123   0.00000  Uiso   1.00
C621   C     0.00000   0.75001   0.47877   0.00000  Uiso   1.00
C622   C     0.25000   0.50000   0.52123   0.00000  Uiso   1.00
C623   C     0.01223   0.78070   0.95843   0.00000  Uiso   1.00
C624   C     0.25000   0.50000   0.47877   0.00000  Uiso   1.00
C625   C     0.25000   0.50000   0.35525   0.00000  Uiso   1.00
C626   C     0.25000   0.50000   0.64475   0.00000  Uiso   1.00
C627   C     0.00000   0.75000   0.35525   0.00000  Uiso   1.00
C628   C    -0.00000   0.75000   0.64475   0.00000  Uiso   1.00
C629   C    -0.00000   0.75000   0.85525   0.00000  Uiso   1.00
C630   C     0.00000   0.75000   0.14475   0.00000  Uiso   1.00
C631   C     0.25000   0.50000   0.85525   0.00000  Uiso   1.00
C632   C     0.25000   0.50000   0.14475   0.00000  Uiso   1.00
C633   C     0.18000   0.57007   0.24993   0.00000  Uiso   1.00
C634   C     0.28070   0.98776   0.04159   0.00000  Uiso   1.00
C635   C     0.32000   0.92993   0.75006   0.00000  Uiso   1.00
C636   C     0.42993   0.68000   0.24994   0.00000  Uiso   1.00
C637   C     0.07007   0.81999   0.75006   0.00000  Uiso   1.00
C638   C     0.32007   0.93000   0.25006   0.00000  Uiso   1.00
C639   C     0.17993   0.57000   0.74993   0.00000  Uiso   1.00
C640   C     0.07000   0.82007   0.25006   0.00000  Uiso   1.00
C641   C     0.43000   0.67993   0.74993   0.00000  Uiso   1.00
C642   C     0.17993   0.93000   0.74993   0.00000  Uiso   1.00
C643   C     0.32007   0.57000   0.25006   0.00000  Uiso   1.00
C644   C     0.43000   0.82007   0.74993   0.00000  Uiso   1.00
C645   C     0.21930   0.98776   0.95841   0.00000  Uiso   1.00
C646   C     0.07000   0.67993   0.25006   0.00000  Uiso   1.00
C647   C     0.32000   0.57007   0.75006   0.00000  Uiso   1.00
C648   C     0.18000   0.92993   0.24993   0.00000  Uiso   1.00
C649   C     0.07007   0.68000   0.75006   0.00000  Uiso   1.00
C650   C     0.42993   0.81999   0.24993   0.00000  Uiso   1.00
C651   C     0.13602   0.89101   0.21469   0.00000  Uiso   1.00
C652   C     0.36398   0.60898   0.78531   0.00000  Uiso   1.00
C653   C     0.10945   0.63676   0.21473   0.00000  Uiso   1.00
C654   C     0.39053   0.86322   0.78527   0.00000  Uiso   1.00
C655   C     0.36330   0.60939   0.21474   0.00000  Uiso   1.00
C656   C     0.48777   0.78070   0.04157   0.00000  Uiso   1.00
C657   C     0.13677   0.89054   0.78527   0.00000  Uiso   1.00
C658   C     0.39101   0.86397   0.21469   0.00000  Uiso   1.00
C659   C     0.10901   0.63605   0.78531   0.00000  Uiso   1.00
C660   C     0.13680   0.60949   0.78527   0.00000  Uiso   1.00
C661   C     0.36322   0.89053   0.21473   0.00000  Uiso   1.00
C662   C     0.10898   0.86398   0.78530   0.00000  Uiso   1.00
C663   C     0.39109   0.63595   0.21471   0.00000  Uiso   1.00
C664   C     0.36397   0.89100   0.78531   0.00000  Uiso   1.00
C665   C     0.13602   0.60898   0.21469   0.00000  Uiso   1.00
C666   C     0.39055   0.63676   0.78527   0.00000  Uiso   1.00
C667   C     0.48776   0.71930   0.95842   0.00000  Uiso   1.00
C668   C     0.10946   0.86323   0.21473   0.00000  Uiso   1.00
C669   C     0.38602   0.64102   0.71469   0.00000  Uiso   1.00
C670   C     0.11398   0.85899   0.28530   0.00000  Uiso   1.00
C671   C     0.35947   0.88678   0.71473   0.00000  Uiso   1.00
C672   C     0.14055   0.61324   0.28527   0.00000  Uiso   1.00
C673   C     0.11323   0.85946   0.71473   0.00000  Uiso   1.00
C674   C     0.38670   0.64061   0.28526   0.00000  Uiso   1.00
C675   C     0.14099   0.61395   0.71469   0.00000  Uiso   1.00
C676   C     0.35899   0.88603   0.28531   0.00000  Uiso   1.00
C677   C     0.38678   0.85947   0.28527   0.00000  Uiso   1.00
C678   C     0.46929   0.73778   0.54157   0.00000  Uiso   1.00
C679   C     0.11321   0.64052   0.71473   0.00000  Uiso   1.00
C680   C     0.35891   0.61406   0.28529   0.00000  Uiso   1.00
C681   C     0.14102   0.88602   0.71469   0.00000  Uiso   1.00
C682   C     0.11398   0.64102   0.28531   0.00000  Uiso   1.00
C683   C     0.38603   0.85900   0.71469   0.00000  Uiso   1.00
C684   C     0.14054   0.88677   0.28527   0.00000  Uiso   1.00
C685   C     0.35945   0.61324   0.71473   0.00000  Uiso   1.00
C686   C     0.09799   0.84828   0.25012   0.00000  Uiso   1.00
C687   C     0.40201   0.65172   0.74988   0.00000  Uiso   1.00
C688   C     0.15201   0.59828   0.24988   0.00000  Uiso   1.00
F689   F     0.18917   0.52495   0.10045   0.00000  Uiso   1.00
F690   F     0.06083   0.72505   0.39955   0.00000  Uiso   1.00
F691   F     0.22504   0.93917   0.60046   0.00000  Uiso   1.00
F692   F     0.22503   0.56082   0.39952   0.00000  Uiso   1.00
F693   F     0.06081   0.77498   0.60049   0.00000  Uiso   1.00
F694   F     0.43919   0.77498   0.39951   0.00000  Uiso   1.00
F695   F     0.27497   0.56082   0.60048   0.00000  Uiso   1.00
F696   F     0.27496   0.93917   0.39954   0.00000  Uiso   1.00
F697   F     0.31083   0.52495   0.89955   0.00000  Uiso   1.00
F698   F     0.02497   0.68918   0.10047   0.00000  Uiso   1.00
F699   F     0.02496   0.81083   0.89954   0.00000  Uiso   1.00
F700   F     0.31081   0.97502   0.10049   0.00000  Uiso   1.00
F701   F     0.18919   0.97502   0.89951   0.00000  Uiso   1.00
F702   F     0.47504   0.81083   0.10046   0.00000  Uiso   1.00
F703   F     0.47503   0.68918   0.89952   0.00000  Uiso   1.00
F704   F     0.43917   0.72505   0.60045   0.00000  Uiso   1.00
H705   H     0.19554   0.52230   0.02629   0.00000  Uiso   1.00
H706   H     0.05446   0.72770   0.47371   0.00000  Uiso   1.00
H707   H     0.22769   0.94555   0.52630   0.00000  Uiso   1.00
H708   H     0.22769   0.55445   0.47369   0.00000  Uiso   1.00
H709   H     0.05445   0.77232   0.52632   0.00000  Uiso   1.00
H710   H     0.44555   0.77232   0.47368   0.00000  Uiso   1.00
H711   H     0.27231   0.55445   0.52631   0.00000  Uiso   1.00
H712   H     0.27231   0.94555   0.47370   0.00000  Uiso   1.00
H713   H     0.12623   0.90833   0.16262   0.00000  Uiso   1.00
H714   H     0.37377   0.59164   0.83737   0.00000  Uiso   1.00
H715   H     0.11406   0.64873   0.16010   0.00000  Uiso   1.00
H716   H     0.30446   0.52230   0.97371   0.00000  Uiso   1.00
H717   H     0.38587   0.85120   0.83988   0.00000  Uiso   1.00
H718   H     0.35150   0.61389   0.16004   0.00000  Uiso   1.00
H719   H     0.14875   0.88593   0.83990   0.00000  Uiso   1.00
H720   H     0.40831   0.87373   0.16261   0.00000  Uiso   1.00
H721   H     0.09174   0.62630   0.83739   0.00000  Uiso   1.00
H722   H     0.14883   0.61416   0.83987   0.00000  Uiso   1.00
H723   H     0.35123   0.88590   0.16010   0.00000  Uiso   1.00
H724   H     0.09166   0.87376   0.83737   0.00000  Uiso   1.00
H725   H     0.40860   0.62601   0.16276   0.00000  Uiso   1.00
H726   H     0.37374   0.90830   0.83739   0.00000  Uiso   1.00
H727   H     0.02231   0.69555   0.02631   0.00000  Uiso   1.00
H728   H     0.12623   0.59165   0.16263   0.00000  Uiso   1.00
H729   H     0.38595   0.64872   0.83990   0.00000  Uiso   1.00
H730   H     0.11410   0.85123   0.16011   0.00000  Uiso   1.00
H731   H     0.37624   0.65834   0.66262   0.00000  Uiso   1.00
H732   H     0.12377   0.84167   0.33738   0.00000  Uiso   1.00
H733   H     0.36413   0.89879   0.66012   0.00000  Uiso   1.00
H734   H     0.13594   0.60126   0.33990   0.00000  Uiso   1.00
H735   H     0.10125   0.86408   0.66010   0.00000  Uiso   1.00
H736   H     0.39840   0.63619   0.33999   0.00000  Uiso   1.00
H737   H     0.15828   0.62371   0.66261   0.00000  Uiso   1.00
H738   H     0.02231   0.80445   0.97370   0.00000  Uiso   1.00
H739   H     0.34169   0.87627   0.33738   0.00000  Uiso   1.00
H740   H     0.39877   0.86410   0.33989   0.00000  Uiso   1.00
H741   H     0.10118   0.63584   0.66012   0.00000  Uiso   1.00
H742   H     0.34131   0.62402   0.33719   0.00000  Uiso   1.00
H743   H     0.15834   0.87624   0.66263   0.00000  Uiso   1.00
H744   H     0.12377   0.65835   0.33738   0.00000  Uiso   1.00
H745   H     0.37626   0.84169   0.66262   0.00000  Uiso   1.00
H746   H     0.13589   0.89877   0.33988   0.00000  Uiso   1.00
H747   H     0.36406   0.60126   0.66010   0.00000  Uiso   1.00
H748   H     0.30445   0.97768   0.02632   0.00000  Uiso   1.00
H749   H     0.19555   0.97768   0.97368   0.00000  Uiso   1.00
H750   H     0.47769   0.80445   0.02630   0.00000  Uiso   1.00
H751   H     0.47769   0.69555   0.97369   0.00000  Uiso   1.00
H752   H     0.44554   0.72770   0.52629   0.00000  Uiso   1.00
O753   O     0.25000   0.50000   0.25000   0.00000  Uiso   1.00
O754   O     0.25000   0.96964   0.66317   0.00000  Uiso   1.00
O755   O     0.46964   0.75000   0.33683   0.00000  Uiso   1.00
O756   O     0.03036   0.75000   0.66317   0.00000  Uiso   1.00
O757   O     0.00000   0.71964   0.83683   0.00000  Uiso   1.00
O758   O     0.00000   0.78036   0.16317   0.00000  Uiso   1.00
O759   O     0.28036   0.50000   0.83683   0.00000  Uiso   1.00
O760   O     0.21964   0.50000   0.16317   0.00000  Uiso   1.00
O761   O     0.00000   0.78036   0.83683   0.00000  Uiso   1.00
O762   O     0.00000   0.71964   0.16317   0.00000  Uiso   1.00
O763   O     0.21964   0.50000   0.83683   0.00000  Uiso   1.00
O764   O     0.25000   0.50000   0.75000   0.00000  Uiso   1.00
O765   O     0.28036   0.50000   0.16317   0.00000  Uiso   1.00
O766   O     0.20726   0.57307   0.27282   0.00000  Uiso   1.00
O767   O     0.29275   0.92693   0.72718   0.00000  Uiso   1.00
O768   O     0.42693   0.70725   0.27282   0.00000  Uiso   1.00
O769   O     0.07307   0.79274   0.72718   0.00000  Uiso   1.00
O770   O     0.29275   0.92693   0.27282   0.00000  Uiso   1.00
O771   O     0.20726   0.57307   0.72718   0.00000  Uiso   1.00
O772   O     0.07307   0.79274   0.27282   0.00000  Uiso   1.00
O773   O     0.42693   0.70725   0.72718   0.00000  Uiso   1.00
O774   O     0.20726   0.92693   0.72718   0.00000  Uiso   1.00
O775   O     0.00000   0.75000   0.25000   0.00000  Uiso   1.00
O776   O     0.29275   0.57307   0.27282   0.00000  Uiso   1.00
O777   O     0.42693   0.79274   0.72718   0.00000  Uiso   1.00
O778   O     0.07307   0.70725   0.27282   0.00000  Uiso   1.00
O779   O     0.29275   0.57307   0.72718   0.00000  Uiso   1.00
O780   O     0.20726   0.92693   0.27282   0.00000  Uiso   1.00
O781   O     0.07307   0.70725   0.72718   0.00000  Uiso   1.00
O782   O     0.42693   0.79274   0.27282   0.00000  Uiso   1.00
O783   O     0.45726   0.82307   0.77282   0.00000  Uiso   1.00
O784   O     0.04275   0.67693   0.22718   0.00000  Uiso   1.00
O785   O     0.17693   0.95725   0.77282   0.00000  Uiso   1.00
O786   O     0.00000   0.75000   0.75000   0.00000  Uiso   1.00
O787   O     0.32307   0.54275   0.22718   0.00000  Uiso   1.00
O788   O     0.04275   0.67693   0.77282   0.00000  Uiso   1.00
O789   O     0.45726   0.82307   0.22718   0.00000  Uiso   1.00
O790   O     0.32307   0.54275   0.77282   0.00000  Uiso   1.00
O791   O     0.17693   0.95725   0.22718   0.00000  Uiso   1.00
O792   O     0.45726   0.67693   0.22718   0.00000  Uiso   1.00
O793   O     0.04275   0.82307   0.77282   0.00000  Uiso   1.00
O794   O     0.17693   0.54275   0.22718   0.00000  Uiso   1.00
O795   O     0.32307   0.95725   0.77282   0.00000  Uiso   1.00
O796   O     0.04275   0.82307   0.22718   0.00000  Uiso   1.00
O797   O     0.25000   0.96964   0.33683   0.00000  Uiso   1.00
O798   O     0.45726   0.67693   0.77282   0.00000  Uiso   1.00
O799   O     0.32307   0.95725   0.22718   0.00000  Uiso   1.00
O800   O     0.17693   0.54275   0.77282   0.00000  Uiso   1.00
O801   O     0.14701   0.90794   0.18093   0.00000  Uiso   1.00
O802   O     0.35299   0.59205   0.81907   0.00000  Uiso   1.00
O803   O     0.09555   0.65112   0.18080   0.00000  Uiso   1.00
O804   O     0.40440   0.84883   0.81920   0.00000  Uiso   1.00
O805   O     0.34898   0.59545   0.18081   0.00000  Uiso   1.00
O806   O     0.15113   0.90444   0.81920   0.00000  Uiso   1.00
O807   O     0.40792   0.85296   0.18093   0.00000  Uiso   1.00
O808   O     0.25000   0.53036   0.66317   0.00000  Uiso   1.00
O809   O     0.09210   0.64706   0.81907   0.00000  Uiso   1.00
O810   O     0.15120   0.59563   0.81920   0.00000  Uiso   1.00
O811   O     0.34884   0.90442   0.18080   0.00000  Uiso   1.00
O812   O     0.09206   0.85298   0.81906   0.00000  Uiso   1.00
O813   O     0.40807   0.64687   0.18096   0.00000  Uiso   1.00
O814   O     0.35297   0.90792   0.81907   0.00000  Uiso   1.00
O815   O     0.14701   0.59205   0.18093   0.00000  Uiso   1.00
O816   O     0.40444   0.65113   0.81920   0.00000  Uiso   1.00
O817   O     0.09558   0.84885   0.18080   0.00000  Uiso   1.00
O818   O     0.39701   0.65795   0.68093   0.00000  Uiso   1.00
O819   O     0.03036   0.75000   0.33683   0.00000  Uiso   1.00
O820   O     0.10299   0.84206   0.31906   0.00000  Uiso   1.00
O821   O     0.34560   0.90117   0.68080   0.00000  Uiso   1.00
O822   O     0.15445   0.59888   0.31920   0.00000  Uiso   1.00
O823   O     0.09887   0.84556   0.68080   0.00000  Uiso   1.00
O824   O     0.40101   0.65456   0.31919   0.00000  Uiso   1.00
O825   O     0.15790   0.60294   0.68093   0.00000  Uiso   1.00
O826   O     0.34208   0.89704   0.31907   0.00000  Uiso   1.00
O827   O     0.40115   0.84558   0.31920   0.00000  Uiso   1.00
O828   O     0.09881   0.65437   0.68080   0.00000  Uiso   1.00
O829   O     0.34192   0.60313   0.31904   0.00000  Uiso   1.00
O830   O     0.46964   0.75000   0.66317   0.00000  Uiso   1.00
O831   O     0.15794   0.89702   0.68093   0.00000  Uiso   1.00
O832   O     0.10299   0.65795   0.31907   0.00000  Uiso   1.00
O833   O     0.39703   0.84208   0.68093   0.00000  Uiso   1.00
O834   O     0.15442   0.90115   0.31920   0.00000  Uiso   1.00
O835   O     0.34556   0.59887   0.68080   0.00000  Uiso   1.00
O836   O     0.25000   0.53036   0.33683   0.00000  Uiso   1.00
Zn837  Zn    0.20660   0.50000   0.21760   0.00000  Uiso   1.00
Zn838  Zn    0.04340   0.75000   0.28240   0.00000  Uiso   1.00
Zn839  Zn    0.25000   0.95660   0.71760   0.00000  Uiso   1.00
Zn840  Zn    0.25000   0.54340   0.28240   0.00000  Uiso   1.00
Zn841  Zn    0.04340   0.75000   0.71760   0.00000  Uiso   1.00
Zn842  Zn    0.45660   0.75000   0.28240   0.00000  Uiso   1.00
Zn843  Zn    0.25000   0.54340   0.71760   0.00000  Uiso   1.00
Zn844  Zn    0.25000   0.95660   0.28240   0.00000  Uiso   1.00
Zn845  Zn    0.29340   0.50000   0.78240   0.00000  Uiso   1.00
Zn846  Zn    0.00000   0.70660   0.21760   0.00000  Uiso   1.00
Zn847  Zn    0.00000   0.79340   0.78240   0.00000  Uiso   1.00
Zn848  Zn    0.29340   0.50000   0.21760   0.00000  Uiso   1.00
Zn849  Zn    0.20660   0.50000   0.78240   0.00000  Uiso   1.00
Zn850  Zn    0.00000   0.79340   0.21760   0.00000  Uiso   1.00
Zn851  Zn    0.00000   0.70660   0.78240   0.00000  Uiso   1.00
Zn852  Zn    0.45660   0.75000   0.71760   0.00000  Uiso   1.00
C853   C     0.71929   0.51223   0.04157   0.00000  Uiso   1.00
C854   C     0.53071   0.73777   0.45843   0.00000  Uiso   1.00
C855   C     0.84799   0.90172   0.75012   0.00000  Uiso   1.00
C856   C     0.90173   0.65201   0.24988   0.00000  Uiso   1.00
C857   C     0.59828   0.84799   0.75012   0.00000  Uiso   1.00
C858   C     0.84828   0.90201   0.25012   0.00000  Uiso   1.00
C859   C     0.65172   0.59799   0.74988   0.00000  Uiso   1.00
C860   C     0.59828   0.65201   0.75012   0.00000  Uiso   1.00
C861   C     0.90172   0.84799   0.24988   0.00000  Uiso   1.00
C862   C     0.65172   0.90201   0.74988   0.00000  Uiso   1.00
C863   C     0.84827   0.59799   0.25012   0.00000  Uiso   1.00
C864   C     0.90201   0.84828   0.74988   0.00000  Uiso   1.00
C865   C     0.73777   0.96929   0.54157   0.00000  Uiso   1.00
C866   C     0.59799   0.65172   0.25012   0.00000  Uiso   1.00
C867   C     0.84799   0.59828   0.75012   0.00000  Uiso   1.00
C868   C     0.65201   0.90172   0.24988   0.00000  Uiso   1.00
C869   C     0.74999   0.99999   0.10231   0.00000  Uiso   1.00
C870   C     0.75001   0.99999   0.89768   0.00000  Uiso   1.00
C871   C     0.50000   0.75000   0.10231   0.00000  Uiso   1.00
C872   C     0.50000   0.75000   0.89768   0.00000  Uiso   1.00
C873   C     0.99999   0.75001   0.60231   0.00000  Uiso   1.00
C874   C     0.50001   0.75001   0.39768   0.00000  Uiso   1.00
C875   C     0.75000   0.50000   0.60231   0.00000  Uiso   1.00
C876   C     0.73776   0.53070   0.45842   0.00000  Uiso   1.00
C877   C     0.75000   0.50000   0.39768   0.00000  Uiso   1.00
C878   C     0.53070   0.76224   0.54159   0.00000  Uiso   1.00
C879   C     0.96930   0.76224   0.45841   0.00000  Uiso   1.00
C880   C     0.76224   0.53070   0.54158   0.00000  Uiso   1.00
C881   C     0.76223   0.96929   0.45842   0.00000  Uiso   1.00
C882   C     0.71916   0.51222   0.08179   0.00000  Uiso   1.00
C883   C     0.78084   0.51222   0.91821   0.00000  Uiso   1.00
C884   C     0.51224   0.71917   0.08180   0.00000  Uiso   1.00
C885   C     0.78071   0.51222   0.95843   0.00000  Uiso   1.00
C886   C     0.51223   0.78083   0.91821   0.00000  Uiso   1.00
C887   C     0.78082   0.98775   0.08181   0.00000  Uiso   1.00
C888   C     0.71918   0.98775   0.91819   0.00000  Uiso   1.00
C889   C     0.98777   0.78083   0.08179   0.00000  Uiso   1.00
C890   C     0.98776   0.71917   0.91820   0.00000  Uiso   1.00
C891   C     0.96916   0.73778   0.58179   0.00000  Uiso   1.00
C892   C     0.53084   0.73778   0.41821   0.00000  Uiso   1.00
C893   C     0.73777   0.96917   0.58179   0.00000  Uiso   1.00
C894   C     0.73776   0.53083   0.41820   0.00000  Uiso   1.00
C895   C     0.53082   0.76225   0.58181   0.00000  Uiso   1.00
C896   C     0.51224   0.71930   0.04158   0.00000  Uiso   1.00
C897   C     0.96918   0.76225   0.41819   0.00000  Uiso   1.00
C898   C     0.76224   0.53083   0.58180   0.00000  Uiso   1.00
C899   C     0.76223   0.96917   0.41820   0.00000  Uiso   1.00
C900   C     0.75000   0.99999   0.02123   0.00000  Uiso   1.00
C901   C     0.75000   0.99999   0.97877   0.00000  Uiso   1.00
C902   C     0.50000   0.75000   0.02123   0.00000  Uiso   1.00
C903   C     0.50000   0.75000   0.97877   0.00000  Uiso   1.00
C904   C     0.50000   0.75001   0.52123   0.00000  Uiso   1.00
C905   C     0.50000   0.75001   0.47877   0.00000  Uiso   1.00
C906   C     0.75000   0.50000   0.52123   0.00000  Uiso   1.00
C907   C     0.51223   0.78070   0.95843   0.00000  Uiso   1.00
C908   C     0.75000   0.50000   0.47877   0.00000  Uiso   1.00
C909   C     0.75000   0.50000   0.35525   0.00000  Uiso   1.00
C910   C     0.75000   0.50000   0.64475   0.00000  Uiso   1.00
C911   C     0.50000   0.75000   0.35525   0.00000  Uiso   1.00
C912   C     0.50000   0.75000   0.64475   0.00000  Uiso   1.00
C913   C     0.50000   0.75000   0.85525   0.00000  Uiso   1.00
C914   C     0.50000   0.75000   0.14475   0.00000  Uiso   1.00
C915   C     0.75000   0.50000   0.85525   0.00000  Uiso   1.00
C916   C     0.75000   0.50000   0.14475   0.00000  Uiso   1.00
C917   C     0.68000   0.57007   0.24993   0.00000  Uiso   1.00
C918   C     0.78070   0.98776   0.04159   0.00000  Uiso   1.00
C919   C     0.82000   0.92993   0.75006   0.00000  Uiso   1.00
C920   C     0.92993   0.68000   0.24994   0.00000  Uiso   1.00
C921   C     0.57007   0.81999   0.75006   0.00000  Uiso   1.00
C922   C     0.82007   0.93000   0.25006   0.00000  Uiso   1.00
C923   C     0.67993   0.57000   0.74993   0.00000  Uiso   1.00
C924   C     0.57000   0.82007   0.25006   0.00000  Uiso   1.00
C925   C     0.93000   0.67993   0.74993   0.00000  Uiso   1.00
C926   C     0.67993   0.93000   0.74993   0.00000  Uiso   1.00
C927   C     0.82007   0.57000   0.25006   0.00000  Uiso   1.00
C928   C     0.93000   0.82007   0.74993   0.00000  Uiso   1.00
C929   C     0.71930   0.98776   0.95841   0.00000  Uiso   1.00
C930   C     0.57000   0.67993   0.25006   0.00000  Uiso   1.00
C931   C     0.82000   0.57007   0.75006   0.00000  Uiso   1.00
C932   C     0.68000   0.92993   0.24993   0.00000  Uiso   1.00
C933   C     0.57007   0.68000   0.75006   0.00000  Uiso   1.00
C934   C     0.92993   0.81999   0.24993   0.00000  Uiso   1.00
C935   C     0.63602   0.89101   0.21469   0.00000  Uiso   1.00
C936   C     0.86398   0.60898   0.78531   0.00000  Uiso   1.00
C937   C     0.60945   0.63676   0.21473   0.00000  Uiso   1.00
C938   C     0.89053   0.86322   0.78527   0.00000  Uiso   1.00
C939   C     0.86330   0.60939   0.21474   0.00000  Uiso   1.00
C940   C     0.98777   0.78070   0.04157   0.00000  Uiso   1.00
C941   C     0.63677   0.89054   0.78527   0.00000  Uiso   1.00
C942   C     0.89101   0.86397   0.21469   0.00000  Uiso   1.00
C943   C     0.60901   0.63605   0.78531   0.00000  Uiso   1.00
C944   C     0.63680   0.60949   0.78527   0.00000  Uiso   1.00
C945   C     0.86322   0.89053   0.21473   0.00000  Uiso   1.00
C946   C     0.60898   0.86398   0.78530   0.00000  Uiso   1.00
C947   C     0.89109   0.63595   0.21471   0.00000  Uiso   1.00
C948   C     0.86397   0.89100   0.78531   0.00000  Uiso   1.00
C949   C     0.63602   0.60898   0.21469   0.00000  Uiso   1.00
C950   C     0.89055   0.63676   0.78527   0.00000  Uiso   1.00
C951   C     0.98776   0.71930   0.95842   0.00000  Uiso   1.00
C952   C     0.60946   0.86323   0.21473   0.00000  Uiso   1.00
C953   C     0.88602   0.64102   0.71469   0.00000  Uiso   1.00
C954   C     0.61398   0.85899   0.28530   0.00000  Uiso   1.00
C955   C     0.85947   0.88678   0.71473   0.00000  Uiso   1.00
C956   C     0.64055   0.61324   0.28527   0.00000  Uiso   1.00
C957   C     0.61323   0.85946   0.71473   0.00000  Uiso   1.00
C958   C     0.88670   0.64061   0.28526   0.00000  Uiso   1.00
C959   C     0.64099   0.61395   0.71469   0.00000  Uiso   1.00
C960   C     0.85899   0.88603   0.28531   0.00000  Uiso   1.00
C961   C     0.88678   0.85947   0.28527   0.00000  Uiso   1.00
C962   C     0.96929   0.73778   0.54157   0.00000  Uiso   1.00
C963   C     0.61321   0.64052   0.71473   0.00000  Uiso   1.00
C964   C     0.85891   0.61406   0.28529   0.00000  Uiso   1.00
C965   C     0.64102   0.88602   0.71469   0.00000  Uiso   1.00
C966   C     0.61398   0.64102   0.28531   0.00000  Uiso   1.00
C967   C     0.88603   0.85900   0.71469   0.00000  Uiso   1.00
C968   C     0.64054   0.88677   0.28527   0.00000  Uiso   1.00
C969   C     0.85945   0.61324   0.71473   0.00000  Uiso   1.00
C970   C     0.59799   0.84828   0.25012   0.00000  Uiso   1.00
C971   C     0.90201   0.65172   0.74988   0.00000  Uiso   1.00
C972   C     0.65201   0.59828   0.24988   0.00000  Uiso   1.00
F973   F     0.68917   0.52495   0.10045   0.00000  Uiso   1.00
F974   F     0.56083   0.72505   0.39955   0.00000  Uiso   1.00
F975   F     0.72504   0.93917   0.60046   0.00000  Uiso   1.00
F976   F     0.72503   0.56082   0.39952   0.00000  Uiso   1.00
F977   F     0.56081   0.77498   0.60049   0.00000  Uiso   1.00
F978   F     0.93919   0.77498   0.39951   0.00000  Uiso   1.00
F979   F     0.77497   0.56082   0.60048   0.00000  Uiso   1.00
F980   F     0.77496   0.93917   0.39954   0.00000  Uiso   1.00
F981   F     0.81083   0.52495   0.89955   0.00000  Uiso   1.00
F982   F     0.52497   0.68918   0.10047   0.00000  Uiso   1.00
F983   F     0.52496   0.81083   0.89954   0.00000  Uiso   1.00
F984   F     0.81081   0.97502   0.10049   0.00000  Uiso   1.00
F985   F     0.68919   0.97502   0.89951   0.00000  Uiso   1.00
F986   F     0.97504   0.81083   0.10046   0.00000  Uiso   1.00
F987   F     0.97503   0.68918   0.89952   0.00000  Uiso   1.00
F988   F     0.93917   0.72505   0.60045   0.00000  Uiso   1.00
H989   H     0.69554   0.52230   0.02629   0.00000  Uiso   1.00
H990   H     0.55446   0.72770   0.47371   0.00000  Uiso   1.00
H991   H     0.72769   0.94555   0.52630   0.00000  Uiso   1.00
H992   H     0.72769   0.55445   0.47369   0.00000  Uiso   1.00
H993   H     0.55445   0.77232   0.52632   0.00000  Uiso   1.00
H994   H     0.94555   0.77232   0.47368   0.00000  Uiso   1.00
H995   H     0.77231   0.55445   0.52631   0.00000  Uiso   1.00
H996   H     0.77231   0.94555   0.47370   0.00000  Uiso   1.00
H997   H     0.62623   0.90833   0.16262   0.00000  Uiso   1.00
H998   H     0.87377   0.59164   0.83737   0.00000  Uiso   1.00
H999   H     0.61406   0.64873   0.16010   0.00000  Uiso   1.00
H1000  H     0.80446   0.52230   0.97371   0.00000  Uiso   1.00
H1001  H     0.88587   0.85120   0.83988   0.00000  Uiso   1.00
H1002  H     0.85150   0.61389   0.16004   0.00000  Uiso   1.00
H1003  H     0.64875   0.88593   0.83990   0.00000  Uiso   1.00
H1004  H     0.90831   0.87373   0.16261   0.00000  Uiso   1.00
H1005  H     0.59174   0.62630   0.83739   0.00000  Uiso   1.00
H1006  H     0.64883   0.61416   0.83987   0.00000  Uiso   1.00
H1007  H     0.85123   0.88590   0.16010   0.00000  Uiso   1.00
H1008  H     0.59166   0.87376   0.83737   0.00000  Uiso   1.00
H1009  H     0.90860   0.62601   0.16276   0.00000  Uiso   1.00
H1010  H     0.87374   0.90830   0.83739   0.00000  Uiso   1.00
H1011  H     0.52231   0.69555   0.02631   0.00000  Uiso   1.00
H1012  H     0.62623   0.59165   0.16263   0.00000  Uiso   1.00
H1013  H     0.88595   0.64872   0.83990   0.00000  Uiso   1.00
H1014  H     0.61410   0.85123   0.16011   0.00000  Uiso   1.00
H1015  H     0.87624   0.65834   0.66262   0.00000  Uiso   1.00
H1016  H     0.62377   0.84167   0.33738   0.00000  Uiso   1.00
H1017  H     0.86413   0.89879   0.66012   0.00000  Uiso   1.00
H1018  H     0.63594   0.60126   0.33990   0.00000  Uiso   1.00
H1019  H     0.60125   0.86408   0.66010   0.00000  Uiso   1.00
H1020  H     0.89840   0.63619   0.33999   0.00000  Uiso   1.00
H1021  H     0.65828   0.62371   0.66261   0.00000  Uiso   1.00
H1022  H     0.52231   0.80445   0.97370   0.00000  Uiso   1.00
H1023  H     0.84169   0.87627   0.33738   0.00000  Uiso   1.00
H1024  H     0.89877   0.86410   0.33989   0.00000  Uiso   1.00
H1025  H     0.60118   0.63584   0.66012   0.00000  Uiso   1.00
H1026  H     0.84131   0.62402   0.33719   0.00000  Uiso   1.00
H1027  H     0.65834   0.87624   0.66263   0.00000  Uiso   1.00
H1028  H     0.62377   0.65835   0.33738   0.00000  Uiso   1.00
H1029  H     0.87626   0.84169   0.66262   0.00000  Uiso   1.00
H1030  H     0.63589   0.89877   0.33988   0.00000  Uiso   1.00
H1031  H     0.86406   0.60126   0.66010   0.00000  Uiso   1.00
H1032  H     0.80445   0.97768   0.02632   0.00000  Uiso   1.00
H1033  H     0.69555   0.97768   0.97368   0.00000  Uiso   1.00
H1034  H     0.97769   0.80445   0.02630   0.00000  Uiso   1.00
H1035  H     0.97769   0.69555   0.97369   0.00000  Uiso   1.00
H1036  H     0.94554   0.72770   0.52629   0.00000  Uiso   1.00
O1037  O     0.75000   0.50000   0.25000   0.00000  Uiso   1.00
O1038  O     0.75000   0.96964   0.66317   0.00000  Uiso   1.00
O1039  O     0.96964   0.75000   0.33683   0.00000  Uiso   1.00
O1040  O     0.53036   0.75000   0.66317   0.00000  Uiso   1.00
O1041  O     0.50000   0.71964   0.83683   0.00000  Uiso   1.00
O1042  O     0.50000   0.78036   0.16317   0.00000  Uiso   1.00
O1043  O     0.78036   0.50000   0.83683   0.00000  Uiso   1.00
O1044  O     0.71964   0.50000   0.16317   0.00000  Uiso   1.00
O1045  O     0.50000   0.78036   0.83683   0.00000  Uiso   1.00
O1046  O     0.50000   0.71964   0.16317   0.00000  Uiso   1.00
O1047  O     0.71964   0.50000   0.83683   0.00000  Uiso   1.00
O1048  O     0.75000   0.50000   0.75000   0.00000  Uiso   1.00
O1049  O     0.78036   0.50000   0.16317   0.00000  Uiso   1.00
O1050  O     0.70726   0.57307   0.27282   0.00000  Uiso   1.00
O1051  O     0.79275   0.92693   0.72718   0.00000  Uiso   1.00
O1052  O     0.92693   0.70725   0.27282   0.00000  Uiso   1.00
O1053  O     0.57307   0.79274   0.72718   0.00000  Uiso   1.00
O1054  O     0.79275   0.92693   0.27282   0.00000  Uiso   1.00
O1055  O     0.70726   0.57307   0.72718   0.00000  Uiso   1.00
O1056  O     0.57307   0.79274   0.27282   0.00000  Uiso   1.00
O1057  O     0.92693   0.70725   0.72718   0.00000  Uiso   1.00
O1058  O     0.70726   0.92693   0.72718   0.00000  Uiso   1.00
O1059  O     0.50000   0.75000   0.25000   0.00000  Uiso   1.00
O1060  O     0.79275   0.57307   0.27282   0.00000  Uiso   1.00
O1061  O     0.92693   0.79274   0.72718   0.00000  Uiso   1.00
O1062  O     0.57307   0.70725   0.27282   0.00000  Uiso   1.00
O1063  O     0.79275   0.57307   0.72718   0.00000  Uiso   1.00
O1064  O     0.70726   0.92693   0.27282   0.00000  Uiso   1.00
O1065  O     0.57307   0.70725   0.72718   0.00000  Uiso   1.00
O1066  O     0.92693   0.79274   0.27282   0.00000  Uiso   1.00
O1067  O     0.95726   0.82307   0.77282   0.00000  Uiso   1.00
O1068  O     0.54275   0.67693   0.22718   0.00000  Uiso   1.00
O1069  O     0.67693   0.95725   0.77282   0.00000  Uiso   1.00
O1070  O     0.50000   0.75000   0.75000   0.00000  Uiso   1.00
O1071  O     0.82307   0.54275   0.22718   0.00000  Uiso   1.00
O1072  O     0.54275   0.67693   0.77282   0.00000  Uiso   1.00
O1073  O     0.95726   0.82307   0.22718   0.00000  Uiso   1.00
O1074  O     0.82307   0.54275   0.77282   0.00000  Uiso   1.00
O1075  O     0.67693   0.95725   0.22718   0.00000  Uiso   1.00
O1076  O     0.95726   0.67693   0.22718   0.00000  Uiso   1.00
O1077  O     0.54275   0.82307   0.77282   0.00000  Uiso   1.00
O1078  O     0.67693   0.54275   0.22718   0.00000  Uiso   1.00
O1079  O     0.82307   0.95725   0.77282   0.00000  Uiso   1.00
O1080  O     0.54275   0.82307   0.22718   0.00000  Uiso   1.00
O1081  O     0.75000   0.96964   0.33683   0.00000  Uiso   1.00
O1082  O     0.95726   0.67693   0.77282   0.00000  Uiso   1.00
O1083  O     0.82307   0.95725   0.22718   0.00000  Uiso   1.00
O1084  O     0.67693   0.54275   0.77282   0.00000  Uiso   1.00
O1085  O     0.64701   0.90794   0.18093   0.00000  Uiso   1.00
O1086  O     0.85299   0.59205   0.81907   0.00000  Uiso   1.00
O1087  O     0.59555   0.65112   0.18080   0.00000  Uiso   1.00
O1088  O     0.90440   0.84883   0.81920   0.00000  Uiso   1.00
O1089  O     0.84898   0.59545   0.18081   0.00000  Uiso   1.00
O1090  O     0.65113   0.90444   0.81920   0.00000  Uiso   1.00
O1091  O     0.90792   0.85296   0.18093   0.00000  Uiso   1.00
O1092  O     0.75000   0.53036   0.66317   0.00000  Uiso   1.00
O1093  O     0.59210   0.64706   0.81907   0.00000  Uiso   1.00
O1094  O     0.65120   0.59563   0.81920   0.00000  Uiso   1.00
O1095  O     0.84884   0.90442   0.18080   0.00000  Uiso   1.00
O1096  O     0.59206   0.85298   0.81906   0.00000  Uiso   1.00
O1097  O     0.90807   0.64687   0.18096   0.00000  Uiso   1.00
O1098  O     0.85297   0.90792   0.81907   0.00000  Uiso   1.00
O1099  O     0.64701   0.59205   0.18093   0.00000  Uiso   1.00
O1100  O     0.90444   0.65113   0.81920   0.00000  Uiso   1.00
O1101  O     0.59558   0.84885   0.18080   0.00000  Uiso   1.00
O1102  O     0.89701   0.65795   0.68093   0.00000  Uiso   1.00
O1103  O     0.53036   0.75000   0.33683   0.00000  Uiso   1.00
O1104  O     0.60299   0.84206   0.31906   0.00000  Uiso   1.00
O1105  O     0.84560   0.90117   0.68080   0.00000  Uiso   1.00
O1106  O     0.65445   0.59888   0.31920   0.00000  Uiso   1.00
O1107  O     0.59887   0.84556   0.68080   0.00000  Uiso   1.00
O1108  O     0.90101   0.65456   0.31919   0.00000  Uiso   1.00
O1109  O     0.65790   0.60294   0.68093   0.00000  Uiso   1.00
O1110  O     0.84208   0.89704   0.31907   0.00000  Uiso   1.00
O1111  O     0.90115   0.84558   0.31920   0.00000  Uiso   1.00
O1112  O     0.59881   0.65437   0.68080   0.00000  Uiso   1.00
O1113  O     0.84192   0.60313   0.31904   0.00000  Uiso   1.00
O1114  O     0.96964   0.75000   0.66317   0.00000  Uiso   1.00
O1115  O     0.65794   0.89702   0.68093   0.00000  Uiso   1.00
O1116  O     0.60299   0.65795   0.31907   0.00000  Uiso   1.00
O1117  O     0.89703   0.84208   0.68093   0.00000  Uiso   1.00
O1118  O     0.65442   0.90115   0.31920   0.00000  Uiso   1.00
O1119  O     0.84556   0.59887   0.68080   0.00000  Uiso   1.00
O1120  O     0.75000   0.53036   0.33683   0.00000  Uiso   1.00
Zn1121 Zn    0.70660   0.50000   0.21760   0.00000  Uiso   1.00
Zn1122 Zn    0.54340   0.75000   0.28240   0.00000  Uiso   1.00
Zn1123 Zn    0.75000   0.95660   0.71760   0.00000  Uiso   1.00
Zn1124 Zn    0.75000   0.54340   0.28240   0.00000  Uiso   1.00
Zn1125 Zn    0.54340   0.75000   0.71760   0.00000  Uiso   1.00
Zn1126 Zn    0.95660   0.75000   0.28240   0.00000  Uiso   1.00
Zn1127 Zn    0.75000   0.54340   0.71760   0.00000  Uiso   1.00
Zn1128 Zn    0.75000   0.95660   0.28240   0.00000  Uiso   1.00
Zn1129 Zn    0.79340   0.50000   0.78240   0.00000  Uiso   1.00
Zn1130 Zn    0.50000   0.70660   0.21760   0.00000  Uiso   1.00
Zn1131 Zn    0.50000   0.79340   0.78240   0.00000  Uiso   1.00
Zn1132 Zn    0.79340   0.50000   0.21760   0.00000  Uiso   1.00
Zn1133 Zn    0.70660   0.50000   0.78240   0.00000  Uiso   1.00
Zn1134 Zn    0.50000   0.79340   0.21760   0.00000  Uiso   1.00
Zn1135 Zn    0.50000   0.70660   0.78240   0.00000  Uiso   1.00
Zn1136 Zn    0.95660   0.75000   0.71760   0.00000  Uiso   1.00
loop_
_geom_bond_atom_site_label_1
_geom_bond_atom_site_label_2
_geom_bond_distance
_geom_bond_site_symmetry_2
_ccdc_geom_bond_type
C1     H137    1.083   .     S
C1     C30     1.391   .     A
C1     C616    1.401   1_545 S
C2     H138    1.083   .     S
C2     C53     1.401   .     A
C2     C40     1.391   .     A
C3     C103    1.406   .     A
C3     C96     1.406   .     A
C3     C67     1.457   .     S
C4     C68     1.457   .     S
C4     C106    1.406   .     A
C4     C95     1.406   .     A
C5     C94     1.406   .     A
C5     C69     1.457   .     S
C5     C105    1.406   .     A
C6     C108    1.406   .     A
C6     C93     1.406   .     A
C6     C70     1.457   .     S
C7     C71     1.457   .     S
C7     C107    1.406   .     A
C7     C92     1.406   .     A
C8     C81     1.457   .     S
C8     C111    1.406   .     A
C8     C91     1.406   .     A
C9     C90     1.406   .     A
C9     C109    1.406   .     A
C9     C82     1.457   .     S
C10    C89     1.406   .     A
C10    C74     1.457   .     S
C10    C113    1.406   .     A
C11    C87     1.406   .     A
C11    C112    1.406   .     A
C11    C75     1.457   .     S
C12    C115    1.406   .     A
C12    C76     1.457   .     S
C12    C86     1.406   .     A
C13    H139    1.083   .     S
C13    C41     1.391   .     A
C13    C622    1.401   .     A
C14    C114    1.406   .     A
C14    C85     1.406   .     A
C14    C78     1.457   .     S
C15    C79     1.457   .     S
C15    C117    1.406   .     A
C15    C84     1.406   .     A
C16    C116    1.406   .     A
C16    C83     1.406   .     A
C16    C80     1.457   .     S
C17    C35     1.408   .     A
C17    C632    1.468   .     S
C17    C598    1.408   .     S
C18    C631    1.468   .     S
C18    C36     1.408   .     A
C18    C599    1.408   .     S
C19    C62     1.468   .     S
C19    C32     1.408   .     A
C19    C321    1.408   1_455 S
C20    C61     1.468   .     S
C20    C322    1.408   1_455 A
C20    C34     1.408   .     S
C21    C39     1.408   .     A
C21    C344    1.468   .     S
C21    C327    1.408   .     S
C22    C40     1.408   .     A
C22    C59     1.468   .     S
C22    C329    1.408   1_455 S
C23    C58     1.468   .     S
C23    C609    1.408   1_545 A
C23    C46     1.408   .     S
C24    C42     1.391   .     A
C24    H140    1.083   .     S
C24    C56     1.401   .     S
C25    C57     1.468   .     S
C25    C615    1.408   1_545 A
C25    C42     1.408   .     S
C26    H141    1.083   .     S
C26    C43     1.391   .     A
C26    C52     1.401   .     S
C27    H142    1.083   .     S
C27    C45     1.391   .     A
C27    C337    1.401   .     S
C28    C46     1.391   .     A
C28    H143    1.083   .     S
C28    C54     1.401   .     S
C29    C47     1.391   .     A
C29    H144    1.083   .     S
C29    C624    1.401   .     A
C30    F121    1.358   .     S
C30    C585    1.408   1_545 S
C31    C33     1.391   .     A
C31    F129    1.358   .     S
C31    C586    1.408   1_545 S
C32    F130    1.358   .     S
C32    C44     1.391   .     A
C33    H148    1.083   .     S
C33    C617    1.401   1_545 S
C34    C55     1.391   .     A
C34    F131    1.358   .     S
C35    F132    1.358   .     S
C35    C66     1.391   .     A
C36    F133    1.358   .     S
C36    C77     1.391   .     A
C37    C88     1.391   .     A
C37    F134    1.358   .     S
C37    C303    1.408   .     S
C38    C304    1.408   .     A
C38    F135    1.358   .     S
C38    C99     1.391   .     A
C39    C110    1.391   .     A
C39    F136    1.358   .     S
C40    F122    1.358   .     S
C41    C591    1.408   .     A
C41    F123    1.358   .     S
C42    F124    1.358   .     S
C43    F125    1.358   .     S
C43    C305    1.408   1_455 S
C44    C50     1.401   .     A
C44    H159    1.083   .     S
C45    F126    1.358   .     S
C45    C306    1.408   .     S
C46    F127    1.358   .     S
C47    F128    1.358   .     S
C47    C593    1.408   .     A
C48    C66     1.401   .     A
C48    C569    1.401   .     S
C48    C49     1.468   1_554 S
C49    C77     1.401   .     A
C49    C48     1.468   1_556 S
C49    C601    1.401   .     S
C50    C51     1.468   1_554 S
C50    C372    1.401   1_455 S
C51    C383    1.401   1_455 A
C51    C50     1.468   1_556 S
C51    C55     1.401   .     S
C52    C394    1.401   1_455 A
C52    C53     1.468   .     S
C53    C311    1.401   1_455 S
C54    C56     1.468   .     S
C54    C581    1.401   1_545 A
C55    H170    1.083   .     S
C56    C597    1.401   1_545 A
C57    O797    1.282   1_545 A
C57    O268    1.282   .     S
C58    O754    1.282   1_545 A
C58    O240    1.282   .     S
C59    O251    1.282   .     A
C59    O471    1.282   1_455 S
C60    C305    1.468   1_455 S
C60    O546    1.282   1_455 A
C60    O188    1.282   .     S
C61    O189    1.282   .     A
C61    O193    1.282   .     A
C62    O190    1.282   .     S
C62    O194    1.282   .     S
C63    C586    1.468   1_545 S
C63    O191    1.282   .     S
C63    O195    1.282   .     S
C64    C585    1.468   1_545 S
C64    O192    1.282   .     S
C64    O197    1.282   .     S
C65    O198    1.279   .     A
C65    C120    1.457   .     S
C65    O226    1.279   .     A
C66    H180    1.083   .     S
C67    O227    1.279   .     A
C67    O199    1.279   .     A
C68    O200    1.279   .     A
C68    O224    1.279   .     A
C69    O201    1.279   .     A
C69    O225    1.279   .     A
C70    O202    1.279   .     A
C70    O231    1.279   .     A
C71    O203    1.279   .     A
C71    O232    1.279   .     A
C72    O204    1.279   .     A
C72    O228    1.279   .     A
C72    C118    1.457   .     S
C73    C119    1.457   .     S
C73    O230    1.279   .     A
C73    O205    1.279   .     A
C74    O206    1.279   .     A
C74    O217    1.279   .     A
C75    O219    1.279   .     A
C75    O208    1.279   .     A
C76    O209    1.279   .     A
C76    O215    1.279   .     A
C77    H181    1.083   .     S
C78    O210    1.279   .     A
C78    O216    1.279   .     A
C79    O211    1.279   .     A
C79    O222    1.279   .     A
C80    O212    1.279   .     A
C80    O223    1.279   .     A
C81    O213    1.279   .     A
C81    O220    1.279   .     A
C82    O221    1.279   .     A
C82    O214    1.279   .     A
C83    O233    1.382   .     S
C83    C100    1.409   .     A
C84    O234    1.382   .     S
C84    C98     1.409   .     A
C85    O235    1.383   .     S
C85    C97     1.409   .     A
C86    O236    1.383   .     S
C86    C96     1.409   .     A
C87    O237    1.383   .     S
C87    C95     1.409   .     A
C88    H182    1.083   .     S
C88    C334    1.401   .     S
C89    C94     1.409   .     A
C89    O238    1.383   .     S
C90    O239    1.382   .     S
C90    C93     1.409   .     A
C91    C92     1.409   .     A
C91    O241    1.382   .     S
C92    O242    1.383   .     S
C93    O243    1.383   .     S
C94    O244    1.382   .     S
C95    O245    1.382   .     S
C96    O246    1.382   .     S
C97    O247    1.382   .     S
C97    C120    1.406   .     A
C98    C119    1.406   .     A
C98    O248    1.383   .     S
C99    C335    1.401   .     A
C99    H183    1.083   .     S
C100   O249    1.383   .     S
C100   C118    1.406   .     A
C101   O250    1.382   .     S
C101   C119    1.406   .     A
C101   C117    1.409   .     A
C102   C118    1.406   .     A
C102   C116    1.409   .     A
C102   O252    1.382   .     S
C103   C115    1.409   .     A
C103   O253    1.383   .     S
C104   C120    1.406   .     A
C104   O254    1.383   .     S
C104   C114    1.409   .     A
C105   C113    1.409   .     A
C105   O255    1.383   .     S
C106   C112    1.409   .     A
C106   O256    1.383   .     S
C107   C111    1.409   .     A
C107   O257    1.382   .     S
C108   O258    1.382   .     S
C108   C109    1.409   .     A
C109   O259    1.383   .     S
C110   C336    1.401   .     A
C110   H184    1.083   .     S
C111   O260    1.383   .     S
C112   O261    1.382   .     S
C113   O263    1.382   .     S
C114   O264    1.382   .     S
C115   O265    1.382   .     S
C116   O266    1.383   .     S
C117   O267    1.383   .     S
H145   O233    0.991   .     S
H146   O234    0.990   .     S
H147   O235    0.990   .     S
H149   O236    0.990   .     S
H150   O237    0.990   .     S
H151   O238    0.990   .     S
H152   O239    0.990   .     S
H153   O241    0.990   .     S
H154   O242    0.990   .     S
H155   O243    0.990   .     S
H156   O244    0.991   .     S
H157   O245    0.991   .     S
H158   O246    0.990   .     S
H160   O247    0.990   .     S
H161   O248    0.990   .     S
H162   O249    0.990   .     S
H163   O250    0.991   .     S
H164   O252    0.991   .     S
H165   O253    0.990   .     S
H166   O254    0.990   .     S
H167   O255    0.990   .     S
H168   O256    0.990   .     S
H169   O257    0.990   .     S
H171   O258    0.991   .     S
H172   O259    0.990   .     S
H173   O260    0.990   .     S
H174   O261    0.990   .     S
H175   O263    0.991   .     S
H176   O264    0.991   .     S
H177   O265    0.990   .     S
H178   O266    0.990   .     S
H179   O267    0.990   .     S
O185   Zn272   1.946   .     S
O185   Zn280   1.946   .     S
O185   Zn269   1.946   .     S
O185   Zn844   1.946   1_545 S
O186   C626    1.282   .     A
O186   Zn271   1.942   .     S
O187   Zn274   1.942   .     S
O187   C343    1.282   .     S
O188   Zn273   1.942   .     S
O189   Zn283   1.942   .     S
O190   Zn282   1.942   .     S
O191   Zn277   1.942   .     S
O192   Zn269   1.942   .     S
O193   Zn279   1.942   .     S
O194   Zn278   1.942   .     S
O195   Zn281   1.942   .     S
O196   Zn277   1.946   .     S
O196   Zn275   1.946   .     S
O196   Zn281   1.946   .     S
O196   Zn839   1.946   1_545 S
O197   Zn280   1.942   .     S
O198   Zn272   1.936   .     S
O199   Zn271   1.936   .     S
O200   Zn274   1.936   .     S
O201   Zn273   1.936   .     S
O202   Zn276   1.936   .     S
O203   Zn275   1.936   .     S
O204   Zn270   1.936   .     S
O205   Zn284   1.936   .     S
O206   Zn271   1.936   .     S
O207   Zn270   1.946   .     S
O207   Zn278   1.946   .     S
O207   Zn282   1.946   .     S
O207   Zn558   1.946   1_455 S
O208   Zn272   1.936   .     S
O209   Zn284   1.936   .     S
O210   Zn270   1.936   .     S
O211   Zn275   1.936   .     S
O212   Zn276   1.936   .     S
O213   Zn273   1.936   .     S
O214   Zn274   1.936   .     S
O215   Zn563   1.936   .     S
O216   Zn278   1.936   .     S
O217   Zn849   1.936   .     S
O218   Zn279   1.946   .     S
O218   Zn568   1.946   1_455 S
O218   Zn283   1.946   .     S
O218   Zn273   1.946   .     S
O219   Zn280   1.936   .     S
O220   Zn283   1.936   .     S
O221   Zn566   1.936   .     S
O222   Zn277   1.936   .     S
O223   Zn837   1.936   .     S
O224   Zn562   1.936   .     S
O225   Zn279   1.936   .     S
O226   Zn269   1.936   .     S
O227   Zn845   1.936   .     S
O228   Zn282   1.936   .     S
O229   Zn276   1.942   .     S
O229   C625    1.282   .     A
O230   Zn567   1.936   .     S
O231   Zn848   1.936   .     S
O232   Zn281   1.936   .     S
O240   Zn275   1.942   .     S
O251   Zn270   1.942   .     S
O262   Zn284   1.942   .     S
O262   C344    1.282   .     A
O268   Zn272   1.942   .     S
Zn269  O791    1.936   1_545 S
Zn271  O764    1.946   .     S
Zn274  O491    1.946   .     S
Zn276  O753    1.946   .     S
Zn277  O795    1.936   1_545 S
Zn278  O508    1.936   1_455 S
Zn279  O499    1.936   1_455 S
Zn280  O799    1.936   1_545 S
Zn281  O785    1.936   1_545 S
Zn282  O505    1.936   1_455 S
Zn283  O514    1.936   1_455 S
Zn284  O502    1.946   .     S
C285   H421    1.083   .     S
C285   C314    1.391   .     A
C285   C900    1.401   1_545 S
C286   H422    1.083   .     S
C286   C337    1.401   .     A
C286   C324    1.391   .     A
C287   C387    1.406   .     A
C287   C380    1.406   .     A
C287   C351    1.457   .     S
C288   C352    1.457   .     S
C288   C390    1.406   .     A
C288   C379    1.406   .     A
C289   C378    1.406   .     A
C289   C353    1.457   .     S
C289   C389    1.406   .     A
C290   C392    1.406   .     A
C290   C377    1.406   .     A
C290   C354    1.457   .     S
C291   C355    1.457   .     S
C291   C391    1.406   .     A
C291   C376    1.406   .     A
C292   C365    1.457   .     S
C292   C395    1.406   .     A
C292   C375    1.406   .     A
C293   C374    1.406   .     A
C293   C393    1.406   .     A
C293   C366    1.457   .     S
C294   C373    1.406   .     A
C294   C358    1.457   .     S
C294   C397    1.406   .     A
C295   C371    1.406   .     A
C295   C396    1.406   .     A
C295   C359    1.457   .     S
C296   C399    1.406   .     A
C296   C360    1.457   .     S
C296   C370    1.406   .     A
C297   H423    1.083   .     S
C297   C325    1.391   .     A
C297   C906    1.401   .     A
C298   C398    1.406   .     A
C298   C369    1.406   .     A
C298   C362    1.457   .     S
C299   C363    1.457   .     S
C299   C401    1.406   .     A
C299   C368    1.406   .     A
C300   C400    1.406   .     A
C300   C367    1.406   .     A
C300   C364    1.457   .     S
C301   C319    1.408   .     A
C301   C916    1.468   .     S
C301   C882    1.408   .     S
C302   C915    1.468   .     S
C302   C320    1.408   .     A
C302   C883    1.408   .     S
C303   C346    1.468   .     S
C303   C316    1.408   .     A
C304   C345    1.468   .     S
C304   C318    1.408   .     S
C305   C323    1.408   .     A
C305   C60     1.468   1_655 S
C305   C43     1.408   1_655 S
C306   C324    1.408   .     A
C306   C343    1.468   .     S
C307   C342    1.468   .     S
C307   C893    1.408   1_545 A
C307   C330    1.408   .     S
C308   C326    1.391   .     A
C308   H424    1.083   .     S
C308   C340    1.401   .     S
C309   C341    1.468   .     S
C309   C899    1.408   1_545 A
C309   C326    1.408   .     S
C310   H425    1.083   .     S
C310   C327    1.391   .     A
C310   C336    1.401   .     S
C311   H426    1.083   .     S
C311   C329    1.391   .     A
C311   C53     1.401   1_655 S
C312   C330    1.391   .     A
C312   H427    1.083   .     S
C312   C338    1.401   .     S
C313   C331    1.391   .     A
C313   H428    1.083   .     S
C313   C908    1.401   .     A
C314   F405    1.358   .     S
C314   C869    1.408   1_545 S
C315   C317    1.391   .     A
C315   F413    1.358   .     S
C315   C870    1.408   1_545 S
C316   F414    1.358   .     S
C316   C328    1.391   .     A
C317   H432    1.083   .     S
C317   C901    1.401   1_545 S
C318   C339    1.391   .     A
C318   F415    1.358   .     S
C319   F416    1.358   .     S
C319   C350    1.391   .     A
C320   F417    1.358   .     S
C320   C361    1.391   .     A
C321   C372    1.391   .     A
C321   F418    1.358   .     S
C321   C19     1.408   1_655 S
C322   C20     1.408   1_655 A
C322   F419    1.358   .     S
C322   C383    1.391   .     A
C323   C394    1.391   .     A
C323   F420    1.358   .     S
C324   F406    1.358   .     S
C325   C875    1.408   .     A
C325   F407    1.358   .     S
C326   F408    1.358   .     S
C327   F409    1.358   .     S
C328   C334    1.401   .     A
C328   H443    1.083   .     S
C329   F410    1.358   .     S
C329   C22     1.408   1_655 S
C330   F411    1.358   .     S
C331   F412    1.358   .     S
C331   C877    1.408   .     A
C332   C350    1.401   .     A
C332   C853    1.401   .     S
C332   C333    1.468   1_554 S
C333   C361    1.401   .     A
C333   C332    1.468   1_556 S
C333   C885    1.401   .     S
C334   C335    1.468   1_554 S
C335   C334    1.468   1_556 S
C335   C339    1.401   .     S
C336   C337    1.468   .     S
C338   C340    1.468   .     S
C338   C865    1.401   1_545 A
C339   H454    1.083   .     S
C340   C881    1.401   1_545 A
C341   O1081   1.282   1_545 A
C341   O552    1.282   .     S
C342   O1038   1.282   1_545 A
C342   O524    1.282   .     S
C343   O535    1.282   .     A
C344   O472    1.282   .     S
C345   O473    1.282   .     A
C345   O477    1.282   .     A
C346   O474    1.282   .     S
C346   O478    1.282   .     S
C347   C870    1.468   1_545 S
C347   O475    1.282   .     S
C347   O479    1.282   .     S
C348   C869    1.468   1_545 S
C348   O476    1.282   .     S
C348   O481    1.282   .     S
C349   O482    1.279   .     A
C349   C404    1.457   .     S
C349   O510    1.279   .     A
C350   H464    1.083   .     S
C351   O511    1.279   .     A
C351   O483    1.279   .     A
C352   O484    1.279   .     A
C352   O508    1.279   .     A
C353   O485    1.279   .     A
C353   O509    1.279   .     A
C354   O486    1.279   .     A
C354   O515    1.279   .     A
C355   O487    1.279   .     A
C355   O516    1.279   .     A
C356   O488    1.279   .     A
C356   O512    1.279   .     A
C356   C402    1.457   .     S
C357   C403    1.457   .     S
C357   O514    1.279   .     A
C357   O489    1.279   .     A
C358   O490    1.279   .     A
C358   O501    1.279   .     A
C359   O503    1.279   .     A
C359   O492    1.279   .     A
C360   O493    1.279   .     A
C360   O499    1.279   .     A
C361   H465    1.083   .     S
C362   O494    1.279   .     A
C362   O500    1.279   .     A
C363   O495    1.279   .     A
C363   O506    1.279   .     A
C364   O496    1.279   .     A
C364   O507    1.279   .     A
C365   O497    1.279   .     A
C365   O504    1.279   .     A
C366   O505    1.279   .     A
C366   O498    1.279   .     A
C367   O517    1.382   .     S
C367   C384    1.409   .     A
C368   O518    1.382   .     S
C368   C382    1.409   .     A
C369   O519    1.383   .     S
C369   C381    1.409   .     A
C370   O520    1.383   .     S
C370   C380    1.409   .     A
C371   O521    1.383   .     S
C371   C379    1.409   .     A
C372   H466    1.083   .     S
C372   C50     1.401   1_655 S
C373   C378    1.409   .     A
C373   O522    1.383   .     S
C374   O523    1.382   .     S
C374   C377    1.409   .     A
C375   C376    1.409   .     A
C375   O525    1.382   .     S
C376   O526    1.383   .     S
C377   O527    1.383   .     S
C378   O528    1.382   .     S
C379   O529    1.382   .     S
C380   O530    1.382   .     S
C381   O531    1.382   .     S
C381   C404    1.406   .     A
C382   C403    1.406   .     A
C382   O532    1.383   .     S
C383   C51     1.401   1_655 A
C383   H467    1.083   .     S
C384   O533    1.383   .     S
C384   C402    1.406   .     A
C385   O534    1.382   .     S
C385   C403    1.406   .     A
C385   C401    1.409   .     A
C386   C402    1.406   .     A
C386   C400    1.409   .     A
C386   O536    1.382   .     S
C387   C399    1.409   .     A
C387   O537    1.383   .     S
C388   C404    1.406   .     A
C388   O538    1.383   .     S
C388   C398    1.409   .     A
C389   C397    1.409   .     A
C389   O539    1.383   .     S
C390   C396    1.409   .     A
C390   O540    1.383   .     S
C391   C395    1.409   .     A
C391   O541    1.382   .     S
C392   O542    1.382   .     S
C392   C393    1.409   .     A
C393   O543    1.383   .     S
C394   C52     1.401   1_655 A
C394   H468    1.083   .     S
C395   O544    1.383   .     S
C396   O545    1.382   .     S
C397   O547    1.382   .     S
C398   O548    1.382   .     S
C399   O549    1.382   .     S
C400   O550    1.383   .     S
C401   O551    1.383   .     S
H429   O517    0.991   .     S
H430   O518    0.990   .     S
H431   O519    0.990   .     S
H433   O520    0.990   .     S
H434   O521    0.990   .     S
H435   O522    0.990   .     S
H436   O523    0.990   .     S
H437   O525    0.990   .     S
H438   O526    0.990   .     S
H439   O527    0.990   .     S
H440   O528    0.991   .     S
H441   O529    0.991   .     S
H442   O530    0.990   .     S
H444   O531    0.990   .     S
H445   O532    0.990   .     S
H446   O533    0.990   .     S
H447   O534    0.991   .     S
H448   O536    0.991   .     S
H449   O537    0.990   .     S
H450   O538    0.990   .     S
H451   O539    0.990   .     S
H452   O540    0.990   .     S
H453   O541    0.990   .     S
H455   O542    0.991   .     S
H456   O543    0.990   .     S
H457   O544    0.990   .     S
H458   O545    0.990   .     S
H459   O547    0.991   .     S
H460   O548    0.991   .     S
H461   O549    0.990   .     S
H462   O550    0.990   .     S
H463   O551    0.990   .     S
O469   Zn556   1.946   .     S
O469   Zn564   1.946   .     S
O469   Zn553   1.946   .     S
O469   Zn1128  1.946   1_545 S
O470   C910    1.282   .     A
O470   Zn555   1.942   .     S
O471   Zn558   1.942   .     S
O471   C59     1.282   1_655 S
O472   Zn557   1.942   .     S
O473   Zn567   1.942   .     S
O474   Zn566   1.942   .     S
O475   Zn561   1.942   .     S
O476   Zn553   1.942   .     S
O477   Zn563   1.942   .     S
O478   Zn562   1.942   .     S
O479   Zn565   1.942   .     S
O480   Zn561   1.946   .     S
O480   Zn559   1.946   .     S
O480   Zn565   1.946   .     S
O480   Zn1123  1.946   1_545 S
O481   Zn564   1.942   .     S
O482   Zn556   1.936   .     S
O483   Zn555   1.936   .     S
O484   Zn558   1.936   .     S
O485   Zn557   1.936   .     S
O486   Zn560   1.936   .     S
O487   Zn559   1.936   .     S
O488   Zn554   1.936   .     S
O489   Zn568   1.936   .     S
O490   Zn555   1.936   .     S
O491   Zn554   1.946   .     S
O491   Zn562   1.946   .     S
O491   Zn566   1.946   .     S
O492   Zn556   1.936   .     S
O493   Zn568   1.936   .     S
O494   Zn554   1.936   .     S
O495   Zn559   1.936   .     S
O496   Zn560   1.936   .     S
O497   Zn557   1.936   .     S
O498   Zn558   1.936   .     S
O499   Zn279   1.936   1_655 S
O500   Zn562   1.936   .     S
O501   Zn1133  1.936   .     S
O502   Zn563   1.946   .     S
O502   Zn567   1.946   .     S
O502   Zn557   1.946   .     S
O503   Zn564   1.936   .     S
O504   Zn567   1.936   .     S
O505   Zn282   1.936   1_655 S
O506   Zn561   1.936   .     S
O507   Zn1121  1.936   .     S
O508   Zn278   1.936   1_655 S
O509   Zn563   1.936   .     S
O510   Zn553   1.936   .     S
O511   Zn1129  1.936   .     S
O512   Zn566   1.936   .     S
O513   Zn560   1.942   .     S
O513   C909    1.282   .     A
O514   Zn283   1.936   1_655 S
O515   Zn1132  1.936   .     S
O516   Zn565   1.936   .     S
O524   Zn559   1.942   .     S
O535   Zn554   1.942   .     S
O546   Zn568   1.942   .     S
O546   C60     1.282   1_655 A
O552   Zn556   1.942   .     S
Zn553  O1075   1.936   1_545 S
Zn555  O1048   1.946   .     S
Zn558  O207    1.946   1_655 S
Zn560  O1037   1.946   .     S
Zn561  O1079   1.936   1_545 S
Zn564  O1083   1.936   1_545 S
Zn565  O1069   1.936   1_545 S
Zn568  O218    1.946   1_655 S
C569   H705    1.083   .     S
C569   C598    1.391   .     A
C570   H706    1.083   .     S
C570   C621    1.401   .     A
C570   C608    1.391   .     A
C571   C671    1.406   .     A
C571   C664    1.406   .     A
C571   C635    1.457   .     S
C572   C636    1.457   .     S
C572   C674    1.406   .     A
C572   C663    1.406   .     A
C573   C662    1.406   .     A
C573   C637    1.457   .     S
C573   C673    1.406   .     A
C574   C676    1.406   .     A
C574   C661    1.406   .     A
C574   C638    1.457   .     S
C575   C639    1.457   .     S
C575   C675    1.406   .     A
C575   C660    1.406   .     A
C576   C649    1.457   .     S
C576   C679    1.406   .     A
C576   C659    1.406   .     A
C577   C658    1.406   .     A
C577   C677    1.406   .     A
C577   C650    1.457   .     S
C578   C657    1.406   .     A
C578   C642    1.457   .     S
C578   C681    1.406   .     A
C579   C655    1.406   .     A
C579   C680    1.406   .     A
C579   C643    1.457   .     S
C580   C683    1.406   .     A
C580   C644    1.457   .     S
C580   C654    1.406   .     A
C581   H707    1.083   .     S
C581   C609    1.391   .     A
C581   C54     1.401   1_565 A
C582   C682    1.406   .     A
C582   C653    1.406   .     A
C582   C646    1.457   .     S
C583   C647    1.457   .     S
C583   C685    1.406   .     A
C583   C652    1.406   .     A
C584   C684    1.406   .     A
C584   C651    1.406   .     A
C584   C648    1.457   .     S
C585   C603    1.408   .     A
C585   C64     1.468   1_565 S
C585   C30     1.408   1_565 S
C586   C63     1.468   1_565 S
C586   C604    1.408   .     A
C586   C31     1.408   1_565 S
C587   C630    1.468   .     S
C587   C600    1.408   .     A
C587   C889    1.408   1_455 S
C588   C629    1.468   .     S
C588   C890    1.408   1_455 A
C588   C602    1.408   .     S
C589   C607    1.408   .     A
C589   C912    1.468   .     S
C589   C895    1.408   .     S
C590   C608    1.408   .     A
C590   C627    1.468   .     S
C590   C897    1.408   1_455 S
C591   C626    1.468   .     S
C591   C614    1.408   .     S
C592   C610    1.391   .     A
C592   H708    1.083   .     S
C592   C624    1.401   .     S
C593   C625    1.468   .     S
C593   C610    1.408   .     S
C594   H709    1.083   .     S
C594   C611    1.391   .     A
C594   C620    1.401   .     S
C595   H710    1.083   .     S
C595   C613    1.391   .     A
C595   C905    1.401   .     S
C596   C614    1.391   .     A
C596   H711    1.083   .     S
C596   C622    1.401   .     S
C597   C615    1.391   .     A
C597   H712    1.083   .     S
C597   C56     1.401   1_565 A
C598   F689    1.358   .     S
C599   C601    1.391   .     A
C599   F697    1.358   .     S
C600   F698    1.358   .     S
C600   C612    1.391   .     A
C601   H716    1.083   .     S
C602   C623    1.391   .     A
C602   F699    1.358   .     S
C603   F700    1.358   .     S
C603   C634    1.391   .     A
C604   F701    1.358   .     S
C604   C645    1.391   .     A
C605   C656    1.391   .     A
C605   F702    1.358   .     S
C605   C871    1.408   .     S
C606   C872    1.408   .     A
C606   F703    1.358   .     S
C606   C667    1.391   .     A
C607   C678    1.391   .     A
C607   F704    1.358   .     S
C608   F690    1.358   .     S
C609   C23     1.408   1_565 A
C609   F691    1.358   .     S
C610   F692    1.358   .     S
C611   F693    1.358   .     S
C611   C873    1.408   1_455 S
C612   C618    1.401   .     A
C612   H727    1.083   .     S
C613   F694    1.358   .     S
C613   C874    1.408   .     S
C614   F695    1.358   .     S
C615   F696    1.358   .     S
C615   C25     1.408   1_565 A
C616   C634    1.401   .     A
C616   C1      1.401   1_565 S
C616   C617    1.468   1_554 S
C617   C645    1.401   .     A
C617   C616    1.468   1_556 S
C617   C33     1.401   1_565 S
C618   C619    1.468   1_554 S
C618   C940    1.401   1_455 S
C619   C951    1.401   1_455 A
C619   C618    1.468   1_556 S
C619   C623    1.401   .     S
C620   C962    1.401   1_455 A
C620   C621    1.468   .     S
C621   C879    1.401   1_455 S
C622   C624    1.468   .     S
C623   H738    1.083   .     S
C625   O836    1.282   .     S
C626   O808    1.282   .     S
C627   O819    1.282   .     A
C627   O1039   1.282   1_455 S
C628   C873    1.468   1_455 S
C628   O1114   1.282   1_455 A
C628   O756    1.282   .     S
C629   O757    1.282   .     A
C629   O761    1.282   .     A
C630   O758    1.282   .     S
C630   O762    1.282   .     S
C631   O759    1.282   .     S
C631   O763    1.282   .     S
C632   O760    1.282   .     S
C632   O765    1.282   .     S
C633   O766    1.279   .     A
C633   C688    1.457   .     S
C633   O794    1.279   .     A
C634   H748    1.083   .     S
C635   O795    1.279   .     A
C635   O767    1.279   .     A
C636   O768    1.279   .     A
C636   O792    1.279   .     A
C637   O769    1.279   .     A
C637   O793    1.279   .     A
C638   O770    1.279   .     A
C638   O799    1.279   .     A
C639   O771    1.279   .     A
C639   O800    1.279   .     A
C640   O772    1.279   .     A
C640   O796    1.279   .     A
C640   C686    1.457   .     S
C641   C687    1.457   .     S
C641   O798    1.279   .     A
C641   O773    1.279   .     A
C642   O774    1.279   .     A
C642   O785    1.279   .     A
C643   O787    1.279   .     A
C643   O776    1.279   .     A
C644   O777    1.279   .     A
C644   O783    1.279   .     A
C645   H749    1.083   .     S
C646   O778    1.279   .     A
C646   O784    1.279   .     A
C647   O779    1.279   .     A
C647   O790    1.279   .     A
C648   O780    1.279   .     A
C648   O791    1.279   .     A
C649   O781    1.279   .     A
C649   O788    1.279   .     A
C650   O789    1.279   .     A
C650   O782    1.279   .     A
C651   O801    1.382   .     S
C651   C668    1.409   .     A
C652   O802    1.382   .     S
C652   C666    1.409   .     A
C653   O803    1.383   .     S
C653   C665    1.409   .     A
C654   O804    1.383   .     S
C654   C664    1.409   .     A
C655   O805    1.383   .     S
C655   C663    1.409   .     A
C656   H750    1.083   .     S
C656   C902    1.401   .     S
C657   C662    1.409   .     A
C657   O806    1.383   .     S
C658   O807    1.382   .     S
C658   C661    1.409   .     A
C659   C660    1.409   .     A
C659   O809    1.382   .     S
C660   O810    1.383   .     S
C661   O811    1.383   .     S
C662   O812    1.382   .     S
C663   O813    1.382   .     S
C664   O814    1.382   .     S
C665   O815    1.382   .     S
C665   C688    1.406   .     A
C666   C687    1.406   .     A
C666   O816    1.383   .     S
C667   C903    1.401   .     A
C667   H751    1.083   .     S
C668   O817    1.383   .     S
C668   C686    1.406   .     A
C669   O818    1.382   .     S
C669   C687    1.406   .     A
C669   C685    1.409   .     A
C670   C686    1.406   .     A
C670   C684    1.409   .     A
C670   O820    1.382   .     S
C671   C683    1.409   .     A
C671   O821    1.383   .     S
C672   C688    1.406   .     A
C672   O822    1.383   .     S
C672   C682    1.409   .     A
C673   C681    1.409   .     A
C673   O823    1.383   .     S
C674   C680    1.409   .     A
C674   O824    1.383   .     S
C675   C679    1.409   .     A
C675   O825    1.382   .     S
C676   O826    1.382   .     S
C676   C677    1.409   .     A
C677   O827    1.383   .     S
C678   C904    1.401   .     A
C678   H752    1.083   .     S
C679   O828    1.383   .     S
C680   O829    1.382   .     S
C681   O831    1.382   .     S
C682   O832    1.382   .     S
C683   O833    1.382   .     S
C684   O834    1.383   .     S
C685   O835    1.383   .     S
H713   O801    0.991   .     S
H714   O802    0.990   .     S
H715   O803    0.990   .     S
H717   O804    0.990   .     S
H718   O805    0.990   .     S
H719   O806    0.990   .     S
H720   O807    0.990   .     S
H721   O809    0.990   .     S
H722   O810    0.990   .     S
H723   O811    0.990   .     S
H724   O812    0.991   .     S
H725   O813    0.991   .     S
H726   O814    0.990   .     S
H728   O815    0.990   .     S
H729   O816    0.990   .     S
H730   O817    0.990   .     S
H731   O818    0.991   .     S
H732   O820    0.991   .     S
H733   O821    0.990   .     S
H734   O822    0.990   .     S
H735   O823    0.990   .     S
H736   O824    0.990   .     S
H737   O825    0.990   .     S
H739   O826    0.991   .     S
H740   O827    0.990   .     S
H741   O828    0.990   .     S
H742   O829    0.990   .     S
H743   O831    0.991   .     S
H744   O832    0.991   .     S
H745   O833    0.990   .     S
H746   O834    0.990   .     S
H747   O835    0.990   .     S
O753   Zn840   1.946   .     S
O753   Zn848   1.946   .     S
O753   Zn837   1.946   .     S
O754   C58     1.282   1_565 A
O754   Zn839   1.942   .     S
O755   Zn842   1.942   .     S
O755   C911    1.282   .     S
O756   Zn841   1.942   .     S
O757   Zn851   1.942   .     S
O758   Zn850   1.942   .     S
O759   Zn845   1.942   .     S
O760   Zn837   1.942   .     S
O761   Zn847   1.942   .     S
O762   Zn846   1.942   .     S
O763   Zn849   1.942   .     S
O764   Zn845   1.946   .     S
O764   Zn843   1.946   .     S
O764   Zn849   1.946   .     S
O765   Zn848   1.942   .     S
O766   Zn840   1.936   .     S
O767   Zn839   1.936   .     S
O768   Zn842   1.936   .     S
O769   Zn841   1.936   .     S
O770   Zn844   1.936   .     S
O771   Zn843   1.936   .     S
O772   Zn838   1.936   .     S
O773   Zn852   1.936   .     S
O774   Zn839   1.936   .     S
O775   Zn838   1.946   .     S
O775   Zn846   1.946   .     S
O775   Zn850   1.946   .     S
O775   Zn1126  1.946   1_455 S
O776   Zn840   1.936   .     S
O777   Zn852   1.936   .     S
O778   Zn838   1.936   .     S
O779   Zn843   1.936   .     S
O780   Zn844   1.936   .     S
O781   Zn841   1.936   .     S
O782   Zn842   1.936   .     S
O783   Zn1131  1.936   .     S
O784   Zn846   1.936   .     S
O785   Zn281   1.936   1_565 S
O786   Zn847   1.946   .     S
O786   Zn1136  1.946   1_455 S
O786   Zn851   1.946   .     S
O786   Zn841   1.946   .     S
O787   Zn848   1.936   .     S
O788   Zn851   1.936   .     S
O789   Zn1134  1.936   .     S
O790   Zn845   1.936   .     S
O791   Zn269   1.936   1_565 S
O792   Zn1130  1.936   .     S
O793   Zn847   1.936   .     S
O794   Zn837   1.936   .     S
O795   Zn277   1.936   1_565 S
O796   Zn850   1.936   .     S
O797   Zn844   1.942   .     S
O797   C57     1.282   1_565 A
O798   Zn1135  1.936   .     S
O799   Zn280   1.936   1_565 S
O800   Zn849   1.936   .     S
O808   Zn843   1.942   .     S
O819   Zn838   1.942   .     S
O830   Zn852   1.942   .     S
O830   C912    1.282   .     A
O836   Zn840   1.942   .     S
Zn839  O196    1.946   1_565 S
Zn842  O1059   1.946   .     S
Zn844  O185    1.946   1_565 S
Zn846  O1076   1.936   1_455 S
Zn847  O1067   1.936   1_455 S
Zn850  O1073   1.936   1_455 S
Zn851  O1082   1.936   1_455 S
Zn852  O1070   1.946   .     S
C853   H989    1.083   .     S
C853   C882    1.391   .     A
C854   H990    1.083   .     S
C854   C905    1.401   .     A
C854   C892    1.391   .     A
C855   C955    1.406   .     A
C855   C948    1.406   .     A
C855   C919    1.457   .     S
C856   C920    1.457   .     S
C856   C958    1.406   .     A
C856   C947    1.406   .     A
C857   C946    1.406   .     A
C857   C921    1.457   .     S
C857   C957    1.406   .     A
C858   C960    1.406   .     A
C858   C945    1.406   .     A
C858   C922    1.457   .     S
C859   C923    1.457   .     S
C859   C959    1.406   .     A
C859   C944    1.406   .     A
C860   C933    1.457   .     S
C860   C963    1.406   .     A
C860   C943    1.406   .     A
C861   C942    1.406   .     A
C861   C961    1.406   .     A
C861   C934    1.457   .     S
C862   C941    1.406   .     A
C862   C926    1.457   .     S
C862   C965    1.406   .     A
C863   C939    1.406   .     A
C863   C964    1.406   .     A
C863   C927    1.457   .     S
C864   C967    1.406   .     A
C864   C928    1.457   .     S
C864   C938    1.406   .     A
C865   H991    1.083   .     S
C865   C893    1.391   .     A
C865   C338    1.401   1_565 A
C866   C966    1.406   .     A
C866   C937    1.406   .     A
C866   C930    1.457   .     S
C867   C931    1.457   .     S
C867   C969    1.406   .     A
C867   C936    1.406   .     A
C868   C968    1.406   .     A
C868   C935    1.406   .     A
C868   C932    1.457   .     S
C869   C887    1.408   .     A
C869   C348    1.468   1_565 S
C869   C314    1.408   1_565 S
C870   C347    1.468   1_565 S
C870   C888    1.408   .     A
C870   C315    1.408   1_565 S
C871   C914    1.468   .     S
C871   C884    1.408   .     A
C872   C913    1.468   .     S
C872   C886    1.408   .     S
C873   C891    1.408   .     A
C873   C628    1.468   1_655 S
C873   C611    1.408   1_655 S
C874   C892    1.408   .     A
C874   C911    1.468   .     S
C875   C910    1.468   .     S
C875   C898    1.408   .     S
C876   C894    1.391   .     A
C876   H992    1.083   .     S
C876   C908    1.401   .     S
C877   C909    1.468   .     S
C877   C894    1.408   .     S
C878   H993    1.083   .     S
C878   C895    1.391   .     A
C878   C904    1.401   .     S
C879   H994    1.083   .     S
C879   C897    1.391   .     A
C879   C621    1.401   1_655 S
C880   C898    1.391   .     A
C880   H995    1.083   .     S
C880   C906    1.401   .     S
C881   C899    1.391   .     A
C881   H996    1.083   .     S
C881   C340    1.401   1_565 A
C882   F973    1.358   .     S
C883   C885    1.391   .     A
C883   F981    1.358   .     S
C884   F982    1.358   .     S
C884   C896    1.391   .     A
C885   H1000   1.083   .     S
C886   C907    1.391   .     A
C886   F983    1.358   .     S
C887   F984    1.358   .     S
C887   C918    1.391   .     A
C888   F985    1.358   .     S
C888   C929    1.391   .     A
C889   C940    1.391   .     A
C889   F986    1.358   .     S
C889   C587    1.408   1_655 S
C890   C588    1.408   1_655 A
C890   F987    1.358   .     S
C890   C951    1.391   .     A
C891   C962    1.391   .     A
C891   F988    1.358   .     S
C892   F974    1.358   .     S
C893   C307    1.408   1_565 A
C893   F975    1.358   .     S
C894   F976    1.358   .     S
C895   F977    1.358   .     S
C896   C902    1.401   .     A
C896   H1011   1.083   .     S
C897   F978    1.358   .     S
C897   C590    1.408   1_655 S
C898   F979    1.358   .     S
C899   F980    1.358   .     S
C899   C309    1.408   1_565 A
C900   C918    1.401   .     A
C900   C285    1.401   1_565 S
C900   C901    1.468   1_554 S
C901   C929    1.401   .     A
C901   C900    1.468   1_556 S
C901   C317    1.401   1_565 S
C902   C903    1.468   1_554 S
C903   C902    1.468   1_556 S
C903   C907    1.401   .     S
C904   C905    1.468   .     S
C906   C908    1.468   .     S
C907   H1022   1.083   .     S
C909   O1120   1.282   .     S
C910   O1092   1.282   .     S
C911   O1103   1.282   .     A
C912   O1040   1.282   .     S
C913   O1041   1.282   .     A
C913   O1045   1.282   .     A
C914   O1042   1.282   .     S
C914   O1046   1.282   .     S
C915   O1043   1.282   .     S
C915   O1047   1.282   .     S
C916   O1044   1.282   .     S
C916   O1049   1.282   .     S
C917   O1050   1.279   .     A
C917   C972    1.457   .     S
C917   O1078   1.279   .     A
C918   H1032   1.083   .     S
C919   O1079   1.279   .     A
C919   O1051   1.279   .     A
C920   O1052   1.279   .     A
C920   O1076   1.279   .     A
C921   O1053   1.279   .     A
C921   O1077   1.279   .     A
C922   O1054   1.279   .     A
C922   O1083   1.279   .     A
C923   O1055   1.279   .     A
C923   O1084   1.279   .     A
C924   O1056   1.279   .     A
C924   O1080   1.279   .     A
C924   C970    1.457   .     S
C925   C971    1.457   .     S
C925   O1082   1.279   .     A
C925   O1057   1.279   .     A
C926   O1058   1.279   .     A
C926   O1069   1.279   .     A
C927   O1071   1.279   .     A
C927   O1060   1.279   .     A
C928   O1061   1.279   .     A
C928   O1067   1.279   .     A
C929   H1033   1.083   .     S
C930   O1062   1.279   .     A
C930   O1068   1.279   .     A
C931   O1063   1.279   .     A
C931   O1074   1.279   .     A
C932   O1064   1.279   .     A
C932   O1075   1.279   .     A
C933   O1065   1.279   .     A
C933   O1072   1.279   .     A
C934   O1073   1.279   .     A
C934   O1066   1.279   .     A
C935   O1085   1.382   .     S
C935   C952    1.409   .     A
C936   O1086   1.382   .     S
C936   C950    1.409   .     A
C937   O1087   1.383   .     S
C937   C949    1.409   .     A
C938   O1088   1.383   .     S
C938   C948    1.409   .     A
C939   O1089   1.383   .     S
C939   C947    1.409   .     A
C940   H1034   1.083   .     S
C940   C618    1.401   1_655 S
C941   C946    1.409   .     A
C941   O1090   1.383   .     S
C942   O1091   1.382   .     S
C942   C945    1.409   .     A
C943   C944    1.409   .     A
C943   O1093   1.382   .     S
C944   O1094   1.383   .     S
C945   O1095   1.383   .     S
C946   O1096   1.382   .     S
C947   O1097   1.382   .     S
C948   O1098   1.382   .     S
C949   O1099   1.382   .     S
C949   C972    1.406   .     A
C950   C971    1.406   .     A
C950   O1100   1.383   .     S
C951   C619    1.401   1_655 A
C951   H1035   1.083   .     S
C952   O1101   1.383   .     S
C952   C970    1.406   .     A
C953   O1102   1.382   .     S
C953   C971    1.406   .     A
C953   C969    1.409   .     A
C954   C970    1.406   .     A
C954   C968    1.409   .     A
C954   O1104   1.382   .     S
C955   C967    1.409   .     A
C955   O1105   1.383   .     S
C956   C972    1.406   .     A
C956   O1106   1.383   .     S
C956   C966    1.409   .     A
C957   C965    1.409   .     A
C957   O1107   1.383   .     S
C958   C964    1.409   .     A
C958   O1108   1.383   .     S
C959   C963    1.409   .     A
C959   O1109   1.382   .     S
C960   O1110   1.382   .     S
C960   C961    1.409   .     A
C961   O1111   1.383   .     S
C962   C620    1.401   1_655 A
C962   H1036   1.083   .     S
C963   O1112   1.383   .     S
C964   O1113   1.382   .     S
C965   O1115   1.382   .     S
C966   O1116   1.382   .     S
C967   O1117   1.382   .     S
C968   O1118   1.383   .     S
C969   O1119   1.383   .     S
H997   O1085   0.991   .     S
H998   O1086   0.990   .     S
H999   O1087   0.990   .     S
H1001  O1088   0.990   .     S
H1002  O1089   0.990   .     S
H1003  O1090   0.990   .     S
H1004  O1091   0.990   .     S
H1005  O1093   0.990   .     S
H1006  O1094   0.990   .     S
H1007  O1095   0.990   .     S
H1008  O1096   0.991   .     S
H1009  O1097   0.991   .     S
H1010  O1098   0.990   .     S
H1012  O1099   0.990   .     S
H1013  O1100   0.990   .     S
H1014  O1101   0.990   .     S
H1015  O1102   0.991   .     S
H1016  O1104   0.991   .     S
H1017  O1105   0.990   .     S
H1018  O1106   0.990   .     S
H1019  O1107   0.990   .     S
H1020  O1108   0.990   .     S
H1021  O1109   0.990   .     S
H1023  O1110   0.991   .     S
H1024  O1111   0.990   .     S
H1025  O1112   0.990   .     S
H1026  O1113   0.990   .     S
H1027  O1115   0.991   .     S
H1028  O1116   0.991   .     S
H1029  O1117   0.990   .     S
H1030  O1118   0.990   .     S
H1031  O1119   0.990   .     S
O1037  Zn1124  1.946   .     S
O1037  Zn1132  1.946   .     S
O1037  Zn1121  1.946   .     S
O1038  C342    1.282   1_565 A
O1038  Zn1123  1.942   .     S
O1039  Zn1126  1.942   .     S
O1039  C627    1.282   1_655 S
O1040  Zn1125  1.942   .     S
O1041  Zn1135  1.942   .     S
O1042  Zn1134  1.942   .     S
O1043  Zn1129  1.942   .     S
O1044  Zn1121  1.942   .     S
O1045  Zn1131  1.942   .     S
O1046  Zn1130  1.942   .     S
O1047  Zn1133  1.942   .     S
O1048  Zn1129  1.946   .     S
O1048  Zn1127  1.946   .     S
O1048  Zn1133  1.946   .     S
O1049  Zn1132  1.942   .     S
O1050  Zn1124  1.936   .     S
O1051  Zn1123  1.936   .     S
O1052  Zn1126  1.936   .     S
O1053  Zn1125  1.936   .     S
O1054  Zn1128  1.936   .     S
O1055  Zn1127  1.936   .     S
O1056  Zn1122  1.936   .     S
O1057  Zn1136  1.936   .     S
O1058  Zn1123  1.936   .     S
O1059  Zn1122  1.946   .     S
O1059  Zn1130  1.946   .     S
O1059  Zn1134  1.946   .     S
O1060  Zn1124  1.936   .     S
O1061  Zn1136  1.936   .     S
O1062  Zn1122  1.936   .     S
O1063  Zn1127  1.936   .     S
O1064  Zn1128  1.936   .     S
O1065  Zn1125  1.936   .     S
O1066  Zn1126  1.936   .     S
O1067  Zn847   1.936   1_655 S
O1068  Zn1130  1.936   .     S
O1069  Zn565   1.936   1_565 S
O1070  Zn1131  1.946   .     S
O1070  Zn1135  1.946   .     S
O1070  Zn1125  1.946   .     S
O1071  Zn1132  1.936   .     S
O1072  Zn1135  1.936   .     S
O1073  Zn850   1.936   1_655 S
O1074  Zn1129  1.936   .     S
O1075  Zn553   1.936   1_565 S
O1076  Zn846   1.936   1_655 S
O1077  Zn1131  1.936   .     S
O1078  Zn1121  1.936   .     S
O1079  Zn561   1.936   1_565 S
O1080  Zn1134  1.936   .     S
O1081  Zn1128  1.942   .     S
O1081  C341    1.282   1_565 A
O1082  Zn851   1.936   1_655 S
O1083  Zn564   1.936   1_565 S
O1084  Zn1133  1.936   .     S
O1092  Zn1127  1.942   .     S
O1103  Zn1122  1.942   .     S
O1114  Zn1136  1.942   .     S
O1114  C628    1.282   1_655 A
O1120  Zn1124  1.942   .     S
Zn1123 O480    1.946   1_565 S
Zn1126 O775    1.946   1_655 S
Zn1128 O469    1.946   1_565 S
Zn1136 O786    1.946   1_655 S
