data_str_m2_o2_o10_pcu_sym.88
_audit_creation_date              2020-01-03
_audit_creation_method            'Materials Studio'
_symmetry_space_group_name_H-M    'P1'
_symmetry_Int_Tables_number       1
_symmetry_cell_setting            triclinic
loop_
_symmetry_equiv_pos_as_xyz
  x,y,z
_cell_length_a                    26.1763
_cell_length_b                    30.2244
_cell_length_c                    27.8772
_cell_angle_alpha                 89.5782
_cell_angle_beta                  97.3606
_cell_angle_gamma                 91.6225
loop_
_atom_site_label
_atom_site_type_symbol
_atom_site_fract_x
_atom_site_fract_y
_atom_site_fract_z
_atom_site_U_iso_or_equiv
_atom_site_adp_type
_atom_site_occupancy
C1     C     0.16480   0.16494   0.24984   0.00000  Uiso   1.00
C2     C     0.19078   0.28489   0.44838   0.00000  Uiso   1.00
C3     C     0.16539   0.25044   0.02707   0.00000  Uiso   1.00
C4     C     0.16587   0.25092   0.47264   0.00000  Uiso   1.00
C5     C     0.06802   0.24976   0.23771   0.00000  Uiso   1.00
C6     C     0.26533   0.25003   0.26230   0.00000  Uiso   1.00
C7     C     0.01284   0.24929   0.23092   0.00000  Uiso   1.00
C8     C     0.32052   0.25014   0.26915   0.00000  Uiso   1.00
C9     C     0.18991   0.04825   0.29029   0.00000  Uiso   1.00
C10    C     0.18949   0.45299   0.21533   0.00000  Uiso   1.00
C11    C     0.18785   0.09412   0.28998   0.00000  Uiso   1.00
C12    C     0.16491   0.33499   0.24976   0.00000  Uiso   1.00
C13    C     0.18745   0.40703   0.21506   0.00000  Uiso   1.00
C14    C     0.16295   0.11644   0.24963   0.00000  Uiso   1.00
C15    C     0.16305   0.38343   0.24970   0.00000  Uiso   1.00
C16    C     0.13852   0.09195   0.20939   0.00000  Uiso   1.00
C17    C     0.13921   0.40670   0.28456   0.00000  Uiso   1.00
C18    C     0.14259   0.04588   0.20968   0.00000  Uiso   1.00
C19    C     0.14326   0.45297   0.28528   0.00000  Uiso   1.00
C20    C     0.16791   0.02418   0.24992   0.00000  Uiso   1.00
C21    C     0.16799   0.47594   0.25078   0.00000  Uiso   1.00
C22    C     0.10575   0.11306   0.16856   0.00000  Uiso   1.00
C23    C     0.20485   0.27185   0.05750   0.00000  Uiso   1.00
C24    C     0.10716   0.38402   0.31818   0.00000  Uiso   1.00
C25    C     0.24552   0.30019   0.13624   0.00000  Uiso   1.00
C26    C     0.10981   0.18145   0.36621   0.00000  Uiso   1.00
C27    C     0.14172   0.21668   0.44404   0.00000  Uiso   1.00
C28    C     0.20463   0.27270   0.10804   0.00000  Uiso   1.00
C29    C     0.14090   0.21696   0.39338   0.00000  Uiso   1.00
C30    C     0.12816   0.22812   0.10046   0.00000  Uiso   1.00
C31    C     0.19137   0.28343   0.39785   0.00000  Uiso   1.00
C32    C     0.12638   0.22843   0.04963   0.00000  Uiso   1.00
Cu33   Cu    0.16667   0.25000   0.29821   0.00000  Uiso   1.00
Cu34   Cu    0.16667   0.25001   0.20178   0.00000  Uiso   1.00
H35    H     0.32657   0.24815   0.19414   0.00000  Uiso   1.00
H36    H     0.12270   0.18960   0.46092   0.00000  Uiso   1.00
H37    H     0.09797   0.21074   0.11665   0.00000  Uiso   1.00
H38    H     0.21120   0.30964   0.38040   0.00000  Uiso   1.00
H39    H     0.09404   0.21187   0.02844   0.00000  Uiso   1.00
H40    H     0.20937   0.31297   0.46788   0.00000  Uiso   1.00
H41    H     0.08994   0.14535   0.17273   0.00000  Uiso   1.00
H42    H     0.09135   0.35090   0.31066   0.00000  Uiso   1.00
H43    H     0.23995   0.31494   0.17007   0.00000  Uiso   1.00
H44    H     0.09033   0.18698   0.33037   0.00000  Uiso   1.00
H45    H     0.00683   0.25104   0.30596   0.00000  Uiso   1.00
H46    H     0.20907   0.03149   0.32178   0.00000  Uiso   1.00
H47    H     0.20823   0.47071   0.18820   0.00000  Uiso   1.00
H48    H     0.20641   0.11225   0.32113   0.00000  Uiso   1.00
H49    H     0.20560   0.38990   0.18803   0.00000  Uiso   1.00
H50    H     0.12399   0.02646   0.17949   0.00000  Uiso   1.00
H51    H     0.12508   0.47147   0.31133   0.00000  Uiso   1.00
H52    H     0.23600   0.28855   0.04202   0.00000  Uiso   1.00
N53    N     0.16667   0.25001   0.12934   0.00000  Uiso   1.00
N54    N     0.16667   0.24999   0.37065   0.00000  Uiso   1.00
O55    O     0.16667   0.18573   0.29071   0.00000  Uiso   1.00
O56    O     0.09706   0.40255   0.35446   0.00000  Uiso   1.00
O57    O     0.28666   0.30777   0.12106   0.00000  Uiso   1.00
O58    O     0.10451   0.14500   0.38443   0.00000  Uiso   1.00
O59    O     0.16666   0.31428   0.20928   0.00000  Uiso   1.00
O60    O     0.16667   0.18573   0.20928   0.00000  Uiso   1.00
O61    O     0.16666   0.31427   0.29072   0.00000  Uiso   1.00
O62    O     0.09161   0.25000   0.28132   0.00000  Uiso   1.00
O63    O     0.24172   0.25001   0.21868   0.00000  Uiso   1.00
O64    O     0.09161   0.25000   0.19988   0.00000  Uiso   1.00
O65    O     0.24172   0.25000   0.30011   0.00000  Uiso   1.00
O66    O     0.09505   0.09412   0.12988   0.00000  Uiso   1.00
C67    C     0.49814   0.16494   0.24984   0.00000  Uiso   1.00
C68    C     0.52412   0.28489   0.44838   0.00000  Uiso   1.00
C69    C     0.49872   0.25044   0.02707   0.00000  Uiso   1.00
C70    C     0.49921   0.25092   0.47264   0.00000  Uiso   1.00
C71    C     0.40135   0.24976   0.23771   0.00000  Uiso   1.00
C72    C     0.59866   0.25003   0.26230   0.00000  Uiso   1.00
C73    C     0.34617   0.24929   0.23092   0.00000  Uiso   1.00
C74    C     0.65386   0.25014   0.26915   0.00000  Uiso   1.00
C75    C     0.52324   0.04825   0.29029   0.00000  Uiso   1.00
C76    C     0.52283   0.45299   0.21533   0.00000  Uiso   1.00
C77    C     0.52118   0.09412   0.28998   0.00000  Uiso   1.00
C78    C     0.49824   0.33499   0.24976   0.00000  Uiso   1.00
C79    C     0.52078   0.40703   0.21506   0.00000  Uiso   1.00
C80    C     0.49628   0.11644   0.24963   0.00000  Uiso   1.00
C81    C     0.49639   0.38343   0.24970   0.00000  Uiso   1.00
C82    C     0.47185   0.09195   0.20939   0.00000  Uiso   1.00
C83    C     0.47254   0.40670   0.28456   0.00000  Uiso   1.00
C84    C     0.47592   0.04588   0.20968   0.00000  Uiso   1.00
C85    C     0.47659   0.45297   0.28528   0.00000  Uiso   1.00
C86    C     0.50124   0.02418   0.24992   0.00000  Uiso   1.00
C87    C     0.50133   0.47594   0.25078   0.00000  Uiso   1.00
C88    C     0.43908   0.11306   0.16856   0.00000  Uiso   1.00
C89    C     0.53818   0.27185   0.05750   0.00000  Uiso   1.00
C90    C     0.44049   0.38402   0.31818   0.00000  Uiso   1.00
C91    C     0.57885   0.30019   0.13624   0.00000  Uiso   1.00
C92    C     0.44314   0.18145   0.36621   0.00000  Uiso   1.00
C93    C     0.47505   0.21668   0.44404   0.00000  Uiso   1.00
C94    C     0.53797   0.27270   0.10804   0.00000  Uiso   1.00
C95    C     0.47424   0.21696   0.39338   0.00000  Uiso   1.00
C96    C     0.46149   0.22812   0.10046   0.00000  Uiso   1.00
C97    C     0.52470   0.28343   0.39785   0.00000  Uiso   1.00
C98    C     0.45972   0.22843   0.04963   0.00000  Uiso   1.00
Cu99   Cu    0.50000   0.25000   0.29821   0.00000  Uiso   1.00
Cu100  Cu    0.50000   0.25001   0.20178   0.00000  Uiso   1.00
H101   H     0.65991   0.24815   0.19414   0.00000  Uiso   1.00
H102   H     0.45603   0.18960   0.46092   0.00000  Uiso   1.00
H103   H     0.43131   0.21074   0.11665   0.00000  Uiso   1.00
H104   H     0.54454   0.30964   0.38040   0.00000  Uiso   1.00
H105   H     0.42737   0.21187   0.02844   0.00000  Uiso   1.00
H106   H     0.54271   0.31297   0.46788   0.00000  Uiso   1.00
H107   H     0.42327   0.14535   0.17273   0.00000  Uiso   1.00
H108   H     0.42468   0.35090   0.31066   0.00000  Uiso   1.00
H109   H     0.57328   0.31494   0.17007   0.00000  Uiso   1.00
H110   H     0.42366   0.18698   0.33037   0.00000  Uiso   1.00
H111   H     0.34017   0.25104   0.30596   0.00000  Uiso   1.00
H112   H     0.54241   0.03149   0.32178   0.00000  Uiso   1.00
H113   H     0.54157   0.47071   0.18820   0.00000  Uiso   1.00
H114   H     0.53974   0.11225   0.32113   0.00000  Uiso   1.00
H115   H     0.53893   0.38990   0.18803   0.00000  Uiso   1.00
H116   H     0.45732   0.02646   0.17949   0.00000  Uiso   1.00
H117   H     0.45841   0.47147   0.31133   0.00000  Uiso   1.00
H118   H     0.56933   0.28855   0.04202   0.00000  Uiso   1.00
N119   N     0.50000   0.25001   0.12934   0.00000  Uiso   1.00
N120   N     0.50000   0.24999   0.37065   0.00000  Uiso   1.00
O121   O     0.50000   0.18573   0.29071   0.00000  Uiso   1.00
O122   O     0.43039   0.40255   0.35446   0.00000  Uiso   1.00
O123   O     0.61999   0.30777   0.12106   0.00000  Uiso   1.00
O124   O     0.43784   0.14500   0.38443   0.00000  Uiso   1.00
O125   O     0.50000   0.31428   0.20928   0.00000  Uiso   1.00
O126   O     0.50000   0.18573   0.20928   0.00000  Uiso   1.00
O127   O     0.50000   0.31427   0.29072   0.00000  Uiso   1.00
O128   O     0.42495   0.25000   0.28132   0.00000  Uiso   1.00
O129   O     0.57505   0.25001   0.21868   0.00000  Uiso   1.00
O130   O     0.42495   0.25000   0.19988   0.00000  Uiso   1.00
O131   O     0.57505   0.25000   0.30011   0.00000  Uiso   1.00
O132   O     0.42838   0.09412   0.12988   0.00000  Uiso   1.00
C133   C     0.83147   0.16494   0.24984   0.00000  Uiso   1.00
C134   C     0.85745   0.28489   0.44838   0.00000  Uiso   1.00
C135   C     0.83206   0.25044   0.02707   0.00000  Uiso   1.00
C136   C     0.83254   0.25092   0.47264   0.00000  Uiso   1.00
C137   C     0.73468   0.24976   0.23771   0.00000  Uiso   1.00
C138   C     0.93199   0.25003   0.26230   0.00000  Uiso   1.00
C139   C     0.67951   0.24929   0.23092   0.00000  Uiso   1.00
C140   C     0.98719   0.25014   0.26915   0.00000  Uiso   1.00
C141   C     0.85657   0.04825   0.29029   0.00000  Uiso   1.00
C142   C     0.85616   0.45299   0.21533   0.00000  Uiso   1.00
C143   C     0.85452   0.09412   0.28998   0.00000  Uiso   1.00
C144   C     0.83158   0.33499   0.24976   0.00000  Uiso   1.00
C145   C     0.85412   0.40703   0.21506   0.00000  Uiso   1.00
C146   C     0.82962   0.11644   0.24963   0.00000  Uiso   1.00
C147   C     0.82972   0.38343   0.24970   0.00000  Uiso   1.00
C148   C     0.80518   0.09195   0.20939   0.00000  Uiso   1.00
C149   C     0.80588   0.40670   0.28456   0.00000  Uiso   1.00
C150   C     0.80926   0.04588   0.20968   0.00000  Uiso   1.00
C151   C     0.80993   0.45297   0.28528   0.00000  Uiso   1.00
C152   C     0.83457   0.02418   0.24992   0.00000  Uiso   1.00
C153   C     0.83466   0.47594   0.25078   0.00000  Uiso   1.00
C154   C     0.77241   0.11306   0.16856   0.00000  Uiso   1.00
C155   C     0.87152   0.27185   0.05750   0.00000  Uiso   1.00
C156   C     0.77382   0.38402   0.31818   0.00000  Uiso   1.00
C157   C     0.91218   0.30019   0.13624   0.00000  Uiso   1.00
C158   C     0.77648   0.18145   0.36621   0.00000  Uiso   1.00
C159   C     0.80838   0.21668   0.44404   0.00000  Uiso   1.00
C160   C     0.87130   0.27270   0.10804   0.00000  Uiso   1.00
C161   C     0.80757   0.21696   0.39338   0.00000  Uiso   1.00
C162   C     0.79482   0.22812   0.10046   0.00000  Uiso   1.00
C163   C     0.85804   0.28343   0.39785   0.00000  Uiso   1.00
C164   C     0.79305   0.22843   0.04963   0.00000  Uiso   1.00
Cu165  Cu    0.83333   0.25000   0.29821   0.00000  Uiso   1.00
Cu166  Cu    0.83333   0.25001   0.20178   0.00000  Uiso   1.00
H167   H     0.99324   0.24815   0.19414   0.00000  Uiso   1.00
H168   H     0.78937   0.18960   0.46092   0.00000  Uiso   1.00
H169   H     0.76464   0.21074   0.11665   0.00000  Uiso   1.00
H170   H     0.87787   0.30964   0.38040   0.00000  Uiso   1.00
H171   H     0.76071   0.21187   0.02844   0.00000  Uiso   1.00
H172   H     0.87604   0.31297   0.46788   0.00000  Uiso   1.00
H173   H     0.75660   0.14535   0.17273   0.00000  Uiso   1.00
H174   H     0.75801   0.35090   0.31066   0.00000  Uiso   1.00
H175   H     0.90662   0.31494   0.17007   0.00000  Uiso   1.00
H176   H     0.75700   0.18698   0.33037   0.00000  Uiso   1.00
H177   H     0.67350   0.25104   0.30596   0.00000  Uiso   1.00
H178   H     0.87574   0.03149   0.32178   0.00000  Uiso   1.00
H179   H     0.87490   0.47071   0.18820   0.00000  Uiso   1.00
H180   H     0.87307   0.11225   0.32113   0.00000  Uiso   1.00
H181   H     0.87227   0.38990   0.18803   0.00000  Uiso   1.00
H182   H     0.79066   0.02646   0.17949   0.00000  Uiso   1.00
H183   H     0.79175   0.47147   0.31133   0.00000  Uiso   1.00
H184   H     0.90267   0.28855   0.04202   0.00000  Uiso   1.00
N185   N     0.83333   0.25001   0.12934   0.00000  Uiso   1.00
N186   N     0.83333   0.24999   0.37065   0.00000  Uiso   1.00
O187   O     0.83334   0.18573   0.29071   0.00000  Uiso   1.00
O188   O     0.76372   0.40255   0.35446   0.00000  Uiso   1.00
O189   O     0.95333   0.30777   0.12106   0.00000  Uiso   1.00
O190   O     0.77118   0.14500   0.38443   0.00000  Uiso   1.00
O191   O     0.83333   0.31428   0.20928   0.00000  Uiso   1.00
O192   O     0.83334   0.18573   0.20928   0.00000  Uiso   1.00
O193   O     0.83333   0.31427   0.29072   0.00000  Uiso   1.00
O194   O     0.75828   0.25000   0.28132   0.00000  Uiso   1.00
O195   O     0.90839   0.25001   0.21868   0.00000  Uiso   1.00
O196   O     0.75828   0.25000   0.19988   0.00000  Uiso   1.00
O197   O     0.90839   0.25000   0.30011   0.00000  Uiso   1.00
O198   O     0.76172   0.09412   0.12988   0.00000  Uiso   1.00
C199   C     0.16480   0.66494   0.24984   0.00000  Uiso   1.00
C200   C     0.19078   0.78489   0.44838   0.00000  Uiso   1.00
C201   C     0.16539   0.75044   0.02707   0.00000  Uiso   1.00
C202   C     0.16587   0.75092   0.47264   0.00000  Uiso   1.00
C203   C     0.06802   0.74976   0.23771   0.00000  Uiso   1.00
C204   C     0.26533   0.75003   0.26230   0.00000  Uiso   1.00
C205   C     0.01284   0.74929   0.23092   0.00000  Uiso   1.00
C206   C     0.32052   0.75014   0.26915   0.00000  Uiso   1.00
C207   C     0.18991   0.54825   0.29029   0.00000  Uiso   1.00
C208   C     0.18949   0.95299   0.21533   0.00000  Uiso   1.00
C209   C     0.18785   0.59412   0.28998   0.00000  Uiso   1.00
C210   C     0.16491   0.83499   0.24976   0.00000  Uiso   1.00
C211   C     0.18745   0.90703   0.21506   0.00000  Uiso   1.00
C212   C     0.16295   0.61644   0.24963   0.00000  Uiso   1.00
C213   C     0.16305   0.88343   0.24970   0.00000  Uiso   1.00
C214   C     0.13852   0.59195   0.20939   0.00000  Uiso   1.00
C215   C     0.13921   0.90670   0.28456   0.00000  Uiso   1.00
C216   C     0.14259   0.54588   0.20968   0.00000  Uiso   1.00
C217   C     0.14326   0.95297   0.28528   0.00000  Uiso   1.00
C218   C     0.16791   0.52418   0.24992   0.00000  Uiso   1.00
C219   C     0.16799   0.97594   0.25078   0.00000  Uiso   1.00
C220   C     0.10575   0.61306   0.16856   0.00000  Uiso   1.00
C221   C     0.20485   0.77185   0.05750   0.00000  Uiso   1.00
C222   C     0.10716   0.88402   0.31818   0.00000  Uiso   1.00
C223   C     0.24552   0.80019   0.13624   0.00000  Uiso   1.00
C224   C     0.10981   0.68145   0.36621   0.00000  Uiso   1.00
C225   C     0.14172   0.71668   0.44404   0.00000  Uiso   1.00
C226   C     0.20463   0.77270   0.10804   0.00000  Uiso   1.00
C227   C     0.14090   0.71696   0.39338   0.00000  Uiso   1.00
C228   C     0.12816   0.72812   0.10046   0.00000  Uiso   1.00
C229   C     0.19137   0.78343   0.39785   0.00000  Uiso   1.00
C230   C     0.12638   0.72843   0.04963   0.00000  Uiso   1.00
Cu231  Cu    0.16667   0.75000   0.29821   0.00000  Uiso   1.00
Cu232  Cu    0.16667   0.75001   0.20178   0.00000  Uiso   1.00
H233   H     0.32657   0.74815   0.19414   0.00000  Uiso   1.00
H234   H     0.12270   0.68960   0.46092   0.00000  Uiso   1.00
H235   H     0.09797   0.71074   0.11665   0.00000  Uiso   1.00
H236   H     0.21120   0.80964   0.38040   0.00000  Uiso   1.00
H237   H     0.09404   0.71187   0.02844   0.00000  Uiso   1.00
H238   H     0.20937   0.81297   0.46788   0.00000  Uiso   1.00
H239   H     0.08994   0.64535   0.17273   0.00000  Uiso   1.00
H240   H     0.09135   0.85090   0.31066   0.00000  Uiso   1.00
H241   H     0.23995   0.81494   0.17007   0.00000  Uiso   1.00
H242   H     0.09033   0.68698   0.33037   0.00000  Uiso   1.00
H243   H     0.00683   0.75104   0.30596   0.00000  Uiso   1.00
H244   H     0.20907   0.53149   0.32178   0.00000  Uiso   1.00
H245   H     0.20823   0.97071   0.18820   0.00000  Uiso   1.00
H246   H     0.20641   0.61225   0.32113   0.00000  Uiso   1.00
H247   H     0.20560   0.88990   0.18803   0.00000  Uiso   1.00
H248   H     0.12399   0.52646   0.17949   0.00000  Uiso   1.00
H249   H     0.12508   0.97147   0.31133   0.00000  Uiso   1.00
H250   H     0.23600   0.78855   0.04202   0.00000  Uiso   1.00
N251   N     0.16667   0.75001   0.12934   0.00000  Uiso   1.00
N252   N     0.16667   0.74999   0.37065   0.00000  Uiso   1.00
O253   O     0.16667   0.68573   0.29071   0.00000  Uiso   1.00
O254   O     0.09706   0.90255   0.35446   0.00000  Uiso   1.00
O255   O     0.28666   0.80777   0.12106   0.00000  Uiso   1.00
O256   O     0.10451   0.64500   0.38443   0.00000  Uiso   1.00
O257   O     0.16666   0.81428   0.20928   0.00000  Uiso   1.00
O258   O     0.16667   0.68573   0.20928   0.00000  Uiso   1.00
O259   O     0.16666   0.81427   0.29072   0.00000  Uiso   1.00
O260   O     0.09161   0.75000   0.28132   0.00000  Uiso   1.00
O261   O     0.24172   0.75001   0.21868   0.00000  Uiso   1.00
O262   O     0.09161   0.75000   0.19988   0.00000  Uiso   1.00
O263   O     0.24172   0.75000   0.30011   0.00000  Uiso   1.00
O264   O     0.09505   0.59412   0.12988   0.00000  Uiso   1.00
C265   C     0.49814   0.66494   0.24984   0.00000  Uiso   1.00
C266   C     0.52412   0.78489   0.44838   0.00000  Uiso   1.00
C267   C     0.49872   0.75044   0.02707   0.00000  Uiso   1.00
C268   C     0.49921   0.75092   0.47264   0.00000  Uiso   1.00
C269   C     0.40135   0.74976   0.23771   0.00000  Uiso   1.00
C270   C     0.59866   0.75003   0.26230   0.00000  Uiso   1.00
C271   C     0.34617   0.74929   0.23092   0.00000  Uiso   1.00
C272   C     0.65386   0.75014   0.26915   0.00000  Uiso   1.00
C273   C     0.52324   0.54825   0.29029   0.00000  Uiso   1.00
C274   C     0.52283   0.95299   0.21533   0.00000  Uiso   1.00
C275   C     0.52118   0.59412   0.28998   0.00000  Uiso   1.00
C276   C     0.49824   0.83499   0.24976   0.00000  Uiso   1.00
C277   C     0.52078   0.90703   0.21506   0.00000  Uiso   1.00
C278   C     0.49628   0.61644   0.24963   0.00000  Uiso   1.00
C279   C     0.49639   0.88343   0.24970   0.00000  Uiso   1.00
C280   C     0.47185   0.59195   0.20939   0.00000  Uiso   1.00
C281   C     0.47254   0.90670   0.28456   0.00000  Uiso   1.00
C282   C     0.47592   0.54588   0.20968   0.00000  Uiso   1.00
C283   C     0.47659   0.95297   0.28528   0.00000  Uiso   1.00
C284   C     0.50124   0.52418   0.24992   0.00000  Uiso   1.00
C285   C     0.50133   0.97594   0.25078   0.00000  Uiso   1.00
C286   C     0.43908   0.61306   0.16856   0.00000  Uiso   1.00
C287   C     0.53818   0.77185   0.05750   0.00000  Uiso   1.00
C288   C     0.44049   0.88402   0.31818   0.00000  Uiso   1.00
C289   C     0.57885   0.80019   0.13624   0.00000  Uiso   1.00
C290   C     0.44314   0.68145   0.36621   0.00000  Uiso   1.00
C291   C     0.47505   0.71668   0.44404   0.00000  Uiso   1.00
C292   C     0.53797   0.77270   0.10804   0.00000  Uiso   1.00
C293   C     0.47424   0.71696   0.39338   0.00000  Uiso   1.00
C294   C     0.46149   0.72812   0.10046   0.00000  Uiso   1.00
C295   C     0.52470   0.78343   0.39785   0.00000  Uiso   1.00
C296   C     0.45972   0.72843   0.04963   0.00000  Uiso   1.00
Cu297  Cu    0.50000   0.75000   0.29821   0.00000  Uiso   1.00
Cu298  Cu    0.50000   0.75001   0.20178   0.00000  Uiso   1.00
H299   H     0.65991   0.74815   0.19414   0.00000  Uiso   1.00
H300   H     0.45603   0.68960   0.46092   0.00000  Uiso   1.00
H301   H     0.43131   0.71074   0.11665   0.00000  Uiso   1.00
H302   H     0.54454   0.80964   0.38040   0.00000  Uiso   1.00
H303   H     0.42737   0.71187   0.02844   0.00000  Uiso   1.00
H304   H     0.54271   0.81297   0.46788   0.00000  Uiso   1.00
H305   H     0.42327   0.64535   0.17273   0.00000  Uiso   1.00
H306   H     0.42468   0.85090   0.31066   0.00000  Uiso   1.00
H307   H     0.57328   0.81494   0.17007   0.00000  Uiso   1.00
H308   H     0.42366   0.68698   0.33037   0.00000  Uiso   1.00
H309   H     0.34017   0.75104   0.30596   0.00000  Uiso   1.00
H310   H     0.54241   0.53149   0.32178   0.00000  Uiso   1.00
H311   H     0.54157   0.97071   0.18820   0.00000  Uiso   1.00
H312   H     0.53974   0.61225   0.32113   0.00000  Uiso   1.00
H313   H     0.53893   0.88990   0.18803   0.00000  Uiso   1.00
H314   H     0.45732   0.52646   0.17949   0.00000  Uiso   1.00
H315   H     0.45841   0.97147   0.31133   0.00000  Uiso   1.00
H316   H     0.56933   0.78855   0.04202   0.00000  Uiso   1.00
N317   N     0.50000   0.75001   0.12934   0.00000  Uiso   1.00
N318   N     0.50000   0.74999   0.37065   0.00000  Uiso   1.00
O319   O     0.50000   0.68573   0.29071   0.00000  Uiso   1.00
O320   O     0.43039   0.90255   0.35446   0.00000  Uiso   1.00
O321   O     0.61999   0.80777   0.12106   0.00000  Uiso   1.00
O322   O     0.43784   0.64500   0.38443   0.00000  Uiso   1.00
O323   O     0.50000   0.81428   0.20928   0.00000  Uiso   1.00
O324   O     0.50000   0.68573   0.20928   0.00000  Uiso   1.00
O325   O     0.50000   0.81427   0.29072   0.00000  Uiso   1.00
O326   O     0.42495   0.75000   0.28132   0.00000  Uiso   1.00
O327   O     0.57505   0.75001   0.21868   0.00000  Uiso   1.00
O328   O     0.42495   0.75000   0.19988   0.00000  Uiso   1.00
O329   O     0.57505   0.75000   0.30011   0.00000  Uiso   1.00
O330   O     0.42838   0.59412   0.12988   0.00000  Uiso   1.00
C331   C     0.83147   0.66494   0.24984   0.00000  Uiso   1.00
C332   C     0.85745   0.78489   0.44838   0.00000  Uiso   1.00
C333   C     0.83206   0.75044   0.02707   0.00000  Uiso   1.00
C334   C     0.83254   0.75092   0.47264   0.00000  Uiso   1.00
C335   C     0.73468   0.74976   0.23771   0.00000  Uiso   1.00
C336   C     0.93199   0.75003   0.26230   0.00000  Uiso   1.00
C337   C     0.67951   0.74929   0.23092   0.00000  Uiso   1.00
C338   C     0.98719   0.75014   0.26915   0.00000  Uiso   1.00
C339   C     0.85657   0.54825   0.29029   0.00000  Uiso   1.00
C340   C     0.85616   0.95299   0.21533   0.00000  Uiso   1.00
C341   C     0.85452   0.59412   0.28998   0.00000  Uiso   1.00
C342   C     0.83158   0.83499   0.24976   0.00000  Uiso   1.00
C343   C     0.85412   0.90703   0.21506   0.00000  Uiso   1.00
C344   C     0.82962   0.61644   0.24963   0.00000  Uiso   1.00
C345   C     0.82972   0.88343   0.24970   0.00000  Uiso   1.00
C346   C     0.80518   0.59195   0.20939   0.00000  Uiso   1.00
C347   C     0.80588   0.90670   0.28456   0.00000  Uiso   1.00
C348   C     0.80926   0.54588   0.20968   0.00000  Uiso   1.00
C349   C     0.80993   0.95297   0.28528   0.00000  Uiso   1.00
C350   C     0.83457   0.52418   0.24992   0.00000  Uiso   1.00
C351   C     0.83466   0.97594   0.25078   0.00000  Uiso   1.00
C352   C     0.77241   0.61306   0.16856   0.00000  Uiso   1.00
C353   C     0.87152   0.77185   0.05750   0.00000  Uiso   1.00
C354   C     0.77382   0.88402   0.31818   0.00000  Uiso   1.00
C355   C     0.91218   0.80019   0.13624   0.00000  Uiso   1.00
C356   C     0.77648   0.68145   0.36621   0.00000  Uiso   1.00
C357   C     0.80838   0.71668   0.44404   0.00000  Uiso   1.00
C358   C     0.87130   0.77270   0.10804   0.00000  Uiso   1.00
C359   C     0.80757   0.71696   0.39338   0.00000  Uiso   1.00
C360   C     0.79482   0.72812   0.10046   0.00000  Uiso   1.00
C361   C     0.85804   0.78343   0.39785   0.00000  Uiso   1.00
C362   C     0.79305   0.72843   0.04963   0.00000  Uiso   1.00
Cu363  Cu    0.83333   0.75000   0.29821   0.00000  Uiso   1.00
Cu364  Cu    0.83333   0.75001   0.20178   0.00000  Uiso   1.00
H365   H     0.99324   0.74815   0.19414   0.00000  Uiso   1.00
H366   H     0.78937   0.68960   0.46092   0.00000  Uiso   1.00
H367   H     0.76464   0.71074   0.11665   0.00000  Uiso   1.00
H368   H     0.87787   0.80964   0.38040   0.00000  Uiso   1.00
H369   H     0.76071   0.71187   0.02844   0.00000  Uiso   1.00
H370   H     0.87604   0.81297   0.46788   0.00000  Uiso   1.00
H371   H     0.75660   0.64535   0.17273   0.00000  Uiso   1.00
H372   H     0.75801   0.85090   0.31066   0.00000  Uiso   1.00
H373   H     0.90662   0.81494   0.17007   0.00000  Uiso   1.00
H374   H     0.75700   0.68698   0.33037   0.00000  Uiso   1.00
H375   H     0.67350   0.75104   0.30596   0.00000  Uiso   1.00
H376   H     0.87574   0.53149   0.32178   0.00000  Uiso   1.00
H377   H     0.87490   0.97071   0.18820   0.00000  Uiso   1.00
H378   H     0.87307   0.61225   0.32113   0.00000  Uiso   1.00
H379   H     0.87227   0.88990   0.18803   0.00000  Uiso   1.00
H380   H     0.79066   0.52646   0.17949   0.00000  Uiso   1.00
H381   H     0.79175   0.97147   0.31133   0.00000  Uiso   1.00
H382   H     0.90267   0.78855   0.04202   0.00000  Uiso   1.00
N383   N     0.83333   0.75001   0.12934   0.00000  Uiso   1.00
N384   N     0.83333   0.74999   0.37065   0.00000  Uiso   1.00
O385   O     0.83334   0.68573   0.29071   0.00000  Uiso   1.00
O386   O     0.76372   0.90255   0.35446   0.00000  Uiso   1.00
O387   O     0.95333   0.80777   0.12106   0.00000  Uiso   1.00
O388   O     0.77118   0.64500   0.38443   0.00000  Uiso   1.00
O389   O     0.83333   0.81428   0.20928   0.00000  Uiso   1.00
O390   O     0.83334   0.68573   0.20928   0.00000  Uiso   1.00
O391   O     0.83333   0.81427   0.29072   0.00000  Uiso   1.00
O392   O     0.75828   0.75000   0.28132   0.00000  Uiso   1.00
O393   O     0.90839   0.75001   0.21868   0.00000  Uiso   1.00
O394   O     0.75828   0.75000   0.19988   0.00000  Uiso   1.00
O395   O     0.90839   0.75000   0.30011   0.00000  Uiso   1.00
O396   O     0.76172   0.59412   0.12988   0.00000  Uiso   1.00
C397   C     0.16480   0.16494   0.74984   0.00000  Uiso   1.00
C398   C     0.19078   0.28489   0.94838   0.00000  Uiso   1.00
C399   C     0.16539   0.25044   0.52707   0.00000  Uiso   1.00
C400   C     0.16587   0.25092   0.97264   0.00000  Uiso   1.00
C401   C     0.06802   0.24976   0.73771   0.00000  Uiso   1.00
C402   C     0.26533   0.25003   0.76230   0.00000  Uiso   1.00
C403   C     0.01284   0.24929   0.73092   0.00000  Uiso   1.00
C404   C     0.32052   0.25014   0.76915   0.00000  Uiso   1.00
C405   C     0.18991   0.04825   0.79029   0.00000  Uiso   1.00
C406   C     0.18949   0.45299   0.71533   0.00000  Uiso   1.00
C407   C     0.18785   0.09412   0.78998   0.00000  Uiso   1.00
C408   C     0.16491   0.33499   0.74976   0.00000  Uiso   1.00
C409   C     0.18745   0.40703   0.71506   0.00000  Uiso   1.00
C410   C     0.16295   0.11644   0.74963   0.00000  Uiso   1.00
C411   C     0.16305   0.38343   0.74970   0.00000  Uiso   1.00
C412   C     0.13852   0.09195   0.70939   0.00000  Uiso   1.00
C413   C     0.13921   0.40670   0.78456   0.00000  Uiso   1.00
C414   C     0.14259   0.04588   0.70968   0.00000  Uiso   1.00
C415   C     0.14326   0.45297   0.78528   0.00000  Uiso   1.00
C416   C     0.16791   0.02418   0.74992   0.00000  Uiso   1.00
C417   C     0.16799   0.47594   0.75078   0.00000  Uiso   1.00
C418   C     0.10575   0.11306   0.66856   0.00000  Uiso   1.00
C419   C     0.20485   0.27185   0.55750   0.00000  Uiso   1.00
C420   C     0.10716   0.38402   0.81818   0.00000  Uiso   1.00
C421   C     0.24552   0.30019   0.63624   0.00000  Uiso   1.00
C422   C     0.10981   0.18145   0.86621   0.00000  Uiso   1.00
C423   C     0.14172   0.21668   0.94404   0.00000  Uiso   1.00
C424   C     0.20463   0.27270   0.60804   0.00000  Uiso   1.00
C425   C     0.14090   0.21696   0.89338   0.00000  Uiso   1.00
C426   C     0.12816   0.22812   0.60046   0.00000  Uiso   1.00
C427   C     0.19137   0.28343   0.89785   0.00000  Uiso   1.00
C428   C     0.12638   0.22843   0.54963   0.00000  Uiso   1.00
Cu429  Cu    0.16667   0.25000   0.79821   0.00000  Uiso   1.00
Cu430  Cu    0.16667   0.25001   0.70178   0.00000  Uiso   1.00
H431   H     0.32657   0.24815   0.69414   0.00000  Uiso   1.00
H432   H     0.12270   0.18960   0.96092   0.00000  Uiso   1.00
H433   H     0.09797   0.21074   0.61665   0.00000  Uiso   1.00
H434   H     0.21120   0.30964   0.88040   0.00000  Uiso   1.00
H435   H     0.09404   0.21187   0.52844   0.00000  Uiso   1.00
H436   H     0.20937   0.31297   0.96788   0.00000  Uiso   1.00
H437   H     0.08994   0.14535   0.67273   0.00000  Uiso   1.00
H438   H     0.09135   0.35090   0.81066   0.00000  Uiso   1.00
H439   H     0.23995   0.31494   0.67007   0.00000  Uiso   1.00
H440   H     0.09033   0.18698   0.83037   0.00000  Uiso   1.00
H441   H     0.00683   0.25104   0.80596   0.00000  Uiso   1.00
H442   H     0.20907   0.03149   0.82178   0.00000  Uiso   1.00
H443   H     0.20823   0.47071   0.68820   0.00000  Uiso   1.00
H444   H     0.20641   0.11225   0.82113   0.00000  Uiso   1.00
H445   H     0.20560   0.38990   0.68803   0.00000  Uiso   1.00
H446   H     0.12399   0.02646   0.67949   0.00000  Uiso   1.00
H447   H     0.12508   0.47147   0.81133   0.00000  Uiso   1.00
H448   H     0.23600   0.28855   0.54202   0.00000  Uiso   1.00
N449   N     0.16667   0.25001   0.62934   0.00000  Uiso   1.00
N450   N     0.16667   0.24999   0.87065   0.00000  Uiso   1.00
O451   O     0.16667   0.18573   0.79071   0.00000  Uiso   1.00
O452   O     0.09706   0.40255   0.85446   0.00000  Uiso   1.00
O453   O     0.28666   0.30777   0.62106   0.00000  Uiso   1.00
O454   O     0.10451   0.14500   0.88443   0.00000  Uiso   1.00
O455   O     0.16666   0.31428   0.70928   0.00000  Uiso   1.00
O456   O     0.16667   0.18573   0.70928   0.00000  Uiso   1.00
O457   O     0.16666   0.31427   0.79072   0.00000  Uiso   1.00
O458   O     0.09161   0.25000   0.78132   0.00000  Uiso   1.00
O459   O     0.24172   0.25001   0.71868   0.00000  Uiso   1.00
O460   O     0.09161   0.25000   0.69988   0.00000  Uiso   1.00
O461   O     0.24172   0.25000   0.80011   0.00000  Uiso   1.00
O462   O     0.09505   0.09412   0.62988   0.00000  Uiso   1.00
C463   C     0.49814   0.16494   0.74984   0.00000  Uiso   1.00
C464   C     0.52412   0.28489   0.94838   0.00000  Uiso   1.00
C465   C     0.49872   0.25044   0.52707   0.00000  Uiso   1.00
C466   C     0.49921   0.25092   0.97264   0.00000  Uiso   1.00
C467   C     0.40135   0.24976   0.73771   0.00000  Uiso   1.00
C468   C     0.59866   0.25003   0.76230   0.00000  Uiso   1.00
C469   C     0.34617   0.24929   0.73092   0.00000  Uiso   1.00
C470   C     0.65386   0.25014   0.76915   0.00000  Uiso   1.00
C471   C     0.52324   0.04825   0.79029   0.00000  Uiso   1.00
C472   C     0.52283   0.45299   0.71533   0.00000  Uiso   1.00
C473   C     0.52118   0.09412   0.78998   0.00000  Uiso   1.00
C474   C     0.49824   0.33499   0.74976   0.00000  Uiso   1.00
C475   C     0.52078   0.40703   0.71506   0.00000  Uiso   1.00
C476   C     0.49628   0.11644   0.74963   0.00000  Uiso   1.00
C477   C     0.49639   0.38343   0.74970   0.00000  Uiso   1.00
C478   C     0.47185   0.09195   0.70939   0.00000  Uiso   1.00
C479   C     0.47254   0.40670   0.78456   0.00000  Uiso   1.00
C480   C     0.47592   0.04588   0.70968   0.00000  Uiso   1.00
C481   C     0.47659   0.45297   0.78528   0.00000  Uiso   1.00
C482   C     0.50124   0.02418   0.74992   0.00000  Uiso   1.00
C483   C     0.50133   0.47594   0.75078   0.00000  Uiso   1.00
C484   C     0.43908   0.11306   0.66856   0.00000  Uiso   1.00
C485   C     0.53818   0.27185   0.55750   0.00000  Uiso   1.00
C486   C     0.44049   0.38402   0.81818   0.00000  Uiso   1.00
C487   C     0.57885   0.30019   0.63624   0.00000  Uiso   1.00
C488   C     0.44314   0.18145   0.86621   0.00000  Uiso   1.00
C489   C     0.47505   0.21668   0.94404   0.00000  Uiso   1.00
C490   C     0.53797   0.27270   0.60804   0.00000  Uiso   1.00
C491   C     0.47424   0.21696   0.89338   0.00000  Uiso   1.00
C492   C     0.46149   0.22812   0.60046   0.00000  Uiso   1.00
C493   C     0.52470   0.28343   0.89785   0.00000  Uiso   1.00
C494   C     0.45972   0.22843   0.54963   0.00000  Uiso   1.00
Cu495  Cu    0.50000   0.25000   0.79821   0.00000  Uiso   1.00
Cu496  Cu    0.50000   0.25001   0.70178   0.00000  Uiso   1.00
H497   H     0.65991   0.24815   0.69414   0.00000  Uiso   1.00
H498   H     0.45603   0.18960   0.96092   0.00000  Uiso   1.00
H499   H     0.43131   0.21074   0.61665   0.00000  Uiso   1.00
H500   H     0.54454   0.30964   0.88040   0.00000  Uiso   1.00
H501   H     0.42737   0.21187   0.52844   0.00000  Uiso   1.00
H502   H     0.54271   0.31297   0.96788   0.00000  Uiso   1.00
H503   H     0.42327   0.14535   0.67273   0.00000  Uiso   1.00
H504   H     0.42468   0.35090   0.81066   0.00000  Uiso   1.00
H505   H     0.57328   0.31494   0.67007   0.00000  Uiso   1.00
H506   H     0.42366   0.18698   0.83037   0.00000  Uiso   1.00
H507   H     0.34017   0.25104   0.80596   0.00000  Uiso   1.00
H508   H     0.54241   0.03149   0.82178   0.00000  Uiso   1.00
H509   H     0.54157   0.47071   0.68820   0.00000  Uiso   1.00
H510   H     0.53974   0.11225   0.82113   0.00000  Uiso   1.00
H511   H     0.53893   0.38990   0.68803   0.00000  Uiso   1.00
H512   H     0.45732   0.02646   0.67949   0.00000  Uiso   1.00
H513   H     0.45841   0.47147   0.81133   0.00000  Uiso   1.00
H514   H     0.56933   0.28855   0.54202   0.00000  Uiso   1.00
N515   N     0.50000   0.25001   0.62934   0.00000  Uiso   1.00
N516   N     0.50000   0.24999   0.87065   0.00000  Uiso   1.00
O517   O     0.50000   0.18573   0.79071   0.00000  Uiso   1.00
O518   O     0.43039   0.40255   0.85446   0.00000  Uiso   1.00
O519   O     0.61999   0.30777   0.62106   0.00000  Uiso   1.00
O520   O     0.43784   0.14500   0.88443   0.00000  Uiso   1.00
O521   O     0.50000   0.31428   0.70928   0.00000  Uiso   1.00
O522   O     0.50000   0.18573   0.70928   0.00000  Uiso   1.00
O523   O     0.50000   0.31427   0.79072   0.00000  Uiso   1.00
O524   O     0.42495   0.25000   0.78132   0.00000  Uiso   1.00
O525   O     0.57505   0.25001   0.71868   0.00000  Uiso   1.00
O526   O     0.42495   0.25000   0.69988   0.00000  Uiso   1.00
O527   O     0.57505   0.25000   0.80011   0.00000  Uiso   1.00
O528   O     0.42838   0.09412   0.62988   0.00000  Uiso   1.00
C529   C     0.83147   0.16494   0.74984   0.00000  Uiso   1.00
C530   C     0.85745   0.28489   0.94838   0.00000  Uiso   1.00
C531   C     0.83206   0.25044   0.52707   0.00000  Uiso   1.00
C532   C     0.83254   0.25092   0.97264   0.00000  Uiso   1.00
C533   C     0.73468   0.24976   0.73771   0.00000  Uiso   1.00
C534   C     0.93199   0.25003   0.76230   0.00000  Uiso   1.00
C535   C     0.67951   0.24929   0.73092   0.00000  Uiso   1.00
C536   C     0.98719   0.25014   0.76915   0.00000  Uiso   1.00
C537   C     0.85657   0.04825   0.79029   0.00000  Uiso   1.00
C538   C     0.85616   0.45299   0.71533   0.00000  Uiso   1.00
C539   C     0.85452   0.09412   0.78998   0.00000  Uiso   1.00
C540   C     0.83158   0.33499   0.74976   0.00000  Uiso   1.00
C541   C     0.85412   0.40703   0.71506   0.00000  Uiso   1.00
C542   C     0.82962   0.11644   0.74963   0.00000  Uiso   1.00
C543   C     0.82972   0.38343   0.74970   0.00000  Uiso   1.00
C544   C     0.80518   0.09195   0.70939   0.00000  Uiso   1.00
C545   C     0.80588   0.40670   0.78456   0.00000  Uiso   1.00
C546   C     0.80926   0.04588   0.70968   0.00000  Uiso   1.00
C547   C     0.80993   0.45297   0.78528   0.00000  Uiso   1.00
C548   C     0.83457   0.02418   0.74992   0.00000  Uiso   1.00
C549   C     0.83466   0.47594   0.75078   0.00000  Uiso   1.00
C550   C     0.77241   0.11306   0.66856   0.00000  Uiso   1.00
C551   C     0.87152   0.27185   0.55750   0.00000  Uiso   1.00
C552   C     0.77382   0.38402   0.81818   0.00000  Uiso   1.00
C553   C     0.91218   0.30019   0.63624   0.00000  Uiso   1.00
C554   C     0.77648   0.18145   0.86621   0.00000  Uiso   1.00
C555   C     0.80838   0.21668   0.94404   0.00000  Uiso   1.00
C556   C     0.87130   0.27270   0.60804   0.00000  Uiso   1.00
C557   C     0.80757   0.21696   0.89338   0.00000  Uiso   1.00
C558   C     0.79482   0.22812   0.60046   0.00000  Uiso   1.00
C559   C     0.85804   0.28343   0.89785   0.00000  Uiso   1.00
C560   C     0.79305   0.22843   0.54963   0.00000  Uiso   1.00
Cu561  Cu    0.83333   0.25000   0.79821   0.00000  Uiso   1.00
Cu562  Cu    0.83333   0.25001   0.70178   0.00000  Uiso   1.00
H563   H     0.99324   0.24815   0.69414   0.00000  Uiso   1.00
H564   H     0.78937   0.18960   0.96092   0.00000  Uiso   1.00
H565   H     0.76464   0.21074   0.61665   0.00000  Uiso   1.00
H566   H     0.87787   0.30964   0.88040   0.00000  Uiso   1.00
H567   H     0.76071   0.21187   0.52844   0.00000  Uiso   1.00
H568   H     0.87604   0.31297   0.96788   0.00000  Uiso   1.00
H569   H     0.75660   0.14535   0.67273   0.00000  Uiso   1.00
H570   H     0.75801   0.35090   0.81066   0.00000  Uiso   1.00
H571   H     0.90662   0.31494   0.67007   0.00000  Uiso   1.00
H572   H     0.75700   0.18698   0.83037   0.00000  Uiso   1.00
H573   H     0.67350   0.25104   0.80596   0.00000  Uiso   1.00
H574   H     0.87574   0.03149   0.82178   0.00000  Uiso   1.00
H575   H     0.87490   0.47071   0.68820   0.00000  Uiso   1.00
H576   H     0.87307   0.11225   0.82113   0.00000  Uiso   1.00
H577   H     0.87227   0.38990   0.68803   0.00000  Uiso   1.00
H578   H     0.79066   0.02646   0.67949   0.00000  Uiso   1.00
H579   H     0.79175   0.47147   0.81133   0.00000  Uiso   1.00
H580   H     0.90267   0.28855   0.54202   0.00000  Uiso   1.00
N581   N     0.83333   0.25001   0.62934   0.00000  Uiso   1.00
N582   N     0.83333   0.24999   0.87065   0.00000  Uiso   1.00
O583   O     0.83334   0.18573   0.79071   0.00000  Uiso   1.00
O584   O     0.76372   0.40255   0.85446   0.00000  Uiso   1.00
O585   O     0.95333   0.30777   0.62106   0.00000  Uiso   1.00
O586   O     0.77118   0.14500   0.88443   0.00000  Uiso   1.00
O587   O     0.83333   0.31428   0.70928   0.00000  Uiso   1.00
O588   O     0.83334   0.18573   0.70928   0.00000  Uiso   1.00
O589   O     0.83333   0.31427   0.79072   0.00000  Uiso   1.00
O590   O     0.75828   0.25000   0.78132   0.00000  Uiso   1.00
O591   O     0.90839   0.25001   0.71868   0.00000  Uiso   1.00
O592   O     0.75828   0.25000   0.69988   0.00000  Uiso   1.00
O593   O     0.90839   0.25000   0.80011   0.00000  Uiso   1.00
O594   O     0.76172   0.09412   0.62988   0.00000  Uiso   1.00
C595   C     0.16480   0.66494   0.74984   0.00000  Uiso   1.00
C596   C     0.19078   0.78489   0.94838   0.00000  Uiso   1.00
C597   C     0.16539   0.75044   0.52707   0.00000  Uiso   1.00
C598   C     0.16587   0.75092   0.97264   0.00000  Uiso   1.00
C599   C     0.06802   0.74976   0.73771   0.00000  Uiso   1.00
C600   C     0.26533   0.75003   0.76230   0.00000  Uiso   1.00
C601   C     0.01284   0.74929   0.73092   0.00000  Uiso   1.00
C602   C     0.32052   0.75014   0.76915   0.00000  Uiso   1.00
C603   C     0.18991   0.54825   0.79029   0.00000  Uiso   1.00
C604   C     0.18949   0.95299   0.71533   0.00000  Uiso   1.00
C605   C     0.18785   0.59412   0.78998   0.00000  Uiso   1.00
C606   C     0.16491   0.83499   0.74976   0.00000  Uiso   1.00
C607   C     0.18745   0.90703   0.71506   0.00000  Uiso   1.00
C608   C     0.16295   0.61644   0.74963   0.00000  Uiso   1.00
C609   C     0.16305   0.88343   0.74970   0.00000  Uiso   1.00
C610   C     0.13852   0.59195   0.70939   0.00000  Uiso   1.00
C611   C     0.13921   0.90670   0.78456   0.00000  Uiso   1.00
C612   C     0.14259   0.54588   0.70968   0.00000  Uiso   1.00
C613   C     0.14326   0.95297   0.78528   0.00000  Uiso   1.00
C614   C     0.16791   0.52418   0.74992   0.00000  Uiso   1.00
C615   C     0.16799   0.97594   0.75078   0.00000  Uiso   1.00
C616   C     0.10575   0.61306   0.66856   0.00000  Uiso   1.00
C617   C     0.20485   0.77185   0.55750   0.00000  Uiso   1.00
C618   C     0.10716   0.88402   0.81818   0.00000  Uiso   1.00
C619   C     0.24552   0.80019   0.63624   0.00000  Uiso   1.00
C620   C     0.10981   0.68145   0.86621   0.00000  Uiso   1.00
C621   C     0.14172   0.71668   0.94404   0.00000  Uiso   1.00
C622   C     0.20463   0.77270   0.60804   0.00000  Uiso   1.00
C623   C     0.14090   0.71696   0.89338   0.00000  Uiso   1.00
C624   C     0.12816   0.72812   0.60046   0.00000  Uiso   1.00
C625   C     0.19137   0.78343   0.89785   0.00000  Uiso   1.00
C626   C     0.12638   0.72843   0.54963   0.00000  Uiso   1.00
Cu627  Cu    0.16667   0.75000   0.79821   0.00000  Uiso   1.00
Cu628  Cu    0.16667   0.75001   0.70178   0.00000  Uiso   1.00
H629   H     0.32657   0.74815   0.69414   0.00000  Uiso   1.00
H630   H     0.12270   0.68960   0.96092   0.00000  Uiso   1.00
H631   H     0.09797   0.71074   0.61665   0.00000  Uiso   1.00
H632   H     0.21120   0.80964   0.88040   0.00000  Uiso   1.00
H633   H     0.09404   0.71187   0.52844   0.00000  Uiso   1.00
H634   H     0.20937   0.81297   0.96788   0.00000  Uiso   1.00
H635   H     0.08994   0.64535   0.67273   0.00000  Uiso   1.00
H636   H     0.09135   0.85090   0.81066   0.00000  Uiso   1.00
H637   H     0.23995   0.81494   0.67007   0.00000  Uiso   1.00
H638   H     0.09033   0.68698   0.83037   0.00000  Uiso   1.00
H639   H     0.00683   0.75104   0.80596   0.00000  Uiso   1.00
H640   H     0.20907   0.53149   0.82178   0.00000  Uiso   1.00
H641   H     0.20823   0.97071   0.68820   0.00000  Uiso   1.00
H642   H     0.20641   0.61225   0.82113   0.00000  Uiso   1.00
H643   H     0.20560   0.88990   0.68803   0.00000  Uiso   1.00
H644   H     0.12399   0.52646   0.67949   0.00000  Uiso   1.00
H645   H     0.12508   0.97147   0.81133   0.00000  Uiso   1.00
H646   H     0.23600   0.78855   0.54202   0.00000  Uiso   1.00
N647   N     0.16667   0.75001   0.62934   0.00000  Uiso   1.00
N648   N     0.16667   0.74999   0.87065   0.00000  Uiso   1.00
O649   O     0.16667   0.68573   0.79071   0.00000  Uiso   1.00
O650   O     0.09706   0.90255   0.85446   0.00000  Uiso   1.00
O651   O     0.28666   0.80777   0.62106   0.00000  Uiso   1.00
O652   O     0.10451   0.64500   0.88443   0.00000  Uiso   1.00
O653   O     0.16666   0.81428   0.70928   0.00000  Uiso   1.00
O654   O     0.16667   0.68573   0.70928   0.00000  Uiso   1.00
O655   O     0.16666   0.81427   0.79072   0.00000  Uiso   1.00
O656   O     0.09161   0.75000   0.78132   0.00000  Uiso   1.00
O657   O     0.24172   0.75001   0.71868   0.00000  Uiso   1.00
O658   O     0.09161   0.75000   0.69988   0.00000  Uiso   1.00
O659   O     0.24172   0.75000   0.80011   0.00000  Uiso   1.00
O660   O     0.09505   0.59412   0.62988   0.00000  Uiso   1.00
C661   C     0.49814   0.66494   0.74984   0.00000  Uiso   1.00
C662   C     0.52412   0.78489   0.94838   0.00000  Uiso   1.00
C663   C     0.49872   0.75044   0.52707   0.00000  Uiso   1.00
C664   C     0.49921   0.75092   0.97264   0.00000  Uiso   1.00
C665   C     0.40135   0.74976   0.73771   0.00000  Uiso   1.00
C666   C     0.59866   0.75003   0.76230   0.00000  Uiso   1.00
C667   C     0.34617   0.74929   0.73092   0.00000  Uiso   1.00
C668   C     0.65386   0.75014   0.76915   0.00000  Uiso   1.00
C669   C     0.52324   0.54825   0.79029   0.00000  Uiso   1.00
C670   C     0.52283   0.95299   0.71533   0.00000  Uiso   1.00
C671   C     0.52118   0.59412   0.78998   0.00000  Uiso   1.00
C672   C     0.49824   0.83499   0.74976   0.00000  Uiso   1.00
C673   C     0.52078   0.90703   0.71506   0.00000  Uiso   1.00
C674   C     0.49628   0.61644   0.74963   0.00000  Uiso   1.00
C675   C     0.49639   0.88343   0.74970   0.00000  Uiso   1.00
C676   C     0.47185   0.59195   0.70939   0.00000  Uiso   1.00
C677   C     0.47254   0.90670   0.78456   0.00000  Uiso   1.00
C678   C     0.47592   0.54588   0.70968   0.00000  Uiso   1.00
C679   C     0.47659   0.95297   0.78528   0.00000  Uiso   1.00
C680   C     0.50124   0.52418   0.74992   0.00000  Uiso   1.00
C681   C     0.50133   0.97594   0.75078   0.00000  Uiso   1.00
C682   C     0.43908   0.61306   0.66856   0.00000  Uiso   1.00
C683   C     0.53818   0.77185   0.55750   0.00000  Uiso   1.00
C684   C     0.44049   0.88402   0.81818   0.00000  Uiso   1.00
C685   C     0.57885   0.80019   0.63624   0.00000  Uiso   1.00
C686   C     0.44314   0.68145   0.86621   0.00000  Uiso   1.00
C687   C     0.47505   0.71668   0.94404   0.00000  Uiso   1.00
C688   C     0.53797   0.77270   0.60804   0.00000  Uiso   1.00
C689   C     0.47424   0.71696   0.89338   0.00000  Uiso   1.00
C690   C     0.46149   0.72812   0.60046   0.00000  Uiso   1.00
C691   C     0.52470   0.78343   0.89785   0.00000  Uiso   1.00
C692   C     0.45972   0.72843   0.54963   0.00000  Uiso   1.00
Cu693  Cu    0.50000   0.75000   0.79821   0.00000  Uiso   1.00
Cu694  Cu    0.50000   0.75001   0.70178   0.00000  Uiso   1.00
H695   H     0.65991   0.74815   0.69414   0.00000  Uiso   1.00
H696   H     0.45603   0.68960   0.96092   0.00000  Uiso   1.00
H697   H     0.43131   0.71074   0.61665   0.00000  Uiso   1.00
H698   H     0.54454   0.80964   0.88040   0.00000  Uiso   1.00
H699   H     0.42737   0.71187   0.52844   0.00000  Uiso   1.00
H700   H     0.54271   0.81297   0.96788   0.00000  Uiso   1.00
H701   H     0.42327   0.64535   0.67273   0.00000  Uiso   1.00
H702   H     0.42468   0.85090   0.81066   0.00000  Uiso   1.00
H703   H     0.57328   0.81494   0.67007   0.00000  Uiso   1.00
H704   H     0.42366   0.68698   0.83037   0.00000  Uiso   1.00
H705   H     0.34017   0.75104   0.80596   0.00000  Uiso   1.00
H706   H     0.54241   0.53149   0.82178   0.00000  Uiso   1.00
H707   H     0.54157   0.97071   0.68820   0.00000  Uiso   1.00
H708   H     0.53974   0.61225   0.82113   0.00000  Uiso   1.00
H709   H     0.53893   0.88990   0.68803   0.00000  Uiso   1.00
H710   H     0.45732   0.52646   0.67949   0.00000  Uiso   1.00
H711   H     0.45841   0.97147   0.81133   0.00000  Uiso   1.00
H712   H     0.56933   0.78855   0.54202   0.00000  Uiso   1.00
N713   N     0.50000   0.75001   0.62934   0.00000  Uiso   1.00
N714   N     0.50000   0.74999   0.87065   0.00000  Uiso   1.00
O715   O     0.50000   0.68573   0.79071   0.00000  Uiso   1.00
O716   O     0.43039   0.90255   0.85446   0.00000  Uiso   1.00
O717   O     0.61999   0.80777   0.62106   0.00000  Uiso   1.00
O718   O     0.43784   0.64500   0.88443   0.00000  Uiso   1.00
O719   O     0.50000   0.81428   0.70928   0.00000  Uiso   1.00
O720   O     0.50000   0.68573   0.70928   0.00000  Uiso   1.00
O721   O     0.50000   0.81427   0.79072   0.00000  Uiso   1.00
O722   O     0.42495   0.75000   0.78132   0.00000  Uiso   1.00
O723   O     0.57505   0.75001   0.71868   0.00000  Uiso   1.00
O724   O     0.42495   0.75000   0.69988   0.00000  Uiso   1.00
O725   O     0.57505   0.75000   0.80011   0.00000  Uiso   1.00
O726   O     0.42838   0.59412   0.62988   0.00000  Uiso   1.00
C727   C     0.83147   0.66494   0.74984   0.00000  Uiso   1.00
C728   C     0.85745   0.78489   0.94838   0.00000  Uiso   1.00
C729   C     0.83206   0.75044   0.52707   0.00000  Uiso   1.00
C730   C     0.83254   0.75092   0.97264   0.00000  Uiso   1.00
C731   C     0.73468   0.74976   0.73771   0.00000  Uiso   1.00
C732   C     0.93199   0.75003   0.76230   0.00000  Uiso   1.00
C733   C     0.67951   0.74929   0.73092   0.00000  Uiso   1.00
C734   C     0.98719   0.75014   0.76915   0.00000  Uiso   1.00
C735   C     0.85657   0.54825   0.79029   0.00000  Uiso   1.00
C736   C     0.85616   0.95299   0.71533   0.00000  Uiso   1.00
C737   C     0.85452   0.59412   0.78998   0.00000  Uiso   1.00
C738   C     0.83158   0.83499   0.74976   0.00000  Uiso   1.00
C739   C     0.85412   0.90703   0.71506   0.00000  Uiso   1.00
C740   C     0.82962   0.61644   0.74963   0.00000  Uiso   1.00
C741   C     0.82972   0.88343   0.74970   0.00000  Uiso   1.00
C742   C     0.80518   0.59195   0.70939   0.00000  Uiso   1.00
C743   C     0.80588   0.90670   0.78456   0.00000  Uiso   1.00
C744   C     0.80926   0.54588   0.70968   0.00000  Uiso   1.00
C745   C     0.80993   0.95297   0.78528   0.00000  Uiso   1.00
C746   C     0.83457   0.52418   0.74992   0.00000  Uiso   1.00
C747   C     0.83466   0.97594   0.75078   0.00000  Uiso   1.00
C748   C     0.77241   0.61306   0.66856   0.00000  Uiso   1.00
C749   C     0.87152   0.77185   0.55750   0.00000  Uiso   1.00
C750   C     0.77382   0.88402   0.81818   0.00000  Uiso   1.00
C751   C     0.91218   0.80019   0.63624   0.00000  Uiso   1.00
C752   C     0.77648   0.68145   0.86621   0.00000  Uiso   1.00
C753   C     0.80838   0.71668   0.94404   0.00000  Uiso   1.00
C754   C     0.87130   0.77270   0.60804   0.00000  Uiso   1.00
C755   C     0.80757   0.71696   0.89338   0.00000  Uiso   1.00
C756   C     0.79482   0.72812   0.60046   0.00000  Uiso   1.00
C757   C     0.85804   0.78343   0.89785   0.00000  Uiso   1.00
C758   C     0.79305   0.72843   0.54963   0.00000  Uiso   1.00
Cu759  Cu    0.83333   0.75000   0.79821   0.00000  Uiso   1.00
Cu760  Cu    0.83333   0.75001   0.70178   0.00000  Uiso   1.00
H761   H     0.99324   0.74815   0.69414   0.00000  Uiso   1.00
H762   H     0.78937   0.68960   0.96092   0.00000  Uiso   1.00
H763   H     0.76464   0.71074   0.61665   0.00000  Uiso   1.00
H764   H     0.87787   0.80964   0.88040   0.00000  Uiso   1.00
H765   H     0.76071   0.71187   0.52844   0.00000  Uiso   1.00
H766   H     0.87604   0.81297   0.96788   0.00000  Uiso   1.00
H767   H     0.75660   0.64535   0.67273   0.00000  Uiso   1.00
H768   H     0.75801   0.85090   0.81066   0.00000  Uiso   1.00
H769   H     0.90662   0.81494   0.67007   0.00000  Uiso   1.00
H770   H     0.75700   0.68698   0.83037   0.00000  Uiso   1.00
H771   H     0.67350   0.75104   0.80596   0.00000  Uiso   1.00
H772   H     0.87574   0.53149   0.82178   0.00000  Uiso   1.00
H773   H     0.87490   0.97071   0.68820   0.00000  Uiso   1.00
H774   H     0.87307   0.61225   0.82113   0.00000  Uiso   1.00
H775   H     0.87227   0.88990   0.68803   0.00000  Uiso   1.00
H776   H     0.79066   0.52646   0.67949   0.00000  Uiso   1.00
H777   H     0.79175   0.97147   0.81133   0.00000  Uiso   1.00
H778   H     0.90267   0.78855   0.54202   0.00000  Uiso   1.00
N779   N     0.83333   0.75001   0.62934   0.00000  Uiso   1.00
N780   N     0.83333   0.74999   0.87065   0.00000  Uiso   1.00
O781   O     0.83334   0.68573   0.79071   0.00000  Uiso   1.00
O782   O     0.76372   0.90255   0.85446   0.00000  Uiso   1.00
O783   O     0.95333   0.80777   0.62106   0.00000  Uiso   1.00
O784   O     0.77118   0.64500   0.88443   0.00000  Uiso   1.00
O785   O     0.83333   0.81428   0.70928   0.00000  Uiso   1.00
O786   O     0.83334   0.68573   0.70928   0.00000  Uiso   1.00
O787   O     0.83333   0.81427   0.79072   0.00000  Uiso   1.00
O788   O     0.75828   0.75000   0.78132   0.00000  Uiso   1.00
O789   O     0.90839   0.75001   0.71868   0.00000  Uiso   1.00
O790   O     0.75828   0.75000   0.69988   0.00000  Uiso   1.00
O791   O     0.90839   0.75000   0.80011   0.00000  Uiso   1.00
O792   O     0.76172   0.59412   0.62988   0.00000  Uiso   1.00
loop_
_geom_bond_atom_site_label_1
_geom_bond_atom_site_label_2
_geom_bond_distance
_geom_bond_site_symmetry_2
_ccdc_geom_bond_type
C1     O55     1.300   .     A
C1     O60     1.295   .     A
C1     C14     1.466   .     S
C2     C4      1.415   .     A
C2     H40     1.081   .     S
C2     C31     1.412   .     A
C3     C23     1.397   .     A
C3     C32     1.414   .     A
C3     C400    1.519   1_554 S
C4     C27     1.397   .     A
C4     C399    1.519   .     S
C5     O62     1.291   .     A
C5     C7      1.432   .     S
C5     O64     1.289   .     A
C6     O63     1.291   .     A
C6     C8      1.433   .     S
C6     O65     1.288   .     A
C7     C140    1.331   1_455 S
C7     H167    1.086   1_455 S
C8     C73     1.331   .     S
C8     H111    1.087   .     S
C9     C20     1.396   .     A
C9     C11     1.389   .     A
C9     H46     1.083   .     S
C10    C21     1.396   .     A
C10    H47     1.083   .     S
C10    C13     1.389   .     A
C11    H48     1.084   .     S
C11    C14     1.404   .     A
C12    C15     1.466   .     S
C12    O59     1.301   .     A
C12    O61     1.295   .     A
C13    H49     1.083   .     S
C13    C15     1.404   .     A
C14    C16     1.420   .     A
C15    C17     1.421   .     A
C16    C18     1.399   .     A
C16    C22     1.486   .     S
C17    C19     1.400   .     A
C17    C24     1.487   .     S
C18    C20     1.397   .     A
C18    H50     1.084   .     S
C19    H51     1.084   .     S
C19    C21     1.397   .     A
C20    C219    1.458   1_545 S
C21    C218    1.458   .     S
C22    O66     1.221   .     D
C22    H41     1.084   .     S
C23    C28     1.410   .     A
C23    H52     1.081   .     S
C24    O56     1.221   .     D
C24    H42     1.084   .     S
C25    H43     1.074   .     S
C25    C28     1.482   .     S
C25    O57     1.222   .     D
C26    O58     1.222   .     D
C26    C29     1.481   .     S
C26    H44     1.076   .     S
C27    H36     1.082   .     S
C27    C29     1.410   .     A
C28    N53     1.385   .     A
C29    N54     1.384   .     A
C30    N53     1.365   .     A
C30    C32     1.412   .     A
C30    H37     1.081   .     S
C31    H38     1.081   .     S
C31    N54     1.365   .     A
C32    H39     1.081   .     S
Cu33   O55     1.955   .     S
Cu33   Cu34    2.688   .     S
Cu33   O65     1.959   .     S
Cu33   O61     1.952   .     S
Cu33   N54     2.019   .     S
Cu33   O62     1.961   .     S
Cu34   O64     1.959   .     S
Cu34   O60     1.952   .     S
Cu34   O63     1.961   .     S
Cu34   O59     1.955   .     S
Cu34   N53     2.019   .     S
H35    C73     1.086   .     S
H45    C140    1.087   1_455 S
C67    O121    1.300   .     A
C67    O126    1.295   .     A
C67    C80     1.466   .     S
C68    C70     1.415   .     A
C68    H106    1.081   .     S
C68    C97     1.412   .     A
C69    C89     1.397   .     A
C69    C98     1.414   .     A
C69    C466    1.519   1_554 S
C70    C93     1.397   .     A
C70    C465    1.519   .     S
C71    O128    1.291   .     A
C71    C73     1.432   .     S
C71    O130    1.289   .     A
C72    O129    1.291   .     A
C72    C74     1.433   .     S
C72    O131    1.288   .     A
C74    C139    1.331   .     S
C74    H177    1.087   .     S
C75    C86     1.396   .     A
C75    C77     1.389   .     A
C75    H112    1.083   .     S
C76    C87     1.396   .     A
C76    H113    1.083   .     S
C76    C79     1.389   .     A
C77    H114    1.084   .     S
C77    C80     1.404   .     A
C78    C81     1.466   .     S
C78    O125    1.301   .     A
C78    O127    1.295   .     A
C79    H115    1.083   .     S
C79    C81     1.404   .     A
C80    C82     1.420   .     A
C81    C83     1.421   .     A
C82    C84     1.399   .     A
C82    C88     1.486   .     S
C83    C85     1.400   .     A
C83    C90     1.487   .     S
C84    C86     1.397   .     A
C84    H116    1.084   .     S
C85    H117    1.084   .     S
C85    C87     1.397   .     A
C86    C285    1.458   1_545 S
C87    C284    1.458   .     S
C88    O132    1.221   .     D
C88    H107    1.084   .     S
C89    C94     1.410   .     A
C89    H118    1.081   .     S
C90    O122    1.221   .     D
C90    H108    1.084   .     S
C91    H109    1.074   .     S
C91    C94     1.482   .     S
C91    O123    1.222   .     D
C92    O124    1.222   .     D
C92    C95     1.481   .     S
C92    H110    1.076   .     S
C93    H102    1.082   .     S
C93    C95     1.410   .     A
C94    N119    1.385   .     A
C95    N120    1.384   .     A
C96    N119    1.365   .     A
C96    C98     1.412   .     A
C96    H103    1.081   .     S
C97    H104    1.081   .     S
C97    N120    1.365   .     A
C98    H105    1.081   .     S
Cu99   O121    1.955   .     S
Cu99   Cu100   2.688   .     S
Cu99   O131    1.959   .     S
Cu99   O127    1.952   .     S
Cu99   N120    2.019   .     S
Cu99   O128    1.961   .     S
Cu100  O130    1.959   .     S
Cu100  O126    1.952   .     S
Cu100  O129    1.961   .     S
Cu100  O125    1.955   .     S
Cu100  N119    2.019   .     S
H101   C139    1.086   .     S
C133   O187    1.300   .     A
C133   O192    1.295   .     A
C133   C146    1.466   .     S
C134   C136    1.415   .     A
C134   H172    1.081   .     S
C134   C163    1.412   .     A
C135   C155    1.397   .     A
C135   C164    1.414   .     A
C135   C532    1.519   1_554 S
C136   C159    1.397   .     A
C136   C531    1.519   .     S
C137   O194    1.291   .     A
C137   C139    1.432   .     S
C137   O196    1.289   .     A
C138   O195    1.291   .     A
C138   C140    1.433   .     S
C138   O197    1.288   .     A
C140   C7      1.331   1_655 S
C140   H45     1.087   1_655 S
C141   C152    1.396   .     A
C141   C143    1.389   .     A
C141   H178    1.083   .     S
C142   C153    1.396   .     A
C142   H179    1.083   .     S
C142   C145    1.389   .     A
C143   H180    1.084   .     S
C143   C146    1.404   .     A
C144   C147    1.466   .     S
C144   O191    1.301   .     A
C144   O193    1.295   .     A
C145   H181    1.083   .     S
C145   C147    1.404   .     A
C146   C148    1.420   .     A
C147   C149    1.421   .     A
C148   C150    1.399   .     A
C148   C154    1.486   .     S
C149   C151    1.400   .     A
C149   C156    1.487   .     S
C150   C152    1.397   .     A
C150   H182    1.084   .     S
C151   H183    1.084   .     S
C151   C153    1.397   .     A
C152   C351    1.458   1_545 S
C153   C350    1.458   .     S
C154   O198    1.221   .     D
C154   H173    1.084   .     S
C155   C160    1.410   .     A
C155   H184    1.081   .     S
C156   O188    1.221   .     D
C156   H174    1.084   .     S
C157   H175    1.074   .     S
C157   C160    1.482   .     S
C157   O189    1.222   .     D
C158   O190    1.222   .     D
C158   C161    1.481   .     S
C158   H176    1.076   .     S
C159   H168    1.082   .     S
C159   C161    1.410   .     A
C160   N185    1.385   .     A
C161   N186    1.384   .     A
C162   N185    1.365   .     A
C162   C164    1.412   .     A
C162   H169    1.081   .     S
C163   H170    1.081   .     S
C163   N186    1.365   .     A
C164   H171    1.081   .     S
Cu165  O187    1.955   .     S
Cu165  Cu166   2.688   .     S
Cu165  O197    1.959   .     S
Cu165  O193    1.952   .     S
Cu165  N186    2.019   .     S
Cu165  O194    1.961   .     S
Cu166  O196    1.959   .     S
Cu166  O192    1.952   .     S
Cu166  O195    1.961   .     S
Cu166  O191    1.955   .     S
Cu166  N185    2.019   .     S
H167   C7      1.086   1_655 S
C199   O253    1.300   .     A
C199   O258    1.295   .     A
C199   C212    1.466   .     S
C200   C202    1.415   .     A
C200   H238    1.081   .     S
C200   C229    1.412   .     A
C201   C221    1.397   .     A
C201   C230    1.414   .     A
C201   C598    1.519   1_554 S
C202   C225    1.397   .     A
C202   C597    1.519   .     S
C203   O260    1.291   .     A
C203   C205    1.432   .     S
C203   O262    1.289   .     A
C204   O261    1.291   .     A
C204   C206    1.433   .     S
C204   O263    1.288   .     A
C205   C338    1.331   1_455 S
C205   H365    1.086   1_455 S
C206   C271    1.331   .     S
C206   H309    1.087   .     S
C207   C218    1.396   .     A
C207   C209    1.389   .     A
C207   H244    1.083   .     S
C208   C219    1.396   .     A
C208   H245    1.083   .     S
C208   C211    1.389   .     A
C209   H246    1.084   .     S
C209   C212    1.404   .     A
C210   C213    1.466   .     S
C210   O257    1.301   .     A
C210   O259    1.295   .     A
C211   H247    1.083   .     S
C211   C213    1.404   .     A
C212   C214    1.420   .     A
C213   C215    1.421   .     A
C214   C216    1.399   .     A
C214   C220    1.486   .     S
C215   C217    1.400   .     A
C215   C222    1.487   .     S
C216   C218    1.397   .     A
C216   H248    1.084   .     S
C217   H249    1.084   .     S
C217   C219    1.397   .     A
C219   C20     1.458   1_565 S
C220   O264    1.221   .     D
C220   H239    1.084   .     S
C221   C226    1.410   .     A
C221   H250    1.081   .     S
C222   O254    1.221   .     D
C222   H240    1.084   .     S
C223   H241    1.074   .     S
C223   C226    1.482   .     S
C223   O255    1.222   .     D
C224   O256    1.222   .     D
C224   C227    1.481   .     S
C224   H242    1.076   .     S
C225   H234    1.082   .     S
C225   C227    1.410   .     A
C226   N251    1.385   .     A
C227   N252    1.384   .     A
C228   N251    1.365   .     A
C228   C230    1.412   .     A
C228   H235    1.081   .     S
C229   H236    1.081   .     S
C229   N252    1.365   .     A
C230   H237    1.081   .     S
Cu231  O253    1.955   .     S
Cu231  Cu232   2.688   .     S
Cu231  O263    1.959   .     S
Cu231  O259    1.952   .     S
Cu231  N252    2.019   .     S
Cu231  O260    1.961   .     S
Cu232  O262    1.959   .     S
Cu232  O258    1.952   .     S
Cu232  O261    1.961   .     S
Cu232  O257    1.955   .     S
Cu232  N251    2.019   .     S
H233   C271    1.086   .     S
H243   C338    1.087   1_455 S
C265   O319    1.300   .     A
C265   O324    1.295   .     A
C265   C278    1.466   .     S
C266   C268    1.415   .     A
C266   H304    1.081   .     S
C266   C295    1.412   .     A
C267   C287    1.397   .     A
C267   C296    1.414   .     A
C267   C664    1.519   1_554 S
C268   C291    1.397   .     A
C268   C663    1.519   .     S
C269   O326    1.291   .     A
C269   C271    1.432   .     S
C269   O328    1.289   .     A
C270   O327    1.291   .     A
C270   C272    1.433   .     S
C270   O329    1.288   .     A
C272   C337    1.331   .     S
C272   H375    1.087   .     S
C273   C284    1.396   .     A
C273   C275    1.389   .     A
C273   H310    1.083   .     S
C274   C285    1.396   .     A
C274   H311    1.083   .     S
C274   C277    1.389   .     A
C275   H312    1.084   .     S
C275   C278    1.404   .     A
C276   C279    1.466   .     S
C276   O323    1.301   .     A
C276   O325    1.295   .     A
C277   H313    1.083   .     S
C277   C279    1.404   .     A
C278   C280    1.420   .     A
C279   C281    1.421   .     A
C280   C282    1.399   .     A
C280   C286    1.486   .     S
C281   C283    1.400   .     A
C281   C288    1.487   .     S
C282   C284    1.397   .     A
C282   H314    1.084   .     S
C283   H315    1.084   .     S
C283   C285    1.397   .     A
C285   C86     1.458   1_565 S
C286   O330    1.221   .     D
C286   H305    1.084   .     S
C287   C292    1.410   .     A
C287   H316    1.081   .     S
C288   O320    1.221   .     D
C288   H306    1.084   .     S
C289   H307    1.074   .     S
C289   C292    1.482   .     S
C289   O321    1.222   .     D
C290   O322    1.222   .     D
C290   C293    1.481   .     S
C290   H308    1.076   .     S
C291   H300    1.082   .     S
C291   C293    1.410   .     A
C292   N317    1.385   .     A
C293   N318    1.384   .     A
C294   N317    1.365   .     A
C294   C296    1.412   .     A
C294   H301    1.081   .     S
C295   H302    1.081   .     S
C295   N318    1.365   .     A
C296   H303    1.081   .     S
Cu297  O319    1.955   .     S
Cu297  Cu298   2.688   .     S
Cu297  O329    1.959   .     S
Cu297  O325    1.952   .     S
Cu297  N318    2.019   .     S
Cu297  O326    1.961   .     S
Cu298  O328    1.959   .     S
Cu298  O324    1.952   .     S
Cu298  O327    1.961   .     S
Cu298  O323    1.955   .     S
Cu298  N317    2.019   .     S
H299   C337    1.086   .     S
C331   O385    1.300   .     A
C331   O390    1.295   .     A
C331   C344    1.466   .     S
C332   C334    1.415   .     A
C332   H370    1.081   .     S
C332   C361    1.412   .     A
C333   C353    1.397   .     A
C333   C362    1.414   .     A
C333   C730    1.519   1_554 S
C334   C357    1.397   .     A
C334   C729    1.519   .     S
C335   O392    1.291   .     A
C335   C337    1.432   .     S
C335   O394    1.289   .     A
C336   O393    1.291   .     A
C336   C338    1.433   .     S
C336   O395    1.288   .     A
C338   C205    1.331   1_655 S
C338   H243    1.087   1_655 S
C339   C350    1.396   .     A
C339   C341    1.389   .     A
C339   H376    1.083   .     S
C340   C351    1.396   .     A
C340   H377    1.083   .     S
C340   C343    1.389   .     A
C341   H378    1.084   .     S
C341   C344    1.404   .     A
C342   C345    1.466   .     S
C342   O389    1.301   .     A
C342   O391    1.295   .     A
C343   H379    1.083   .     S
C343   C345    1.404   .     A
C344   C346    1.420   .     A
C345   C347    1.421   .     A
C346   C348    1.399   .     A
C346   C352    1.486   .     S
C347   C349    1.400   .     A
C347   C354    1.487   .     S
C348   C350    1.397   .     A
C348   H380    1.084   .     S
C349   H381    1.084   .     S
C349   C351    1.397   .     A
C351   C152    1.458   1_565 S
C352   O396    1.221   .     D
C352   H371    1.084   .     S
C353   C358    1.410   .     A
C353   H382    1.081   .     S
C354   O386    1.221   .     D
C354   H372    1.084   .     S
C355   H373    1.074   .     S
C355   C358    1.482   .     S
C355   O387    1.222   .     D
C356   O388    1.222   .     D
C356   C359    1.481   .     S
C356   H374    1.076   .     S
C357   H366    1.082   .     S
C357   C359    1.410   .     A
C358   N383    1.385   .     A
C359   N384    1.384   .     A
C360   N383    1.365   .     A
C360   C362    1.412   .     A
C360   H367    1.081   .     S
C361   H368    1.081   .     S
C361   N384    1.365   .     A
C362   H369    1.081   .     S
Cu363  O385    1.955   .     S
Cu363  Cu364   2.688   .     S
Cu363  O395    1.959   .     S
Cu363  O391    1.952   .     S
Cu363  N384    2.019   .     S
Cu363  O392    1.961   .     S
Cu364  O394    1.959   .     S
Cu364  O390    1.952   .     S
Cu364  O393    1.961   .     S
Cu364  O389    1.955   .     S
Cu364  N383    2.019   .     S
H365   C205    1.086   1_655 S
C397   O451    1.300   .     A
C397   O456    1.295   .     A
C397   C410    1.466   .     S
C398   C400    1.415   .     A
C398   H436    1.081   .     S
C398   C427    1.412   .     A
C399   C419    1.397   .     A
C399   C428    1.414   .     A
C400   C423    1.397   .     A
C400   C3      1.519   1_556 S
C401   O458    1.291   .     A
C401   C403    1.432   .     S
C401   O460    1.289   .     A
C402   O459    1.291   .     A
C402   C404    1.433   .     S
C402   O461    1.288   .     A
C403   C536    1.331   1_455 S
C403   H563    1.086   1_455 S
C404   C469    1.331   .     S
C404   H507    1.087   .     S
C405   C416    1.396   .     A
C405   C407    1.389   .     A
C405   H442    1.083   .     S
C406   C417    1.396   .     A
C406   H443    1.083   .     S
C406   C409    1.389   .     A
C407   H444    1.084   .     S
C407   C410    1.404   .     A
C408   C411    1.466   .     S
C408   O455    1.301   .     A
C408   O457    1.295   .     A
C409   H445    1.083   .     S
C409   C411    1.404   .     A
C410   C412    1.420   .     A
C411   C413    1.421   .     A
C412   C414    1.399   .     A
C412   C418    1.486   .     S
C413   C415    1.400   .     A
C413   C420    1.487   .     S
C414   C416    1.397   .     A
C414   H446    1.084   .     S
C415   H447    1.084   .     S
C415   C417    1.397   .     A
C416   C615    1.458   1_545 S
C417   C614    1.458   .     S
C418   O462    1.221   .     D
C418   H437    1.084   .     S
C419   C424    1.410   .     A
C419   H448    1.081   .     S
C420   O452    1.221   .     D
C420   H438    1.084   .     S
C421   H439    1.074   .     S
C421   C424    1.482   .     S
C421   O453    1.222   .     D
C422   O454    1.222   .     D
C422   C425    1.481   .     S
C422   H440    1.076   .     S
C423   H432    1.082   .     S
C423   C425    1.410   .     A
C424   N449    1.385   .     A
C425   N450    1.384   .     A
C426   N449    1.365   .     A
C426   C428    1.412   .     A
C426   H433    1.081   .     S
C427   H434    1.081   .     S
C427   N450    1.365   .     A
C428   H435    1.081   .     S
Cu429  O451    1.955   .     S
Cu429  Cu430   2.688   .     S
Cu429  O461    1.959   .     S
Cu429  O457    1.952   .     S
Cu429  N450    2.019   .     S
Cu429  O458    1.961   .     S
Cu430  O460    1.959   .     S
Cu430  O456    1.952   .     S
Cu430  O459    1.961   .     S
Cu430  O455    1.955   .     S
Cu430  N449    2.019   .     S
H431   C469    1.086   .     S
H441   C536    1.087   1_455 S
C463   O517    1.300   .     A
C463   O522    1.295   .     A
C463   C476    1.466   .     S
C464   C466    1.415   .     A
C464   H502    1.081   .     S
C464   C493    1.412   .     A
C465   C485    1.397   .     A
C465   C494    1.414   .     A
C466   C489    1.397   .     A
C466   C69     1.519   1_556 S
C467   O524    1.291   .     A
C467   C469    1.432   .     S
C467   O526    1.289   .     A
C468   O525    1.291   .     A
C468   C470    1.433   .     S
C468   O527    1.288   .     A
C470   C535    1.331   .     S
C470   H573    1.087   .     S
C471   C482    1.396   .     A
C471   C473    1.389   .     A
C471   H508    1.083   .     S
C472   C483    1.396   .     A
C472   H509    1.083   .     S
C472   C475    1.389   .     A
C473   H510    1.084   .     S
C473   C476    1.404   .     A
C474   C477    1.466   .     S
C474   O521    1.301   .     A
C474   O523    1.295   .     A
C475   H511    1.083   .     S
C475   C477    1.404   .     A
C476   C478    1.420   .     A
C477   C479    1.421   .     A
C478   C480    1.399   .     A
C478   C484    1.486   .     S
C479   C481    1.400   .     A
C479   C486    1.487   .     S
C480   C482    1.397   .     A
C480   H512    1.084   .     S
C481   H513    1.084   .     S
C481   C483    1.397   .     A
C482   C681    1.458   1_545 S
C483   C680    1.458   .     S
C484   O528    1.221   .     D
C484   H503    1.084   .     S
C485   C490    1.410   .     A
C485   H514    1.081   .     S
C486   O518    1.221   .     D
C486   H504    1.084   .     S
C487   H505    1.074   .     S
C487   C490    1.482   .     S
C487   O519    1.222   .     D
C488   O520    1.222   .     D
C488   C491    1.481   .     S
C488   H506    1.076   .     S
C489   H498    1.082   .     S
C489   C491    1.410   .     A
C490   N515    1.385   .     A
C491   N516    1.384   .     A
C492   N515    1.365   .     A
C492   C494    1.412   .     A
C492   H499    1.081   .     S
C493   H500    1.081   .     S
C493   N516    1.365   .     A
C494   H501    1.081   .     S
Cu495  O517    1.955   .     S
Cu495  Cu496   2.688   .     S
Cu495  O527    1.959   .     S
Cu495  O523    1.952   .     S
Cu495  N516    2.019   .     S
Cu495  O524    1.961   .     S
Cu496  O526    1.959   .     S
Cu496  O522    1.952   .     S
Cu496  O525    1.961   .     S
Cu496  O521    1.955   .     S
Cu496  N515    2.019   .     S
H497   C535    1.086   .     S
C529   O583    1.300   .     A
C529   O588    1.295   .     A
C529   C542    1.466   .     S
C530   C532    1.415   .     A
C530   H568    1.081   .     S
C530   C559    1.412   .     A
C531   C551    1.397   .     A
C531   C560    1.414   .     A
C532   C555    1.397   .     A
C532   C135    1.519   1_556 S
C533   O590    1.291   .     A
C533   C535    1.432   .     S
C533   O592    1.289   .     A
C534   O591    1.291   .     A
C534   C536    1.433   .     S
C534   O593    1.288   .     A
C536   C403    1.331   1_655 S
C536   H441    1.087   1_655 S
C537   C548    1.396   .     A
C537   C539    1.389   .     A
C537   H574    1.083   .     S
C538   C549    1.396   .     A
C538   H575    1.083   .     S
C538   C541    1.389   .     A
C539   H576    1.084   .     S
C539   C542    1.404   .     A
C540   C543    1.466   .     S
C540   O587    1.301   .     A
C540   O589    1.295   .     A
C541   H577    1.083   .     S
C541   C543    1.404   .     A
C542   C544    1.420   .     A
C543   C545    1.421   .     A
C544   C546    1.399   .     A
C544   C550    1.486   .     S
C545   C547    1.400   .     A
C545   C552    1.487   .     S
C546   C548    1.397   .     A
C546   H578    1.084   .     S
C547   H579    1.084   .     S
C547   C549    1.397   .     A
C548   C747    1.458   1_545 S
C549   C746    1.458   .     S
C550   O594    1.221   .     D
C550   H569    1.084   .     S
C551   C556    1.410   .     A
C551   H580    1.081   .     S
C552   O584    1.221   .     D
C552   H570    1.084   .     S
C553   H571    1.074   .     S
C553   C556    1.482   .     S
C553   O585    1.222   .     D
C554   O586    1.222   .     D
C554   C557    1.481   .     S
C554   H572    1.076   .     S
C555   H564    1.082   .     S
C555   C557    1.410   .     A
C556   N581    1.385   .     A
C557   N582    1.384   .     A
C558   N581    1.365   .     A
C558   C560    1.412   .     A
C558   H565    1.081   .     S
C559   H566    1.081   .     S
C559   N582    1.365   .     A
C560   H567    1.081   .     S
Cu561  O583    1.955   .     S
Cu561  Cu562   2.688   .     S
Cu561  O593    1.959   .     S
Cu561  O589    1.952   .     S
Cu561  N582    2.019   .     S
Cu561  O590    1.961   .     S
Cu562  O592    1.959   .     S
Cu562  O588    1.952   .     S
Cu562  O591    1.961   .     S
Cu562  O587    1.955   .     S
Cu562  N581    2.019   .     S
H563   C403    1.086   1_655 S
C595   O649    1.300   .     A
C595   O654    1.295   .     A
C595   C608    1.466   .     S
C596   C598    1.415   .     A
C596   H634    1.081   .     S
C596   C625    1.412   .     A
C597   C617    1.397   .     A
C597   C626    1.414   .     A
C598   C621    1.397   .     A
C598   C201    1.519   1_556 S
C599   O656    1.291   .     A
C599   C601    1.432   .     S
C599   O658    1.289   .     A
C600   O657    1.291   .     A
C600   C602    1.433   .     S
C600   O659    1.288   .     A
C601   C734    1.331   1_455 S
C601   H761    1.086   1_455 S
C602   C667    1.331   .     S
C602   H705    1.087   .     S
C603   C614    1.396   .     A
C603   C605    1.389   .     A
C603   H640    1.083   .     S
C604   C615    1.396   .     A
C604   H641    1.083   .     S
C604   C607    1.389   .     A
C605   H642    1.084   .     S
C605   C608    1.404   .     A
C606   C609    1.466   .     S
C606   O653    1.301   .     A
C606   O655    1.295   .     A
C607   H643    1.083   .     S
C607   C609    1.404   .     A
C608   C610    1.420   .     A
C609   C611    1.421   .     A
C610   C612    1.399   .     A
C610   C616    1.486   .     S
C611   C613    1.400   .     A
C611   C618    1.487   .     S
C612   C614    1.397   .     A
C612   H644    1.084   .     S
C613   H645    1.084   .     S
C613   C615    1.397   .     A
C615   C416    1.458   1_565 S
C616   O660    1.221   .     D
C616   H635    1.084   .     S
C617   C622    1.410   .     A
C617   H646    1.081   .     S
C618   O650    1.221   .     D
C618   H636    1.084   .     S
C619   H637    1.074   .     S
C619   C622    1.482   .     S
C619   O651    1.222   .     D
C620   O652    1.222   .     D
C620   C623    1.481   .     S
C620   H638    1.076   .     S
C621   H630    1.082   .     S
C621   C623    1.410   .     A
C622   N647    1.385   .     A
C623   N648    1.384   .     A
C624   N647    1.365   .     A
C624   C626    1.412   .     A
C624   H631    1.081   .     S
C625   H632    1.081   .     S
C625   N648    1.365   .     A
C626   H633    1.081   .     S
Cu627  O649    1.955   .     S
Cu627  Cu628   2.688   .     S
Cu627  O659    1.959   .     S
Cu627  O655    1.952   .     S
Cu627  N648    2.019   .     S
Cu627  O656    1.961   .     S
Cu628  O658    1.959   .     S
Cu628  O654    1.952   .     S
Cu628  O657    1.961   .     S
Cu628  O653    1.955   .     S
Cu628  N647    2.019   .     S
H629   C667    1.086   .     S
H639   C734    1.087   1_455 S
C661   O715    1.300   .     A
C661   O720    1.295   .     A
C661   C674    1.466   .     S
C662   C664    1.415   .     A
C662   H700    1.081   .     S
C662   C691    1.412   .     A
C663   C683    1.397   .     A
C663   C692    1.414   .     A
C664   C687    1.397   .     A
C664   C267    1.519   1_556 S
C665   O722    1.291   .     A
C665   C667    1.432   .     S
C665   O724    1.289   .     A
C666   O723    1.291   .     A
C666   C668    1.433   .     S
C666   O725    1.288   .     A
C668   C733    1.331   .     S
C668   H771    1.087   .     S
C669   C680    1.396   .     A
C669   C671    1.389   .     A
C669   H706    1.083   .     S
C670   C681    1.396   .     A
C670   H707    1.083   .     S
C670   C673    1.389   .     A
C671   H708    1.084   .     S
C671   C674    1.404   .     A
C672   C675    1.466   .     S
C672   O719    1.301   .     A
C672   O721    1.295   .     A
C673   H709    1.083   .     S
C673   C675    1.404   .     A
C674   C676    1.420   .     A
C675   C677    1.421   .     A
C676   C678    1.399   .     A
C676   C682    1.486   .     S
C677   C679    1.400   .     A
C677   C684    1.487   .     S
C678   C680    1.397   .     A
C678   H710    1.084   .     S
C679   H711    1.084   .     S
C679   C681    1.397   .     A
C681   C482    1.458   1_565 S
C682   O726    1.221   .     D
C682   H701    1.084   .     S
C683   C688    1.410   .     A
C683   H712    1.081   .     S
C684   O716    1.221   .     D
C684   H702    1.084   .     S
C685   H703    1.074   .     S
C685   C688    1.482   .     S
C685   O717    1.222   .     D
C686   O718    1.222   .     D
C686   C689    1.481   .     S
C686   H704    1.076   .     S
C687   H696    1.082   .     S
C687   C689    1.410   .     A
C688   N713    1.385   .     A
C689   N714    1.384   .     A
C690   N713    1.365   .     A
C690   C692    1.412   .     A
C690   H697    1.081   .     S
C691   H698    1.081   .     S
C691   N714    1.365   .     A
C692   H699    1.081   .     S
Cu693  O715    1.955   .     S
Cu693  Cu694   2.688   .     S
Cu693  O725    1.959   .     S
Cu693  O721    1.952   .     S
Cu693  N714    2.019   .     S
Cu693  O722    1.961   .     S
Cu694  O724    1.959   .     S
Cu694  O720    1.952   .     S
Cu694  O723    1.961   .     S
Cu694  O719    1.955   .     S
Cu694  N713    2.019   .     S
H695   C733    1.086   .     S
C727   O781    1.300   .     A
C727   O786    1.295   .     A
C727   C740    1.466   .     S
C728   C730    1.415   .     A
C728   H766    1.081   .     S
C728   C757    1.412   .     A
C729   C749    1.397   .     A
C729   C758    1.414   .     A
C730   C753    1.397   .     A
C730   C333    1.519   1_556 S
C731   O788    1.291   .     A
C731   C733    1.432   .     S
C731   O790    1.289   .     A
C732   O789    1.291   .     A
C732   C734    1.433   .     S
C732   O791    1.288   .     A
C734   C601    1.331   1_655 S
C734   H639    1.087   1_655 S
C735   C746    1.396   .     A
C735   C737    1.389   .     A
C735   H772    1.083   .     S
C736   C747    1.396   .     A
C736   H773    1.083   .     S
C736   C739    1.389   .     A
C737   H774    1.084   .     S
C737   C740    1.404   .     A
C738   C741    1.466   .     S
C738   O785    1.301   .     A
C738   O787    1.295   .     A
C739   H775    1.083   .     S
C739   C741    1.404   .     A
C740   C742    1.420   .     A
C741   C743    1.421   .     A
C742   C744    1.399   .     A
C742   C748    1.486   .     S
C743   C745    1.400   .     A
C743   C750    1.487   .     S
C744   C746    1.397   .     A
C744   H776    1.084   .     S
C745   H777    1.084   .     S
C745   C747    1.397   .     A
C747   C548    1.458   1_565 S
C748   O792    1.221   .     D
C748   H767    1.084   .     S
C749   C754    1.410   .     A
C749   H778    1.081   .     S
C750   O782    1.221   .     D
C750   H768    1.084   .     S
C751   H769    1.074   .     S
C751   C754    1.482   .     S
C751   O783    1.222   .     D
C752   O784    1.222   .     D
C752   C755    1.481   .     S
C752   H770    1.076   .     S
C753   H762    1.082   .     S
C753   C755    1.410   .     A
C754   N779    1.385   .     A
C755   N780    1.384   .     A
C756   N779    1.365   .     A
C756   C758    1.412   .     A
C756   H763    1.081   .     S
C757   H764    1.081   .     S
C757   N780    1.365   .     A
C758   H765    1.081   .     S
Cu759  O781    1.955   .     S
Cu759  Cu760   2.688   .     S
Cu759  O791    1.959   .     S
Cu759  O787    1.952   .     S
Cu759  N780    2.019   .     S
Cu759  O788    1.961   .     S
Cu760  O790    1.959   .     S
Cu760  O786    1.952   .     S
Cu760  O789    1.961   .     S
Cu760  O785    1.955   .     S
Cu760  N779    2.019   .     S
H761   C601    1.086   1_655 S
