data_str_m3_o10_o17_pcu_sym.14
_audit_creation_date              2020-01-03
_audit_creation_method            'Materials Studio'
_symmetry_space_group_name_H-M    'P1'
_symmetry_Int_Tables_number       1
_symmetry_cell_setting            triclinic
loop_
_symmetry_equiv_pos_as_xyz
  x,y,z
_cell_length_a                    23.8084
_cell_length_b                    26.0178
_cell_length_c                    29.9598
_cell_angle_alpha                 94.9840
_cell_angle_beta                  85.9259
_cell_angle_gamma                 93.2258
loop_
_atom_site_label
_atom_site_type_symbol
_atom_site_fract_x
_atom_site_fract_y
_atom_site_fract_z
_atom_site_U_iso_or_equiv
_atom_site_adp_type
_atom_site_occupancy
C1     C     0.18137   0.26496   0.25264   0.00000  Uiso   1.00
C2     C     0.18391   0.20956   0.41220   0.00000  Uiso   1.00
C3     C     0.16527   0.15803   0.11562   0.00000  Uiso   1.00
C4     C     0.16759   0.16584   0.38462   0.00000  Uiso   1.00
C5     C     0.19735   0.19619   0.09450   0.00000  Uiso   1.00
C6     C     0.14393   0.12204   0.40361   0.00000  Uiso   1.00
C7     C     0.19861   0.19836   0.04847   0.00000  Uiso   1.00
C8     C     0.13849   0.12079   0.45026   0.00000  Uiso   1.00
C9     C     0.16857   0.15862   0.02299   0.00000  Uiso   1.00
C10    C     0.16844   0.15985   0.47640   0.00000  Uiso   1.00
C11    C     0.13747   0.11835   0.04407   0.00000  Uiso   1.00
C12    C     0.15219   0.06979   0.25630   0.00000  Uiso   1.00
C13    C     0.19506   0.20239   0.45607   0.00000  Uiso   1.00
C14    C     0.22800   0.23949   0.02717   0.00000  Uiso   1.00
C15    C     0.10394   0.08310   0.47175   0.00000  Uiso   1.00
C16    C     0.22676   0.23997   0.48093   0.00000  Uiso   1.00
C17    C     0.10469   0.08217   0.01806   0.00000  Uiso   1.00
C18    C     0.18875   0.31991   0.26376   0.00000  Uiso   1.00
C19    C     0.14422   0.01727   0.26713   0.00000  Uiso   1.00
C20    C     0.16716   0.16730   0.33651   0.00000  Uiso   1.00
C21    C     0.16559   0.16231   0.16374   0.00000  Uiso   1.00
C22    C     0.13767   0.11656   0.09091   0.00000  Uiso   1.00
Cl23   Cl    0.00786   0.13779   0.18332   0.00000  Uiso   1.00
Cl24   Cl    0.32624   0.19172   0.31763   0.00000  Uiso   1.00
H25    H     0.22171   0.22375   0.11510   0.00000  Uiso   1.00
H26    H     0.06242   0.06765   0.32835   0.00000  Uiso   1.00
H27    H     0.12914   0.09049   0.38134   0.00000  Uiso   1.00
H28    H     0.24940   0.27082   0.46403   0.00000  Uiso   1.00
H29    H     0.07656   0.05422   0.03380   0.00000  Uiso   1.00
H30    H     0.02767   0.02333   0.12974   0.00000  Uiso   1.00
H31    H     0.19994   0.26473   0.34024   0.00000  Uiso   1.00
H32    H     0.28862   0.03833   0.04259   0.00000  Uiso   1.00
H33    H     0.29696   0.05480   0.43223   0.00000  Uiso   1.00
H34    H     0.29286   0.30799   0.33402   0.00000  Uiso   1.00
N35    N     0.31678   0.15265   0.23783   0.00000  Uiso   1.00
N36    N     0.01656   0.18068   0.26217   0.00000  Uiso   1.00
O37    O     0.12975   0.24619   0.25299   0.00000  Uiso   1.00
O38    O     0.12607   0.05905   0.16359   0.00000  Uiso   1.00
O39    O     0.03970   0.05507   0.11487   0.00000  Uiso   1.00
O40    O     0.09235   0.25629   0.39800   0.00000  Uiso   1.00
O41    O     0.15960   0.30746   0.44358   0.00000  Uiso   1.00
O42    O     0.18358   0.29425   0.35845   0.00000  Uiso   1.00
O43    O     0.23689   0.30898   0.10071   0.00000  Uiso   1.00
O44    O     0.32380   0.27726   0.06187   0.00000  Uiso   1.00
O45    O     0.26860   0.01026   0.02455   0.00000  Uiso   1.00
O46    O     0.06730   0.02419   0.39839   0.00000  Uiso   1.00
O47    O     0.03462   0.33117   0.47194   0.00000  Uiso   1.00
O48    O     0.20358   0.08714   0.24702   0.00000  Uiso   1.00
O49    O     0.32646   0.07904   0.44491   0.00000  Uiso   1.00
O50    O     0.29064   0.02731   0.24032   0.00000  Uiso   1.00
O51    O     0.25029   0.05446   0.31594   0.00000  Uiso   1.00
O52    O     0.28777   0.29585   0.30222   0.00000  Uiso   1.00
O53    O     0.04688   0.30668   0.24353   0.00000  Uiso   1.00
O54    O     0.07340   0.29225   0.31885   0.00000  Uiso   1.00
O55    O     0.03766   0.04820   0.30702   0.00000  Uiso   1.00
O56    O     0.22613   0.23721   0.24519   0.00000  Uiso   1.00
O57    O     0.10720   0.09613   0.25482   0.00000  Uiso   1.00
O58    O     0.11847   0.17117   0.31998   0.00000  Uiso   1.00
O59    O     0.21486   0.16216   0.18003   0.00000  Uiso   1.00
O60    O     0.21485   0.16219   0.31218   0.00000  Uiso   1.00
O61    O     0.11848   0.17115   0.18783   0.00000  Uiso   1.00
O62    O     0.13339   0.01317   0.08923   0.00000  Uiso   1.00
S63    S     0.11029   0.05964   0.11614   0.00000  Uiso   1.00
S64    S     0.15392   0.26845   0.40393   0.00000  Uiso   1.00
S65    S     0.26512   0.29260   0.05567   0.00000  Uiso   1.00
S66    S     0.05001   0.04368   0.44550   0.00000  Uiso   1.00
S67    S     0.25600   0.00984   0.28066   0.00000  Uiso   1.00
S68    S     0.07416   0.33092   0.28449   0.00000  Uiso   1.00
Zn69   Zn    0.10231   0.17266   0.25521   0.00000  Uiso   1.00
Zn70   Zn    0.23102   0.16067   0.24479   0.00000  Uiso   1.00
C71    C     0.51470   0.26496   0.25264   0.00000  Uiso   1.00
C72    C     0.51725   0.20956   0.41220   0.00000  Uiso   1.00
C73    C     0.49861   0.15803   0.11562   0.00000  Uiso   1.00
C74    C     0.50092   0.16584   0.38462   0.00000  Uiso   1.00
C75    C     0.53068   0.19619   0.09450   0.00000  Uiso   1.00
C76    C     0.47726   0.12204   0.40361   0.00000  Uiso   1.00
C77    C     0.53195   0.19836   0.04847   0.00000  Uiso   1.00
C78    C     0.47183   0.12079   0.45026   0.00000  Uiso   1.00
C79    C     0.50190   0.15862   0.02299   0.00000  Uiso   1.00
C80    C     0.50177   0.15985   0.47640   0.00000  Uiso   1.00
C81    C     0.47080   0.11835   0.04407   0.00000  Uiso   1.00
C82    C     0.48553   0.06979   0.25630   0.00000  Uiso   1.00
C83    C     0.52839   0.20239   0.45607   0.00000  Uiso   1.00
C84    C     0.56133   0.23949   0.02717   0.00000  Uiso   1.00
C85    C     0.43727   0.08310   0.47175   0.00000  Uiso   1.00
C86    C     0.56009   0.23997   0.48093   0.00000  Uiso   1.00
C87    C     0.43802   0.08217   0.01806   0.00000  Uiso   1.00
C88    C     0.52208   0.31991   0.26376   0.00000  Uiso   1.00
C89    C     0.47755   0.01727   0.26713   0.00000  Uiso   1.00
C90    C     0.50050   0.16730   0.33651   0.00000  Uiso   1.00
C91    C     0.49893   0.16231   0.16374   0.00000  Uiso   1.00
C92    C     0.47101   0.11656   0.09091   0.00000  Uiso   1.00
Cl93   Cl    0.34120   0.13779   0.18332   0.00000  Uiso   1.00
Cl94   Cl    0.65957   0.19172   0.31763   0.00000  Uiso   1.00
H95    H     0.55504   0.22375   0.11510   0.00000  Uiso   1.00
H96    H     0.39575   0.06765   0.32835   0.00000  Uiso   1.00
H97    H     0.46247   0.09049   0.38134   0.00000  Uiso   1.00
H98    H     0.58273   0.27082   0.46403   0.00000  Uiso   1.00
H99    H     0.40989   0.05422   0.03380   0.00000  Uiso   1.00
H100   H     0.36101   0.02333   0.12974   0.00000  Uiso   1.00
H101   H     0.53327   0.26473   0.34024   0.00000  Uiso   1.00
H102   H     0.62195   0.03833   0.04259   0.00000  Uiso   1.00
H103   H     0.63030   0.05480   0.43223   0.00000  Uiso   1.00
H104   H     0.62620   0.30799   0.33402   0.00000  Uiso   1.00
N105   N     0.65011   0.15265   0.23783   0.00000  Uiso   1.00
N106   N     0.34989   0.18068   0.26217   0.00000  Uiso   1.00
O107   O     0.46308   0.24619   0.25299   0.00000  Uiso   1.00
O108   O     0.45940   0.05905   0.16359   0.00000  Uiso   1.00
O109   O     0.37303   0.05507   0.11487   0.00000  Uiso   1.00
O110   O     0.42568   0.25629   0.39800   0.00000  Uiso   1.00
O111   O     0.49294   0.30746   0.44358   0.00000  Uiso   1.00
O112   O     0.51692   0.29425   0.35845   0.00000  Uiso   1.00
O113   O     0.57022   0.30898   0.10071   0.00000  Uiso   1.00
O114   O     0.65714   0.27726   0.06187   0.00000  Uiso   1.00
O115   O     0.60194   0.01026   0.02455   0.00000  Uiso   1.00
O116   O     0.40063   0.02419   0.39839   0.00000  Uiso   1.00
O117   O     0.36795   0.33117   0.47194   0.00000  Uiso   1.00
O118   O     0.53692   0.08714   0.24702   0.00000  Uiso   1.00
O119   O     0.65979   0.07904   0.44491   0.00000  Uiso   1.00
O120   O     0.62397   0.02731   0.24032   0.00000  Uiso   1.00
O121   O     0.58362   0.05446   0.31594   0.00000  Uiso   1.00
O122   O     0.62110   0.29585   0.30222   0.00000  Uiso   1.00
O123   O     0.38021   0.30668   0.24353   0.00000  Uiso   1.00
O124   O     0.40673   0.29225   0.31885   0.00000  Uiso   1.00
O125   O     0.37099   0.04820   0.30702   0.00000  Uiso   1.00
O126   O     0.55946   0.23721   0.24519   0.00000  Uiso   1.00
O127   O     0.44054   0.09613   0.25482   0.00000  Uiso   1.00
O128   O     0.45181   0.17117   0.31998   0.00000  Uiso   1.00
O129   O     0.54819   0.16216   0.18003   0.00000  Uiso   1.00
O130   O     0.54819   0.16219   0.31218   0.00000  Uiso   1.00
O131   O     0.45181   0.17115   0.18783   0.00000  Uiso   1.00
O132   O     0.46672   0.01317   0.08923   0.00000  Uiso   1.00
S133   S     0.44362   0.05964   0.11614   0.00000  Uiso   1.00
S134   S     0.48725   0.26845   0.40393   0.00000  Uiso   1.00
S135   S     0.59845   0.29260   0.05567   0.00000  Uiso   1.00
S136   S     0.38335   0.04368   0.44550   0.00000  Uiso   1.00
S137   S     0.58933   0.00984   0.28066   0.00000  Uiso   1.00
S138   S     0.40750   0.33092   0.28449   0.00000  Uiso   1.00
Zn139  Zn    0.43565   0.17266   0.25521   0.00000  Uiso   1.00
Zn140  Zn    0.56435   0.16067   0.24479   0.00000  Uiso   1.00
C141   C     0.84803   0.26496   0.25264   0.00000  Uiso   1.00
C142   C     0.85058   0.20956   0.41220   0.00000  Uiso   1.00
C143   C     0.83194   0.15803   0.11562   0.00000  Uiso   1.00
C144   C     0.83425   0.16584   0.38462   0.00000  Uiso   1.00
C145   C     0.86401   0.19619   0.09450   0.00000  Uiso   1.00
C146   C     0.81060   0.12204   0.40361   0.00000  Uiso   1.00
C147   C     0.86528   0.19836   0.04847   0.00000  Uiso   1.00
C148   C     0.80516   0.12079   0.45026   0.00000  Uiso   1.00
C149   C     0.83523   0.15862   0.02299   0.00000  Uiso   1.00
C150   C     0.83511   0.15985   0.47640   0.00000  Uiso   1.00
C151   C     0.80413   0.11835   0.04407   0.00000  Uiso   1.00
C152   C     0.81886   0.06979   0.25630   0.00000  Uiso   1.00
C153   C     0.86172   0.20239   0.45607   0.00000  Uiso   1.00
C154   C     0.89466   0.23949   0.02717   0.00000  Uiso   1.00
C155   C     0.77060   0.08310   0.47175   0.00000  Uiso   1.00
C156   C     0.89342   0.23997   0.48093   0.00000  Uiso   1.00
C157   C     0.77136   0.08217   0.01806   0.00000  Uiso   1.00
C158   C     0.85541   0.31991   0.26376   0.00000  Uiso   1.00
C159   C     0.81088   0.01727   0.26713   0.00000  Uiso   1.00
C160   C     0.83383   0.16730   0.33651   0.00000  Uiso   1.00
C161   C     0.83226   0.16231   0.16374   0.00000  Uiso   1.00
C162   C     0.80434   0.11656   0.09091   0.00000  Uiso   1.00
Cl163  Cl    0.67453   0.13779   0.18332   0.00000  Uiso   1.00
Cl164  Cl    0.99290   0.19172   0.31763   0.00000  Uiso   1.00
H165   H     0.88837   0.22375   0.11510   0.00000  Uiso   1.00
H166   H     0.72909   0.06765   0.32835   0.00000  Uiso   1.00
H167   H     0.79580   0.09049   0.38134   0.00000  Uiso   1.00
H168   H     0.91607   0.27082   0.46403   0.00000  Uiso   1.00
H169   H     0.74322   0.05422   0.03380   0.00000  Uiso   1.00
H170   H     0.69434   0.02333   0.12974   0.00000  Uiso   1.00
H171   H     0.86660   0.26473   0.34024   0.00000  Uiso   1.00
H172   H     0.95529   0.03833   0.04259   0.00000  Uiso   1.00
H173   H     0.96363   0.05480   0.43223   0.00000  Uiso   1.00
H174   H     0.95953   0.30799   0.33402   0.00000  Uiso   1.00
N175   N     0.98344   0.15265   0.23783   0.00000  Uiso   1.00
N176   N     0.68322   0.18068   0.26217   0.00000  Uiso   1.00
O177   O     0.79642   0.24619   0.25299   0.00000  Uiso   1.00
O178   O     0.79273   0.05905   0.16359   0.00000  Uiso   1.00
O179   O     0.70637   0.05507   0.11487   0.00000  Uiso   1.00
O180   O     0.75901   0.25629   0.39800   0.00000  Uiso   1.00
O181   O     0.82627   0.30746   0.44358   0.00000  Uiso   1.00
O182   O     0.85025   0.29425   0.35845   0.00000  Uiso   1.00
O183   O     0.90355   0.30898   0.10071   0.00000  Uiso   1.00
O184   O     0.99047   0.27726   0.06187   0.00000  Uiso   1.00
O185   O     0.93527   0.01026   0.02455   0.00000  Uiso   1.00
O186   O     0.73397   0.02419   0.39839   0.00000  Uiso   1.00
O187   O     0.70129   0.33117   0.47194   0.00000  Uiso   1.00
O188   O     0.87025   0.08714   0.24702   0.00000  Uiso   1.00
O189   O     0.99312   0.07904   0.44491   0.00000  Uiso   1.00
O190   O     0.95730   0.02731   0.24032   0.00000  Uiso   1.00
O191   O     0.91695   0.05446   0.31594   0.00000  Uiso   1.00
O192   O     0.95443   0.29585   0.30222   0.00000  Uiso   1.00
O193   O     0.71354   0.30668   0.24353   0.00000  Uiso   1.00
O194   O     0.74006   0.29225   0.31885   0.00000  Uiso   1.00
O195   O     0.70433   0.04820   0.30702   0.00000  Uiso   1.00
O196   O     0.89280   0.23721   0.24519   0.00000  Uiso   1.00
O197   O     0.77387   0.09613   0.25482   0.00000  Uiso   1.00
O198   O     0.78514   0.17117   0.31998   0.00000  Uiso   1.00
O199   O     0.88153   0.16216   0.18003   0.00000  Uiso   1.00
O200   O     0.88152   0.16219   0.31218   0.00000  Uiso   1.00
O201   O     0.78515   0.17115   0.18783   0.00000  Uiso   1.00
O202   O     0.80005   0.01317   0.08923   0.00000  Uiso   1.00
S203   S     0.77696   0.05964   0.11614   0.00000  Uiso   1.00
S204   S     0.82058   0.26845   0.40393   0.00000  Uiso   1.00
S205   S     0.93179   0.29260   0.05567   0.00000  Uiso   1.00
S206   S     0.71668   0.04368   0.44550   0.00000  Uiso   1.00
S207   S     0.92266   0.00984   0.28066   0.00000  Uiso   1.00
S208   S     0.74083   0.33092   0.28449   0.00000  Uiso   1.00
Zn209  Zn    0.76898   0.17266   0.25521   0.00000  Uiso   1.00
Zn210  Zn    0.89769   0.16067   0.24479   0.00000  Uiso   1.00
C211   C     0.18137   0.59829   0.25264   0.00000  Uiso   1.00
C212   C     0.18391   0.54289   0.41220   0.00000  Uiso   1.00
C213   C     0.16527   0.49136   0.11562   0.00000  Uiso   1.00
C214   C     0.16759   0.49917   0.38462   0.00000  Uiso   1.00
C215   C     0.19735   0.52953   0.09450   0.00000  Uiso   1.00
C216   C     0.14393   0.45537   0.40361   0.00000  Uiso   1.00
C217   C     0.19861   0.53169   0.04847   0.00000  Uiso   1.00
C218   C     0.13849   0.45412   0.45026   0.00000  Uiso   1.00
C219   C     0.16857   0.49195   0.02299   0.00000  Uiso   1.00
C220   C     0.16844   0.49319   0.47640   0.00000  Uiso   1.00
C221   C     0.13747   0.45169   0.04407   0.00000  Uiso   1.00
C222   C     0.15219   0.40312   0.25630   0.00000  Uiso   1.00
C223   C     0.19506   0.53572   0.45607   0.00000  Uiso   1.00
C224   C     0.22800   0.57282   0.02717   0.00000  Uiso   1.00
C225   C     0.10394   0.41644   0.47175   0.00000  Uiso   1.00
C226   C     0.22676   0.57330   0.48093   0.00000  Uiso   1.00
C227   C     0.10469   0.41551   0.01806   0.00000  Uiso   1.00
C228   C     0.18875   0.65324   0.26376   0.00000  Uiso   1.00
C229   C     0.14422   0.35060   0.26713   0.00000  Uiso   1.00
C230   C     0.16716   0.50064   0.33651   0.00000  Uiso   1.00
C231   C     0.16559   0.49565   0.16374   0.00000  Uiso   1.00
C232   C     0.13767   0.44989   0.09091   0.00000  Uiso   1.00
Cl233  Cl    0.00786   0.47113   0.18332   0.00000  Uiso   1.00
Cl234  Cl    0.32624   0.52505   0.31763   0.00000  Uiso   1.00
H235   H     0.22171   0.55709   0.11510   0.00000  Uiso   1.00
H236   H     0.06242   0.40099   0.32835   0.00000  Uiso   1.00
H237   H     0.12914   0.42383   0.38134   0.00000  Uiso   1.00
H238   H     0.24940   0.60416   0.46403   0.00000  Uiso   1.00
H239   H     0.07656   0.38755   0.03380   0.00000  Uiso   1.00
H240   H     0.02767   0.35667   0.12974   0.00000  Uiso   1.00
H241   H     0.19994   0.59807   0.34024   0.00000  Uiso   1.00
H242   H     0.28862   0.37167   0.04259   0.00000  Uiso   1.00
H243   H     0.29696   0.38813   0.43223   0.00000  Uiso   1.00
H244   H     0.29286   0.64133   0.33402   0.00000  Uiso   1.00
N245   N     0.31678   0.48598   0.23783   0.00000  Uiso   1.00
N246   N     0.01656   0.51402   0.26217   0.00000  Uiso   1.00
O247   O     0.12975   0.57952   0.25299   0.00000  Uiso   1.00
O248   O     0.12607   0.39239   0.16359   0.00000  Uiso   1.00
O249   O     0.03970   0.38840   0.11487   0.00000  Uiso   1.00
O250   O     0.09235   0.58962   0.39800   0.00000  Uiso   1.00
O251   O     0.15960   0.64080   0.44358   0.00000  Uiso   1.00
O252   O     0.18358   0.62758   0.35845   0.00000  Uiso   1.00
O253   O     0.23689   0.64232   0.10071   0.00000  Uiso   1.00
O254   O     0.32380   0.61059   0.06187   0.00000  Uiso   1.00
O255   O     0.26860   0.34360   0.02455   0.00000  Uiso   1.00
O256   O     0.06730   0.35753   0.39839   0.00000  Uiso   1.00
O257   O     0.03462   0.66450   0.47194   0.00000  Uiso   1.00
O258   O     0.20358   0.42048   0.24702   0.00000  Uiso   1.00
O259   O     0.32646   0.41238   0.44491   0.00000  Uiso   1.00
O260   O     0.29064   0.36064   0.24032   0.00000  Uiso   1.00
O261   O     0.25029   0.38779   0.31594   0.00000  Uiso   1.00
O262   O     0.28777   0.62918   0.30222   0.00000  Uiso   1.00
O263   O     0.04688   0.64002   0.24353   0.00000  Uiso   1.00
O264   O     0.07340   0.62558   0.31885   0.00000  Uiso   1.00
O265   O     0.03766   0.38153   0.30702   0.00000  Uiso   1.00
O266   O     0.22613   0.57054   0.24519   0.00000  Uiso   1.00
O267   O     0.10720   0.42946   0.25482   0.00000  Uiso   1.00
O268   O     0.11847   0.50450   0.31998   0.00000  Uiso   1.00
O269   O     0.21486   0.49550   0.18003   0.00000  Uiso   1.00
O270   O     0.21485   0.49552   0.31218   0.00000  Uiso   1.00
O271   O     0.11848   0.50448   0.18783   0.00000  Uiso   1.00
O272   O     0.13339   0.34650   0.08923   0.00000  Uiso   1.00
S273   S     0.11029   0.39297   0.11614   0.00000  Uiso   1.00
S274   S     0.15392   0.60179   0.40393   0.00000  Uiso   1.00
S275   S     0.26512   0.62593   0.05567   0.00000  Uiso   1.00
S276   S     0.05001   0.37702   0.44550   0.00000  Uiso   1.00
S277   S     0.25600   0.34318   0.28066   0.00000  Uiso   1.00
S278   S     0.07416   0.66426   0.28449   0.00000  Uiso   1.00
Zn279  Zn    0.10231   0.50600   0.25521   0.00000  Uiso   1.00
Zn280  Zn    0.23102   0.49400   0.24479   0.00000  Uiso   1.00
C281   C     0.51470   0.59829   0.25264   0.00000  Uiso   1.00
C282   C     0.51725   0.54289   0.41220   0.00000  Uiso   1.00
C283   C     0.49861   0.49136   0.11562   0.00000  Uiso   1.00
C284   C     0.50092   0.49917   0.38462   0.00000  Uiso   1.00
C285   C     0.53068   0.52953   0.09450   0.00000  Uiso   1.00
C286   C     0.47726   0.45537   0.40361   0.00000  Uiso   1.00
C287   C     0.53195   0.53169   0.04847   0.00000  Uiso   1.00
C288   C     0.47183   0.45412   0.45026   0.00000  Uiso   1.00
C289   C     0.50190   0.49195   0.02299   0.00000  Uiso   1.00
C290   C     0.50177   0.49319   0.47640   0.00000  Uiso   1.00
C291   C     0.47080   0.45169   0.04407   0.00000  Uiso   1.00
C292   C     0.48553   0.40312   0.25630   0.00000  Uiso   1.00
C293   C     0.52839   0.53572   0.45607   0.00000  Uiso   1.00
C294   C     0.56133   0.57282   0.02717   0.00000  Uiso   1.00
C295   C     0.43727   0.41644   0.47175   0.00000  Uiso   1.00
C296   C     0.56009   0.57330   0.48093   0.00000  Uiso   1.00
C297   C     0.43802   0.41551   0.01806   0.00000  Uiso   1.00
C298   C     0.52208   0.65324   0.26376   0.00000  Uiso   1.00
C299   C     0.47755   0.35060   0.26713   0.00000  Uiso   1.00
C300   C     0.50050   0.50064   0.33651   0.00000  Uiso   1.00
C301   C     0.49893   0.49565   0.16374   0.00000  Uiso   1.00
C302   C     0.47101   0.44989   0.09091   0.00000  Uiso   1.00
Cl303  Cl    0.34120   0.47113   0.18332   0.00000  Uiso   1.00
Cl304  Cl    0.65957   0.52505   0.31763   0.00000  Uiso   1.00
H305   H     0.55504   0.55709   0.11510   0.00000  Uiso   1.00
H306   H     0.39575   0.40099   0.32835   0.00000  Uiso   1.00
H307   H     0.46247   0.42383   0.38134   0.00000  Uiso   1.00
H308   H     0.58273   0.60416   0.46403   0.00000  Uiso   1.00
H309   H     0.40989   0.38755   0.03380   0.00000  Uiso   1.00
H310   H     0.36101   0.35667   0.12974   0.00000  Uiso   1.00
H311   H     0.53327   0.59807   0.34024   0.00000  Uiso   1.00
H312   H     0.62195   0.37167   0.04259   0.00000  Uiso   1.00
H313   H     0.63030   0.38813   0.43223   0.00000  Uiso   1.00
H314   H     0.62620   0.64133   0.33402   0.00000  Uiso   1.00
N315   N     0.65011   0.48598   0.23783   0.00000  Uiso   1.00
N316   N     0.34989   0.51402   0.26217   0.00000  Uiso   1.00
O317   O     0.46308   0.57952   0.25299   0.00000  Uiso   1.00
O318   O     0.45940   0.39239   0.16359   0.00000  Uiso   1.00
O319   O     0.37303   0.38840   0.11487   0.00000  Uiso   1.00
O320   O     0.42568   0.58962   0.39800   0.00000  Uiso   1.00
O321   O     0.49294   0.64080   0.44358   0.00000  Uiso   1.00
O322   O     0.51692   0.62758   0.35845   0.00000  Uiso   1.00
O323   O     0.57022   0.64232   0.10071   0.00000  Uiso   1.00
O324   O     0.65714   0.61059   0.06187   0.00000  Uiso   1.00
O325   O     0.60194   0.34360   0.02455   0.00000  Uiso   1.00
O326   O     0.40063   0.35753   0.39839   0.00000  Uiso   1.00
O327   O     0.36795   0.66450   0.47194   0.00000  Uiso   1.00
O328   O     0.53692   0.42048   0.24702   0.00000  Uiso   1.00
O329   O     0.65979   0.41238   0.44491   0.00000  Uiso   1.00
O330   O     0.62397   0.36064   0.24032   0.00000  Uiso   1.00
O331   O     0.58362   0.38779   0.31594   0.00000  Uiso   1.00
O332   O     0.62110   0.62918   0.30222   0.00000  Uiso   1.00
O333   O     0.38021   0.64002   0.24353   0.00000  Uiso   1.00
O334   O     0.40673   0.62558   0.31885   0.00000  Uiso   1.00
O335   O     0.37099   0.38153   0.30702   0.00000  Uiso   1.00
O336   O     0.55946   0.57054   0.24519   0.00000  Uiso   1.00
O337   O     0.44054   0.42946   0.25482   0.00000  Uiso   1.00
O338   O     0.45181   0.50450   0.31998   0.00000  Uiso   1.00
O339   O     0.54819   0.49550   0.18003   0.00000  Uiso   1.00
O340   O     0.54819   0.49552   0.31218   0.00000  Uiso   1.00
O341   O     0.45181   0.50448   0.18783   0.00000  Uiso   1.00
O342   O     0.46672   0.34650   0.08923   0.00000  Uiso   1.00
S343   S     0.44362   0.39297   0.11614   0.00000  Uiso   1.00
S344   S     0.48725   0.60179   0.40393   0.00000  Uiso   1.00
S345   S     0.59845   0.62593   0.05567   0.00000  Uiso   1.00
S346   S     0.38335   0.37702   0.44550   0.00000  Uiso   1.00
S347   S     0.58933   0.34318   0.28066   0.00000  Uiso   1.00
S348   S     0.40750   0.66426   0.28449   0.00000  Uiso   1.00
Zn349  Zn    0.43565   0.50600   0.25521   0.00000  Uiso   1.00
Zn350  Zn    0.56435   0.49400   0.24479   0.00000  Uiso   1.00
C351   C     0.84803   0.59829   0.25264   0.00000  Uiso   1.00
C352   C     0.85058   0.54289   0.41220   0.00000  Uiso   1.00
C353   C     0.83194   0.49136   0.11562   0.00000  Uiso   1.00
C354   C     0.83425   0.49917   0.38462   0.00000  Uiso   1.00
C355   C     0.86401   0.52953   0.09450   0.00000  Uiso   1.00
C356   C     0.81060   0.45537   0.40361   0.00000  Uiso   1.00
C357   C     0.86528   0.53169   0.04847   0.00000  Uiso   1.00
C358   C     0.80516   0.45412   0.45026   0.00000  Uiso   1.00
C359   C     0.83523   0.49195   0.02299   0.00000  Uiso   1.00
C360   C     0.83511   0.49319   0.47640   0.00000  Uiso   1.00
C361   C     0.80413   0.45169   0.04407   0.00000  Uiso   1.00
C362   C     0.81886   0.40312   0.25630   0.00000  Uiso   1.00
C363   C     0.86172   0.53572   0.45607   0.00000  Uiso   1.00
C364   C     0.89466   0.57282   0.02717   0.00000  Uiso   1.00
C365   C     0.77060   0.41644   0.47175   0.00000  Uiso   1.00
C366   C     0.89342   0.57330   0.48093   0.00000  Uiso   1.00
C367   C     0.77136   0.41551   0.01806   0.00000  Uiso   1.00
C368   C     0.85541   0.65324   0.26376   0.00000  Uiso   1.00
C369   C     0.81088   0.35060   0.26713   0.00000  Uiso   1.00
C370   C     0.83383   0.50064   0.33651   0.00000  Uiso   1.00
C371   C     0.83226   0.49565   0.16374   0.00000  Uiso   1.00
C372   C     0.80434   0.44989   0.09091   0.00000  Uiso   1.00
Cl373  Cl    0.67453   0.47113   0.18332   0.00000  Uiso   1.00
Cl374  Cl    0.99290   0.52505   0.31763   0.00000  Uiso   1.00
H375   H     0.88837   0.55709   0.11510   0.00000  Uiso   1.00
H376   H     0.72909   0.40099   0.32835   0.00000  Uiso   1.00
H377   H     0.79580   0.42383   0.38134   0.00000  Uiso   1.00
H378   H     0.91607   0.60416   0.46403   0.00000  Uiso   1.00
H379   H     0.74322   0.38755   0.03380   0.00000  Uiso   1.00
H380   H     0.69434   0.35667   0.12974   0.00000  Uiso   1.00
H381   H     0.86660   0.59807   0.34024   0.00000  Uiso   1.00
H382   H     0.95529   0.37167   0.04259   0.00000  Uiso   1.00
H383   H     0.96363   0.38813   0.43223   0.00000  Uiso   1.00
H384   H     0.95953   0.64133   0.33402   0.00000  Uiso   1.00
N385   N     0.98344   0.48598   0.23783   0.00000  Uiso   1.00
N386   N     0.68322   0.51402   0.26217   0.00000  Uiso   1.00
O387   O     0.79642   0.57952   0.25299   0.00000  Uiso   1.00
O388   O     0.79273   0.39239   0.16359   0.00000  Uiso   1.00
O389   O     0.70637   0.38840   0.11487   0.00000  Uiso   1.00
O390   O     0.75901   0.58962   0.39800   0.00000  Uiso   1.00
O391   O     0.82627   0.64080   0.44358   0.00000  Uiso   1.00
O392   O     0.85025   0.62758   0.35845   0.00000  Uiso   1.00
O393   O     0.90355   0.64232   0.10071   0.00000  Uiso   1.00
O394   O     0.99047   0.61059   0.06187   0.00000  Uiso   1.00
O395   O     0.93527   0.34360   0.02455   0.00000  Uiso   1.00
O396   O     0.73397   0.35753   0.39839   0.00000  Uiso   1.00
O397   O     0.70129   0.66450   0.47194   0.00000  Uiso   1.00
O398   O     0.87025   0.42048   0.24702   0.00000  Uiso   1.00
O399   O     0.99312   0.41238   0.44491   0.00000  Uiso   1.00
O400   O     0.95730   0.36064   0.24032   0.00000  Uiso   1.00
O401   O     0.91695   0.38779   0.31594   0.00000  Uiso   1.00
O402   O     0.95443   0.62918   0.30222   0.00000  Uiso   1.00
O403   O     0.71354   0.64002   0.24353   0.00000  Uiso   1.00
O404   O     0.74006   0.62558   0.31885   0.00000  Uiso   1.00
O405   O     0.70433   0.38153   0.30702   0.00000  Uiso   1.00
O406   O     0.89280   0.57054   0.24519   0.00000  Uiso   1.00
O407   O     0.77387   0.42946   0.25482   0.00000  Uiso   1.00
O408   O     0.78514   0.50450   0.31998   0.00000  Uiso   1.00
O409   O     0.88153   0.49550   0.18003   0.00000  Uiso   1.00
O410   O     0.88152   0.49552   0.31218   0.00000  Uiso   1.00
O411   O     0.78515   0.50448   0.18783   0.00000  Uiso   1.00
O412   O     0.80005   0.34650   0.08923   0.00000  Uiso   1.00
S413   S     0.77696   0.39297   0.11614   0.00000  Uiso   1.00
S414   S     0.82058   0.60179   0.40393   0.00000  Uiso   1.00
S415   S     0.93179   0.62593   0.05567   0.00000  Uiso   1.00
S416   S     0.71668   0.37702   0.44550   0.00000  Uiso   1.00
S417   S     0.92266   0.34318   0.28066   0.00000  Uiso   1.00
S418   S     0.74083   0.66426   0.28449   0.00000  Uiso   1.00
Zn419  Zn    0.76898   0.50600   0.25521   0.00000  Uiso   1.00
Zn420  Zn    0.89769   0.49400   0.24479   0.00000  Uiso   1.00
C421   C     0.18137   0.93162   0.25264   0.00000  Uiso   1.00
C422   C     0.18391   0.87622   0.41220   0.00000  Uiso   1.00
C423   C     0.16527   0.82470   0.11562   0.00000  Uiso   1.00
C424   C     0.16759   0.83251   0.38462   0.00000  Uiso   1.00
C425   C     0.19735   0.86286   0.09450   0.00000  Uiso   1.00
C426   C     0.14393   0.78871   0.40361   0.00000  Uiso   1.00
C427   C     0.19861   0.86503   0.04847   0.00000  Uiso   1.00
C428   C     0.13849   0.78746   0.45026   0.00000  Uiso   1.00
C429   C     0.16857   0.82528   0.02299   0.00000  Uiso   1.00
C430   C     0.16844   0.82652   0.47640   0.00000  Uiso   1.00
C431   C     0.13747   0.78502   0.04407   0.00000  Uiso   1.00
C432   C     0.15219   0.73645   0.25630   0.00000  Uiso   1.00
C433   C     0.19506   0.86905   0.45607   0.00000  Uiso   1.00
C434   C     0.22800   0.90616   0.02717   0.00000  Uiso   1.00
C435   C     0.10394   0.74977   0.47175   0.00000  Uiso   1.00
C436   C     0.22676   0.90663   0.48093   0.00000  Uiso   1.00
C437   C     0.10469   0.74884   0.01806   0.00000  Uiso   1.00
C438   C     0.18875   0.98658   0.26376   0.00000  Uiso   1.00
C439   C     0.14422   0.68393   0.26713   0.00000  Uiso   1.00
C440   C     0.16716   0.83397   0.33651   0.00000  Uiso   1.00
C441   C     0.16559   0.82898   0.16374   0.00000  Uiso   1.00
C442   C     0.13767   0.78322   0.09091   0.00000  Uiso   1.00
Cl443  Cl    0.00786   0.80446   0.18332   0.00000  Uiso   1.00
Cl444  Cl    0.32624   0.85838   0.31763   0.00000  Uiso   1.00
H445   H     0.22171   0.89042   0.11510   0.00000  Uiso   1.00
H446   H     0.06242   0.73432   0.32835   0.00000  Uiso   1.00
H447   H     0.12914   0.75716   0.38134   0.00000  Uiso   1.00
H448   H     0.24940   0.93749   0.46403   0.00000  Uiso   1.00
H449   H     0.07656   0.72088   0.03380   0.00000  Uiso   1.00
H450   H     0.02767   0.69000   0.12974   0.00000  Uiso   1.00
H451   H     0.19994   0.93140   0.34024   0.00000  Uiso   1.00
H452   H     0.28862   0.70500   0.04259   0.00000  Uiso   1.00
H453   H     0.29696   0.72147   0.43223   0.00000  Uiso   1.00
H454   H     0.29286   0.97466   0.33402   0.00000  Uiso   1.00
N455   N     0.31678   0.81932   0.23783   0.00000  Uiso   1.00
N456   N     0.01656   0.84735   0.26217   0.00000  Uiso   1.00
O457   O     0.12975   0.91286   0.25299   0.00000  Uiso   1.00
O458   O     0.12607   0.72572   0.16359   0.00000  Uiso   1.00
O459   O     0.03970   0.72173   0.11487   0.00000  Uiso   1.00
O460   O     0.09235   0.92295   0.39800   0.00000  Uiso   1.00
O461   O     0.15960   0.97413   0.44358   0.00000  Uiso   1.00
O462   O     0.18358   0.96092   0.35845   0.00000  Uiso   1.00
O463   O     0.23689   0.97565   0.10071   0.00000  Uiso   1.00
O464   O     0.32380   0.94393   0.06187   0.00000  Uiso   1.00
O465   O     0.26860   0.67693   0.02455   0.00000  Uiso   1.00
O466   O     0.06730   0.69086   0.39839   0.00000  Uiso   1.00
O467   O     0.03462   0.99784   0.47194   0.00000  Uiso   1.00
O468   O     0.20358   0.75381   0.24702   0.00000  Uiso   1.00
O469   O     0.32646   0.74571   0.44491   0.00000  Uiso   1.00
O470   O     0.29064   0.69397   0.24032   0.00000  Uiso   1.00
O471   O     0.25029   0.72113   0.31594   0.00000  Uiso   1.00
O472   O     0.28777   0.96251   0.30222   0.00000  Uiso   1.00
O473   O     0.04688   0.97335   0.24353   0.00000  Uiso   1.00
O474   O     0.07340   0.95891   0.31885   0.00000  Uiso   1.00
O475   O     0.03766   0.71486   0.30702   0.00000  Uiso   1.00
O476   O     0.22613   0.90387   0.24519   0.00000  Uiso   1.00
O477   O     0.10720   0.76279   0.25482   0.00000  Uiso   1.00
O478   O     0.11847   0.83784   0.31998   0.00000  Uiso   1.00
O479   O     0.21486   0.82883   0.18003   0.00000  Uiso   1.00
O480   O     0.21485   0.82885   0.31218   0.00000  Uiso   1.00
O481   O     0.11848   0.83781   0.18783   0.00000  Uiso   1.00
O482   O     0.13339   0.67984   0.08923   0.00000  Uiso   1.00
S483   S     0.11029   0.72631   0.11614   0.00000  Uiso   1.00
S484   S     0.15392   0.93512   0.40393   0.00000  Uiso   1.00
S485   S     0.26512   0.95926   0.05567   0.00000  Uiso   1.00
S486   S     0.05001   0.71035   0.44550   0.00000  Uiso   1.00
S487   S     0.25600   0.67651   0.28066   0.00000  Uiso   1.00
S488   S     0.07416   0.99759   0.28449   0.00000  Uiso   1.00
Zn489  Zn    0.10231   0.83933   0.25521   0.00000  Uiso   1.00
Zn490  Zn    0.23102   0.82734   0.24479   0.00000  Uiso   1.00
C491   C     0.51470   0.93162   0.25264   0.00000  Uiso   1.00
C492   C     0.51725   0.87622   0.41220   0.00000  Uiso   1.00
C493   C     0.49861   0.82470   0.11562   0.00000  Uiso   1.00
C494   C     0.50092   0.83251   0.38462   0.00000  Uiso   1.00
C495   C     0.53068   0.86286   0.09450   0.00000  Uiso   1.00
C496   C     0.47726   0.78871   0.40361   0.00000  Uiso   1.00
C497   C     0.53195   0.86503   0.04847   0.00000  Uiso   1.00
C498   C     0.47183   0.78746   0.45026   0.00000  Uiso   1.00
C499   C     0.50190   0.82528   0.02299   0.00000  Uiso   1.00
C500   C     0.50177   0.82652   0.47640   0.00000  Uiso   1.00
C501   C     0.47080   0.78502   0.04407   0.00000  Uiso   1.00
C502   C     0.48553   0.73645   0.25630   0.00000  Uiso   1.00
C503   C     0.52839   0.86905   0.45607   0.00000  Uiso   1.00
C504   C     0.56133   0.90616   0.02717   0.00000  Uiso   1.00
C505   C     0.43727   0.74977   0.47175   0.00000  Uiso   1.00
C506   C     0.56009   0.90663   0.48093   0.00000  Uiso   1.00
C507   C     0.43802   0.74884   0.01806   0.00000  Uiso   1.00
C508   C     0.52208   0.98658   0.26376   0.00000  Uiso   1.00
C509   C     0.47755   0.68393   0.26713   0.00000  Uiso   1.00
C510   C     0.50050   0.83397   0.33651   0.00000  Uiso   1.00
C511   C     0.49893   0.82898   0.16374   0.00000  Uiso   1.00
C512   C     0.47101   0.78322   0.09091   0.00000  Uiso   1.00
Cl513  Cl    0.34120   0.80446   0.18332   0.00000  Uiso   1.00
Cl514  Cl    0.65957   0.85838   0.31763   0.00000  Uiso   1.00
H515   H     0.55504   0.89042   0.11510   0.00000  Uiso   1.00
H516   H     0.39575   0.73432   0.32835   0.00000  Uiso   1.00
H517   H     0.46247   0.75716   0.38134   0.00000  Uiso   1.00
H518   H     0.58273   0.93749   0.46403   0.00000  Uiso   1.00
H519   H     0.40989   0.72088   0.03380   0.00000  Uiso   1.00
H520   H     0.36101   0.69000   0.12974   0.00000  Uiso   1.00
H521   H     0.53327   0.93140   0.34024   0.00000  Uiso   1.00
H522   H     0.62195   0.70500   0.04259   0.00000  Uiso   1.00
H523   H     0.63030   0.72147   0.43223   0.00000  Uiso   1.00
H524   H     0.62620   0.97466   0.33402   0.00000  Uiso   1.00
N525   N     0.65011   0.81932   0.23783   0.00000  Uiso   1.00
N526   N     0.34989   0.84735   0.26217   0.00000  Uiso   1.00
O527   O     0.46308   0.91286   0.25299   0.00000  Uiso   1.00
O528   O     0.45940   0.72572   0.16359   0.00000  Uiso   1.00
O529   O     0.37303   0.72173   0.11487   0.00000  Uiso   1.00
O530   O     0.42568   0.92295   0.39800   0.00000  Uiso   1.00
O531   O     0.49294   0.97413   0.44358   0.00000  Uiso   1.00
O532   O     0.51692   0.96092   0.35845   0.00000  Uiso   1.00
O533   O     0.57022   0.97565   0.10071   0.00000  Uiso   1.00
O534   O     0.65714   0.94393   0.06187   0.00000  Uiso   1.00
O535   O     0.60194   0.67693   0.02455   0.00000  Uiso   1.00
O536   O     0.40063   0.69086   0.39839   0.00000  Uiso   1.00
O537   O     0.36795   0.99784   0.47194   0.00000  Uiso   1.00
O538   O     0.53692   0.75381   0.24702   0.00000  Uiso   1.00
O539   O     0.65979   0.74571   0.44491   0.00000  Uiso   1.00
O540   O     0.62397   0.69397   0.24032   0.00000  Uiso   1.00
O541   O     0.58362   0.72113   0.31594   0.00000  Uiso   1.00
O542   O     0.62110   0.96251   0.30222   0.00000  Uiso   1.00
O543   O     0.38021   0.97335   0.24353   0.00000  Uiso   1.00
O544   O     0.40673   0.95891   0.31885   0.00000  Uiso   1.00
O545   O     0.37099   0.71486   0.30702   0.00000  Uiso   1.00
O546   O     0.55946   0.90387   0.24519   0.00000  Uiso   1.00
O547   O     0.44054   0.76279   0.25482   0.00000  Uiso   1.00
O548   O     0.45181   0.83784   0.31998   0.00000  Uiso   1.00
O549   O     0.54819   0.82883   0.18003   0.00000  Uiso   1.00
O550   O     0.54819   0.82885   0.31218   0.00000  Uiso   1.00
O551   O     0.45181   0.83781   0.18783   0.00000  Uiso   1.00
O552   O     0.46672   0.67984   0.08923   0.00000  Uiso   1.00
S553   S     0.44362   0.72631   0.11614   0.00000  Uiso   1.00
S554   S     0.48725   0.93512   0.40393   0.00000  Uiso   1.00
S555   S     0.59845   0.95926   0.05567   0.00000  Uiso   1.00
S556   S     0.38335   0.71035   0.44550   0.00000  Uiso   1.00
S557   S     0.58933   0.67651   0.28066   0.00000  Uiso   1.00
S558   S     0.40750   0.99759   0.28449   0.00000  Uiso   1.00
Zn559  Zn    0.43565   0.83933   0.25521   0.00000  Uiso   1.00
Zn560  Zn    0.56435   0.82734   0.24479   0.00000  Uiso   1.00
C561   C     0.84803   0.93162   0.25264   0.00000  Uiso   1.00
C562   C     0.85058   0.87622   0.41220   0.00000  Uiso   1.00
C563   C     0.83194   0.82470   0.11562   0.00000  Uiso   1.00
C564   C     0.83425   0.83251   0.38462   0.00000  Uiso   1.00
C565   C     0.86401   0.86286   0.09450   0.00000  Uiso   1.00
C566   C     0.81060   0.78871   0.40361   0.00000  Uiso   1.00
C567   C     0.86528   0.86503   0.04847   0.00000  Uiso   1.00
C568   C     0.80516   0.78746   0.45026   0.00000  Uiso   1.00
C569   C     0.83523   0.82528   0.02299   0.00000  Uiso   1.00
C570   C     0.83511   0.82652   0.47640   0.00000  Uiso   1.00
C571   C     0.80413   0.78502   0.04407   0.00000  Uiso   1.00
C572   C     0.81886   0.73645   0.25630   0.00000  Uiso   1.00
C573   C     0.86172   0.86905   0.45607   0.00000  Uiso   1.00
C574   C     0.89466   0.90616   0.02717   0.00000  Uiso   1.00
C575   C     0.77060   0.74977   0.47175   0.00000  Uiso   1.00
C576   C     0.89342   0.90663   0.48093   0.00000  Uiso   1.00
C577   C     0.77136   0.74884   0.01806   0.00000  Uiso   1.00
C578   C     0.85541   0.98658   0.26376   0.00000  Uiso   1.00
C579   C     0.81088   0.68393   0.26713   0.00000  Uiso   1.00
C580   C     0.83383   0.83397   0.33651   0.00000  Uiso   1.00
C581   C     0.83226   0.82898   0.16374   0.00000  Uiso   1.00
C582   C     0.80434   0.78322   0.09091   0.00000  Uiso   1.00
Cl583  Cl    0.67453   0.80446   0.18332   0.00000  Uiso   1.00
Cl584  Cl    0.99290   0.85838   0.31763   0.00000  Uiso   1.00
H585   H     0.88837   0.89042   0.11510   0.00000  Uiso   1.00
H586   H     0.72909   0.73432   0.32835   0.00000  Uiso   1.00
H587   H     0.79580   0.75716   0.38134   0.00000  Uiso   1.00
H588   H     0.91607   0.93749   0.46403   0.00000  Uiso   1.00
H589   H     0.74322   0.72088   0.03380   0.00000  Uiso   1.00
H590   H     0.69434   0.69000   0.12974   0.00000  Uiso   1.00
H591   H     0.86660   0.93140   0.34024   0.00000  Uiso   1.00
H592   H     0.95529   0.70500   0.04259   0.00000  Uiso   1.00
H593   H     0.96363   0.72147   0.43223   0.00000  Uiso   1.00
H594   H     0.95953   0.97466   0.33402   0.00000  Uiso   1.00
N595   N     0.98344   0.81932   0.23783   0.00000  Uiso   1.00
N596   N     0.68322   0.84735   0.26217   0.00000  Uiso   1.00
O597   O     0.79642   0.91286   0.25299   0.00000  Uiso   1.00
O598   O     0.79273   0.72572   0.16359   0.00000  Uiso   1.00
O599   O     0.70637   0.72173   0.11487   0.00000  Uiso   1.00
O600   O     0.75901   0.92295   0.39800   0.00000  Uiso   1.00
O601   O     0.82627   0.97413   0.44358   0.00000  Uiso   1.00
O602   O     0.85025   0.96092   0.35845   0.00000  Uiso   1.00
O603   O     0.90355   0.97565   0.10071   0.00000  Uiso   1.00
O604   O     0.99047   0.94393   0.06187   0.00000  Uiso   1.00
O605   O     0.93527   0.67693   0.02455   0.00000  Uiso   1.00
O606   O     0.73397   0.69086   0.39839   0.00000  Uiso   1.00
O607   O     0.70129   0.99784   0.47194   0.00000  Uiso   1.00
O608   O     0.87025   0.75381   0.24702   0.00000  Uiso   1.00
O609   O     0.99312   0.74571   0.44491   0.00000  Uiso   1.00
O610   O     0.95730   0.69397   0.24032   0.00000  Uiso   1.00
O611   O     0.91695   0.72113   0.31594   0.00000  Uiso   1.00
O612   O     0.95443   0.96251   0.30222   0.00000  Uiso   1.00
O613   O     0.71354   0.97335   0.24353   0.00000  Uiso   1.00
O614   O     0.74006   0.95891   0.31885   0.00000  Uiso   1.00
O615   O     0.70433   0.71486   0.30702   0.00000  Uiso   1.00
O616   O     0.89280   0.90387   0.24519   0.00000  Uiso   1.00
O617   O     0.77387   0.76279   0.25482   0.00000  Uiso   1.00
O618   O     0.78514   0.83784   0.31998   0.00000  Uiso   1.00
O619   O     0.88153   0.82883   0.18003   0.00000  Uiso   1.00
O620   O     0.88152   0.82885   0.31218   0.00000  Uiso   1.00
O621   O     0.78515   0.83781   0.18783   0.00000  Uiso   1.00
O622   O     0.80005   0.67984   0.08923   0.00000  Uiso   1.00
S623   S     0.77696   0.72631   0.11614   0.00000  Uiso   1.00
S624   S     0.82058   0.93512   0.40393   0.00000  Uiso   1.00
S625   S     0.93179   0.95926   0.05567   0.00000  Uiso   1.00
S626   S     0.71668   0.71035   0.44550   0.00000  Uiso   1.00
S627   S     0.92266   0.67651   0.28066   0.00000  Uiso   1.00
S628   S     0.74083   0.99759   0.28449   0.00000  Uiso   1.00
Zn629  Zn    0.76898   0.83933   0.25521   0.00000  Uiso   1.00
Zn630  Zn    0.89769   0.82734   0.24479   0.00000  Uiso   1.00
C631   C     0.18137   0.26496   0.75264   0.00000  Uiso   1.00
C632   C     0.18391   0.20956   0.91220   0.00000  Uiso   1.00
C633   C     0.16527   0.15803   0.61562   0.00000  Uiso   1.00
C634   C     0.16759   0.16584   0.88462   0.00000  Uiso   1.00
C635   C     0.19735   0.19619   0.59450   0.00000  Uiso   1.00
C636   C     0.14393   0.12204   0.90361   0.00000  Uiso   1.00
C637   C     0.19861   0.19836   0.54847   0.00000  Uiso   1.00
C638   C     0.13849   0.12079   0.95026   0.00000  Uiso   1.00
C639   C     0.16857   0.15862   0.52299   0.00000  Uiso   1.00
C640   C     0.16844   0.15985   0.97640   0.00000  Uiso   1.00
C641   C     0.13747   0.11835   0.54407   0.00000  Uiso   1.00
C642   C     0.15219   0.06979   0.75630   0.00000  Uiso   1.00
C643   C     0.19506   0.20239   0.95607   0.00000  Uiso   1.00
C644   C     0.22800   0.23949   0.52717   0.00000  Uiso   1.00
C645   C     0.10394   0.08310   0.97175   0.00000  Uiso   1.00
C646   C     0.22676   0.23997   0.98093   0.00000  Uiso   1.00
C647   C     0.10469   0.08217   0.51806   0.00000  Uiso   1.00
C648   C     0.18875   0.31991   0.76376   0.00000  Uiso   1.00
C649   C     0.14422   0.01727   0.76713   0.00000  Uiso   1.00
C650   C     0.16716   0.16730   0.83651   0.00000  Uiso   1.00
C651   C     0.16559   0.16231   0.66374   0.00000  Uiso   1.00
C652   C     0.13767   0.11656   0.59091   0.00000  Uiso   1.00
Cl653  Cl    0.00786   0.13779   0.68332   0.00000  Uiso   1.00
Cl654  Cl    0.32624   0.19172   0.81763   0.00000  Uiso   1.00
H655   H     0.22171   0.22375   0.61510   0.00000  Uiso   1.00
H656   H     0.06242   0.06765   0.82835   0.00000  Uiso   1.00
H657   H     0.12914   0.09049   0.88134   0.00000  Uiso   1.00
H658   H     0.24940   0.27082   0.96403   0.00000  Uiso   1.00
H659   H     0.07656   0.05422   0.53380   0.00000  Uiso   1.00
H660   H     0.02767   0.02333   0.62974   0.00000  Uiso   1.00
H661   H     0.19994   0.26473   0.84024   0.00000  Uiso   1.00
H662   H     0.28862   0.03833   0.54259   0.00000  Uiso   1.00
H663   H     0.29696   0.05480   0.93223   0.00000  Uiso   1.00
H664   H     0.29286   0.30799   0.83402   0.00000  Uiso   1.00
N665   N     0.31678   0.15265   0.73783   0.00000  Uiso   1.00
N666   N     0.01656   0.18068   0.76217   0.00000  Uiso   1.00
O667   O     0.12975   0.24619   0.75299   0.00000  Uiso   1.00
O668   O     0.12607   0.05905   0.66359   0.00000  Uiso   1.00
O669   O     0.03970   0.05507   0.61487   0.00000  Uiso   1.00
O670   O     0.09235   0.25629   0.89800   0.00000  Uiso   1.00
O671   O     0.15960   0.30746   0.94358   0.00000  Uiso   1.00
O672   O     0.18358   0.29425   0.85845   0.00000  Uiso   1.00
O673   O     0.23689   0.30898   0.60071   0.00000  Uiso   1.00
O674   O     0.32380   0.27726   0.56187   0.00000  Uiso   1.00
O675   O     0.26860   0.01026   0.52455   0.00000  Uiso   1.00
O676   O     0.06730   0.02419   0.89839   0.00000  Uiso   1.00
O677   O     0.03462   0.33117   0.97194   0.00000  Uiso   1.00
O678   O     0.20358   0.08714   0.74702   0.00000  Uiso   1.00
O679   O     0.32646   0.07904   0.94491   0.00000  Uiso   1.00
O680   O     0.29064   0.02731   0.74032   0.00000  Uiso   1.00
O681   O     0.25029   0.05446   0.81594   0.00000  Uiso   1.00
O682   O     0.28777   0.29585   0.80222   0.00000  Uiso   1.00
O683   O     0.04688   0.30668   0.74353   0.00000  Uiso   1.00
O684   O     0.07340   0.29225   0.81885   0.00000  Uiso   1.00
O685   O     0.03766   0.04820   0.80702   0.00000  Uiso   1.00
O686   O     0.22613   0.23721   0.74519   0.00000  Uiso   1.00
O687   O     0.10720   0.09613   0.75482   0.00000  Uiso   1.00
O688   O     0.11847   0.17117   0.81998   0.00000  Uiso   1.00
O689   O     0.21486   0.16216   0.68003   0.00000  Uiso   1.00
O690   O     0.21485   0.16219   0.81218   0.00000  Uiso   1.00
O691   O     0.11848   0.17115   0.68783   0.00000  Uiso   1.00
O692   O     0.13339   0.01317   0.58923   0.00000  Uiso   1.00
S693   S     0.11029   0.05964   0.61614   0.00000  Uiso   1.00
S694   S     0.15392   0.26845   0.90393   0.00000  Uiso   1.00
S695   S     0.26512   0.29260   0.55567   0.00000  Uiso   1.00
S696   S     0.05001   0.04368   0.94550   0.00000  Uiso   1.00
S697   S     0.25600   0.00984   0.78066   0.00000  Uiso   1.00
S698   S     0.07416   0.33092   0.78449   0.00000  Uiso   1.00
Zn699  Zn    0.10231   0.17266   0.75521   0.00000  Uiso   1.00
Zn700  Zn    0.23102   0.16067   0.74479   0.00000  Uiso   1.00
C701   C     0.51470   0.26496   0.75264   0.00000  Uiso   1.00
C702   C     0.51725   0.20956   0.91220   0.00000  Uiso   1.00
C703   C     0.49861   0.15803   0.61562   0.00000  Uiso   1.00
C704   C     0.50092   0.16584   0.88462   0.00000  Uiso   1.00
C705   C     0.53068   0.19619   0.59450   0.00000  Uiso   1.00
C706   C     0.47726   0.12204   0.90361   0.00000  Uiso   1.00
C707   C     0.53195   0.19836   0.54847   0.00000  Uiso   1.00
C708   C     0.47183   0.12079   0.95026   0.00000  Uiso   1.00
C709   C     0.50190   0.15862   0.52299   0.00000  Uiso   1.00
C710   C     0.50177   0.15985   0.97640   0.00000  Uiso   1.00
C711   C     0.47080   0.11835   0.54407   0.00000  Uiso   1.00
C712   C     0.48553   0.06979   0.75630   0.00000  Uiso   1.00
C713   C     0.52839   0.20239   0.95607   0.00000  Uiso   1.00
C714   C     0.56133   0.23949   0.52717   0.00000  Uiso   1.00
C715   C     0.43727   0.08310   0.97175   0.00000  Uiso   1.00
C716   C     0.56009   0.23997   0.98093   0.00000  Uiso   1.00
C717   C     0.43802   0.08217   0.51806   0.00000  Uiso   1.00
C718   C     0.52208   0.31991   0.76376   0.00000  Uiso   1.00
C719   C     0.47755   0.01727   0.76713   0.00000  Uiso   1.00
C720   C     0.50050   0.16730   0.83651   0.00000  Uiso   1.00
C721   C     0.49893   0.16231   0.66374   0.00000  Uiso   1.00
C722   C     0.47101   0.11656   0.59091   0.00000  Uiso   1.00
Cl723  Cl    0.34120   0.13779   0.68332   0.00000  Uiso   1.00
Cl724  Cl    0.65957   0.19172   0.81763   0.00000  Uiso   1.00
H725   H     0.55504   0.22375   0.61510   0.00000  Uiso   1.00
H726   H     0.39575   0.06765   0.82835   0.00000  Uiso   1.00
H727   H     0.46247   0.09049   0.88134   0.00000  Uiso   1.00
H728   H     0.58273   0.27082   0.96403   0.00000  Uiso   1.00
H729   H     0.40989   0.05422   0.53380   0.00000  Uiso   1.00
H730   H     0.36101   0.02333   0.62974   0.00000  Uiso   1.00
H731   H     0.53327   0.26473   0.84024   0.00000  Uiso   1.00
H732   H     0.62195   0.03833   0.54259   0.00000  Uiso   1.00
H733   H     0.63030   0.05480   0.93223   0.00000  Uiso   1.00
H734   H     0.62620   0.30799   0.83402   0.00000  Uiso   1.00
N735   N     0.65011   0.15265   0.73783   0.00000  Uiso   1.00
N736   N     0.34989   0.18068   0.76217   0.00000  Uiso   1.00
O737   O     0.46308   0.24619   0.75299   0.00000  Uiso   1.00
O738   O     0.45940   0.05905   0.66359   0.00000  Uiso   1.00
O739   O     0.37303   0.05507   0.61487   0.00000  Uiso   1.00
O740   O     0.42568   0.25629   0.89800   0.00000  Uiso   1.00
O741   O     0.49294   0.30746   0.94358   0.00000  Uiso   1.00
O742   O     0.51692   0.29425   0.85845   0.00000  Uiso   1.00
O743   O     0.57022   0.30898   0.60071   0.00000  Uiso   1.00
O744   O     0.65714   0.27726   0.56187   0.00000  Uiso   1.00
O745   O     0.60194   0.01026   0.52455   0.00000  Uiso   1.00
O746   O     0.40063   0.02419   0.89839   0.00000  Uiso   1.00
O747   O     0.36795   0.33117   0.97194   0.00000  Uiso   1.00
O748   O     0.53692   0.08714   0.74702   0.00000  Uiso   1.00
O749   O     0.65979   0.07904   0.94491   0.00000  Uiso   1.00
O750   O     0.62397   0.02731   0.74032   0.00000  Uiso   1.00
O751   O     0.58362   0.05446   0.81594   0.00000  Uiso   1.00
O752   O     0.62110   0.29585   0.80222   0.00000  Uiso   1.00
O753   O     0.38021   0.30668   0.74353   0.00000  Uiso   1.00
O754   O     0.40673   0.29225   0.81885   0.00000  Uiso   1.00
O755   O     0.37099   0.04820   0.80702   0.00000  Uiso   1.00
O756   O     0.55946   0.23721   0.74519   0.00000  Uiso   1.00
O757   O     0.44054   0.09613   0.75482   0.00000  Uiso   1.00
O758   O     0.45181   0.17117   0.81998   0.00000  Uiso   1.00
O759   O     0.54819   0.16216   0.68003   0.00000  Uiso   1.00
O760   O     0.54819   0.16219   0.81218   0.00000  Uiso   1.00
O761   O     0.45181   0.17115   0.68783   0.00000  Uiso   1.00
O762   O     0.46672   0.01317   0.58923   0.00000  Uiso   1.00
S763   S     0.44362   0.05964   0.61614   0.00000  Uiso   1.00
S764   S     0.48725   0.26845   0.90393   0.00000  Uiso   1.00
S765   S     0.59845   0.29260   0.55567   0.00000  Uiso   1.00
S766   S     0.38335   0.04368   0.94550   0.00000  Uiso   1.00
S767   S     0.58933   0.00984   0.78066   0.00000  Uiso   1.00
S768   S     0.40750   0.33092   0.78449   0.00000  Uiso   1.00
Zn769  Zn    0.43565   0.17266   0.75521   0.00000  Uiso   1.00
Zn770  Zn    0.56435   0.16067   0.74479   0.00000  Uiso   1.00
C771   C     0.84803   0.26496   0.75264   0.00000  Uiso   1.00
C772   C     0.85058   0.20956   0.91220   0.00000  Uiso   1.00
C773   C     0.83194   0.15803   0.61562   0.00000  Uiso   1.00
C774   C     0.83425   0.16584   0.88462   0.00000  Uiso   1.00
C775   C     0.86401   0.19619   0.59450   0.00000  Uiso   1.00
C776   C     0.81060   0.12204   0.90361   0.00000  Uiso   1.00
C777   C     0.86528   0.19836   0.54847   0.00000  Uiso   1.00
C778   C     0.80516   0.12079   0.95026   0.00000  Uiso   1.00
C779   C     0.83523   0.15862   0.52299   0.00000  Uiso   1.00
C780   C     0.83511   0.15985   0.97640   0.00000  Uiso   1.00
C781   C     0.80413   0.11835   0.54407   0.00000  Uiso   1.00
C782   C     0.81886   0.06979   0.75630   0.00000  Uiso   1.00
C783   C     0.86172   0.20239   0.95607   0.00000  Uiso   1.00
C784   C     0.89466   0.23949   0.52717   0.00000  Uiso   1.00
C785   C     0.77060   0.08310   0.97175   0.00000  Uiso   1.00
C786   C     0.89342   0.23997   0.98093   0.00000  Uiso   1.00
C787   C     0.77136   0.08217   0.51806   0.00000  Uiso   1.00
C788   C     0.85541   0.31991   0.76376   0.00000  Uiso   1.00
C789   C     0.81088   0.01727   0.76713   0.00000  Uiso   1.00
C790   C     0.83383   0.16730   0.83651   0.00000  Uiso   1.00
C791   C     0.83226   0.16231   0.66374   0.00000  Uiso   1.00
C792   C     0.80434   0.11656   0.59091   0.00000  Uiso   1.00
Cl793  Cl    0.67453   0.13779   0.68332   0.00000  Uiso   1.00
Cl794  Cl    0.99290   0.19172   0.81763   0.00000  Uiso   1.00
H795   H     0.88837   0.22375   0.61510   0.00000  Uiso   1.00
H796   H     0.72909   0.06765   0.82835   0.00000  Uiso   1.00
H797   H     0.79580   0.09049   0.88134   0.00000  Uiso   1.00
H798   H     0.91607   0.27082   0.96403   0.00000  Uiso   1.00
H799   H     0.74322   0.05422   0.53380   0.00000  Uiso   1.00
H800   H     0.69434   0.02333   0.62974   0.00000  Uiso   1.00
H801   H     0.86660   0.26473   0.84024   0.00000  Uiso   1.00
H802   H     0.95529   0.03833   0.54259   0.00000  Uiso   1.00
H803   H     0.96363   0.05480   0.93223   0.00000  Uiso   1.00
H804   H     0.95953   0.30799   0.83402   0.00000  Uiso   1.00
N805   N     0.98344   0.15265   0.73783   0.00000  Uiso   1.00
N806   N     0.68322   0.18068   0.76217   0.00000  Uiso   1.00
O807   O     0.79642   0.24619   0.75299   0.00000  Uiso   1.00
O808   O     0.79273   0.05905   0.66359   0.00000  Uiso   1.00
O809   O     0.70637   0.05507   0.61487   0.00000  Uiso   1.00
O810   O     0.75901   0.25629   0.89800   0.00000  Uiso   1.00
O811   O     0.82627   0.30746   0.94358   0.00000  Uiso   1.00
O812   O     0.85025   0.29425   0.85845   0.00000  Uiso   1.00
O813   O     0.90355   0.30898   0.60071   0.00000  Uiso   1.00
O814   O     0.99047   0.27726   0.56187   0.00000  Uiso   1.00
O815   O     0.93527   0.01026   0.52455   0.00000  Uiso   1.00
O816   O     0.73397   0.02419   0.89839   0.00000  Uiso   1.00
O817   O     0.70129   0.33117   0.97194   0.00000  Uiso   1.00
O818   O     0.87025   0.08714   0.74702   0.00000  Uiso   1.00
O819   O     0.99312   0.07904   0.94491   0.00000  Uiso   1.00
O820   O     0.95730   0.02731   0.74032   0.00000  Uiso   1.00
O821   O     0.91695   0.05446   0.81594   0.00000  Uiso   1.00
O822   O     0.95443   0.29585   0.80222   0.00000  Uiso   1.00
O823   O     0.71354   0.30668   0.74353   0.00000  Uiso   1.00
O824   O     0.74006   0.29225   0.81885   0.00000  Uiso   1.00
O825   O     0.70433   0.04820   0.80702   0.00000  Uiso   1.00
O826   O     0.89280   0.23721   0.74519   0.00000  Uiso   1.00
O827   O     0.77387   0.09613   0.75482   0.00000  Uiso   1.00
O828   O     0.78514   0.17117   0.81998   0.00000  Uiso   1.00
O829   O     0.88153   0.16216   0.68003   0.00000  Uiso   1.00
O830   O     0.88152   0.16219   0.81218   0.00000  Uiso   1.00
O831   O     0.78515   0.17115   0.68783   0.00000  Uiso   1.00
O832   O     0.80005   0.01317   0.58923   0.00000  Uiso   1.00
S833   S     0.77696   0.05964   0.61614   0.00000  Uiso   1.00
S834   S     0.82058   0.26845   0.90393   0.00000  Uiso   1.00
S835   S     0.93179   0.29260   0.55567   0.00000  Uiso   1.00
S836   S     0.71668   0.04368   0.94550   0.00000  Uiso   1.00
S837   S     0.92266   0.00984   0.78066   0.00000  Uiso   1.00
S838   S     0.74083   0.33092   0.78449   0.00000  Uiso   1.00
Zn839  Zn    0.76898   0.17266   0.75521   0.00000  Uiso   1.00
Zn840  Zn    0.89769   0.16067   0.74479   0.00000  Uiso   1.00
C841   C     0.18137   0.59829   0.75264   0.00000  Uiso   1.00
C842   C     0.18391   0.54289   0.91220   0.00000  Uiso   1.00
C843   C     0.16527   0.49136   0.61562   0.00000  Uiso   1.00
C844   C     0.16759   0.49917   0.88462   0.00000  Uiso   1.00
C845   C     0.19735   0.52953   0.59450   0.00000  Uiso   1.00
C846   C     0.14393   0.45537   0.90361   0.00000  Uiso   1.00
C847   C     0.19861   0.53169   0.54847   0.00000  Uiso   1.00
C848   C     0.13849   0.45412   0.95026   0.00000  Uiso   1.00
C849   C     0.16857   0.49195   0.52299   0.00000  Uiso   1.00
C850   C     0.16844   0.49319   0.97640   0.00000  Uiso   1.00
C851   C     0.13747   0.45169   0.54407   0.00000  Uiso   1.00
C852   C     0.15219   0.40312   0.75630   0.00000  Uiso   1.00
C853   C     0.19506   0.53572   0.95607   0.00000  Uiso   1.00
C854   C     0.22800   0.57282   0.52717   0.00000  Uiso   1.00
C855   C     0.10394   0.41644   0.97175   0.00000  Uiso   1.00
C856   C     0.22676   0.57330   0.98093   0.00000  Uiso   1.00
C857   C     0.10469   0.41551   0.51806   0.00000  Uiso   1.00
C858   C     0.18875   0.65324   0.76376   0.00000  Uiso   1.00
C859   C     0.14422   0.35060   0.76713   0.00000  Uiso   1.00
C860   C     0.16716   0.50064   0.83651   0.00000  Uiso   1.00
C861   C     0.16559   0.49565   0.66374   0.00000  Uiso   1.00
C862   C     0.13767   0.44989   0.59091   0.00000  Uiso   1.00
Cl863  Cl    0.00786   0.47113   0.68332   0.00000  Uiso   1.00
Cl864  Cl    0.32624   0.52505   0.81763   0.00000  Uiso   1.00
H865   H     0.22171   0.55709   0.61510   0.00000  Uiso   1.00
H866   H     0.06242   0.40099   0.82835   0.00000  Uiso   1.00
H867   H     0.12914   0.42383   0.88134   0.00000  Uiso   1.00
H868   H     0.24940   0.60416   0.96403   0.00000  Uiso   1.00
H869   H     0.07656   0.38755   0.53380   0.00000  Uiso   1.00
H870   H     0.02767   0.35667   0.62974   0.00000  Uiso   1.00
H871   H     0.19994   0.59807   0.84024   0.00000  Uiso   1.00
H872   H     0.28862   0.37167   0.54259   0.00000  Uiso   1.00
H873   H     0.29696   0.38813   0.93223   0.00000  Uiso   1.00
H874   H     0.29286   0.64133   0.83402   0.00000  Uiso   1.00
N875   N     0.31678   0.48598   0.73783   0.00000  Uiso   1.00
N876   N     0.01656   0.51402   0.76217   0.00000  Uiso   1.00
O877   O     0.12975   0.57952   0.75299   0.00000  Uiso   1.00
O878   O     0.12607   0.39239   0.66359   0.00000  Uiso   1.00
O879   O     0.03970   0.38840   0.61487   0.00000  Uiso   1.00
O880   O     0.09235   0.58962   0.89800   0.00000  Uiso   1.00
O881   O     0.15960   0.64080   0.94358   0.00000  Uiso   1.00
O882   O     0.18358   0.62758   0.85845   0.00000  Uiso   1.00
O883   O     0.23689   0.64232   0.60071   0.00000  Uiso   1.00
O884   O     0.32380   0.61059   0.56187   0.00000  Uiso   1.00
O885   O     0.26860   0.34360   0.52455   0.00000  Uiso   1.00
O886   O     0.06730   0.35753   0.89839   0.00000  Uiso   1.00
O887   O     0.03462   0.66450   0.97194   0.00000  Uiso   1.00
O888   O     0.20358   0.42048   0.74702   0.00000  Uiso   1.00
O889   O     0.32646   0.41238   0.94491   0.00000  Uiso   1.00
O890   O     0.29064   0.36064   0.74032   0.00000  Uiso   1.00
O891   O     0.25029   0.38779   0.81594   0.00000  Uiso   1.00
O892   O     0.28777   0.62918   0.80222   0.00000  Uiso   1.00
O893   O     0.04688   0.64002   0.74353   0.00000  Uiso   1.00
O894   O     0.07340   0.62558   0.81885   0.00000  Uiso   1.00
O895   O     0.03766   0.38153   0.80702   0.00000  Uiso   1.00
O896   O     0.22613   0.57054   0.74519   0.00000  Uiso   1.00
O897   O     0.10720   0.42946   0.75482   0.00000  Uiso   1.00
O898   O     0.11847   0.50450   0.81998   0.00000  Uiso   1.00
O899   O     0.21486   0.49550   0.68003   0.00000  Uiso   1.00
O900   O     0.21485   0.49552   0.81218   0.00000  Uiso   1.00
O901   O     0.11848   0.50448   0.68783   0.00000  Uiso   1.00
O902   O     0.13339   0.34650   0.58923   0.00000  Uiso   1.00
S903   S     0.11029   0.39297   0.61614   0.00000  Uiso   1.00
S904   S     0.15392   0.60179   0.90393   0.00000  Uiso   1.00
S905   S     0.26512   0.62593   0.55567   0.00000  Uiso   1.00
S906   S     0.05001   0.37702   0.94550   0.00000  Uiso   1.00
S907   S     0.25600   0.34318   0.78066   0.00000  Uiso   1.00
S908   S     0.07416   0.66426   0.78449   0.00000  Uiso   1.00
Zn909  Zn    0.10231   0.50600   0.75521   0.00000  Uiso   1.00
Zn910  Zn    0.23102   0.49400   0.74479   0.00000  Uiso   1.00
C911   C     0.51470   0.59829   0.75264   0.00000  Uiso   1.00
C912   C     0.51725   0.54289   0.91220   0.00000  Uiso   1.00
C913   C     0.49861   0.49136   0.61562   0.00000  Uiso   1.00
C914   C     0.50092   0.49917   0.88462   0.00000  Uiso   1.00
C915   C     0.53068   0.52953   0.59450   0.00000  Uiso   1.00
C916   C     0.47726   0.45537   0.90361   0.00000  Uiso   1.00
C917   C     0.53195   0.53169   0.54847   0.00000  Uiso   1.00
C918   C     0.47183   0.45412   0.95026   0.00000  Uiso   1.00
C919   C     0.50190   0.49195   0.52299   0.00000  Uiso   1.00
C920   C     0.50177   0.49319   0.97640   0.00000  Uiso   1.00
C921   C     0.47080   0.45169   0.54407   0.00000  Uiso   1.00
C922   C     0.48553   0.40312   0.75630   0.00000  Uiso   1.00
C923   C     0.52839   0.53572   0.95607   0.00000  Uiso   1.00
C924   C     0.56133   0.57282   0.52717   0.00000  Uiso   1.00
C925   C     0.43727   0.41644   0.97175   0.00000  Uiso   1.00
C926   C     0.56009   0.57330   0.98093   0.00000  Uiso   1.00
C927   C     0.43802   0.41551   0.51806   0.00000  Uiso   1.00
C928   C     0.52208   0.65324   0.76376   0.00000  Uiso   1.00
C929   C     0.47755   0.35060   0.76713   0.00000  Uiso   1.00
C930   C     0.50050   0.50064   0.83651   0.00000  Uiso   1.00
C931   C     0.49893   0.49565   0.66374   0.00000  Uiso   1.00
C932   C     0.47101   0.44989   0.59091   0.00000  Uiso   1.00
Cl933  Cl    0.34120   0.47113   0.68332   0.00000  Uiso   1.00
Cl934  Cl    0.65957   0.52505   0.81763   0.00000  Uiso   1.00
H935   H     0.55504   0.55709   0.61510   0.00000  Uiso   1.00
H936   H     0.39575   0.40099   0.82835   0.00000  Uiso   1.00
H937   H     0.46247   0.42383   0.88134   0.00000  Uiso   1.00
H938   H     0.58273   0.60416   0.96403   0.00000  Uiso   1.00
H939   H     0.40989   0.38755   0.53380   0.00000  Uiso   1.00
H940   H     0.36101   0.35667   0.62974   0.00000  Uiso   1.00
H941   H     0.53327   0.59807   0.84024   0.00000  Uiso   1.00
H942   H     0.62195   0.37167   0.54259   0.00000  Uiso   1.00
H943   H     0.63030   0.38813   0.93223   0.00000  Uiso   1.00
H944   H     0.62620   0.64133   0.83402   0.00000  Uiso   1.00
N945   N     0.65011   0.48598   0.73783   0.00000  Uiso   1.00
N946   N     0.34989   0.51402   0.76217   0.00000  Uiso   1.00
O947   O     0.46308   0.57952   0.75299   0.00000  Uiso   1.00
O948   O     0.45940   0.39239   0.66359   0.00000  Uiso   1.00
O949   O     0.37303   0.38840   0.61487   0.00000  Uiso   1.00
O950   O     0.42568   0.58962   0.89800   0.00000  Uiso   1.00
O951   O     0.49294   0.64080   0.94358   0.00000  Uiso   1.00
O952   O     0.51692   0.62758   0.85845   0.00000  Uiso   1.00
O953   O     0.57022   0.64232   0.60071   0.00000  Uiso   1.00
O954   O     0.65714   0.61059   0.56187   0.00000  Uiso   1.00
O955   O     0.60194   0.34360   0.52455   0.00000  Uiso   1.00
O956   O     0.40063   0.35753   0.89839   0.00000  Uiso   1.00
O957   O     0.36795   0.66450   0.97194   0.00000  Uiso   1.00
O958   O     0.53692   0.42048   0.74702   0.00000  Uiso   1.00
O959   O     0.65979   0.41238   0.94491   0.00000  Uiso   1.00
O960   O     0.62397   0.36064   0.74032   0.00000  Uiso   1.00
O961   O     0.58362   0.38779   0.81594   0.00000  Uiso   1.00
O962   O     0.62110   0.62918   0.80222   0.00000  Uiso   1.00
O963   O     0.38021   0.64002   0.74353   0.00000  Uiso   1.00
O964   O     0.40673   0.62558   0.81885   0.00000  Uiso   1.00
O965   O     0.37099   0.38153   0.80702   0.00000  Uiso   1.00
O966   O     0.55946   0.57054   0.74519   0.00000  Uiso   1.00
O967   O     0.44054   0.42946   0.75482   0.00000  Uiso   1.00
O968   O     0.45181   0.50450   0.81998   0.00000  Uiso   1.00
O969   O     0.54819   0.49550   0.68003   0.00000  Uiso   1.00
O970   O     0.54819   0.49552   0.81218   0.00000  Uiso   1.00
O971   O     0.45181   0.50448   0.68783   0.00000  Uiso   1.00
O972   O     0.46672   0.34650   0.58923   0.00000  Uiso   1.00
S973   S     0.44362   0.39297   0.61614   0.00000  Uiso   1.00
S974   S     0.48725   0.60179   0.90393   0.00000  Uiso   1.00
S975   S     0.59845   0.62593   0.55567   0.00000  Uiso   1.00
S976   S     0.38335   0.37702   0.94550   0.00000  Uiso   1.00
S977   S     0.58933   0.34318   0.78066   0.00000  Uiso   1.00
S978   S     0.40750   0.66426   0.78449   0.00000  Uiso   1.00
Zn979  Zn    0.43565   0.50600   0.75521   0.00000  Uiso   1.00
Zn980  Zn    0.56435   0.49400   0.74479   0.00000  Uiso   1.00
C981   C     0.84803   0.59829   0.75264   0.00000  Uiso   1.00
C982   C     0.85058   0.54289   0.91220   0.00000  Uiso   1.00
C983   C     0.83194   0.49136   0.61562   0.00000  Uiso   1.00
C984   C     0.83425   0.49917   0.88462   0.00000  Uiso   1.00
C985   C     0.86401   0.52953   0.59450   0.00000  Uiso   1.00
C986   C     0.81060   0.45537   0.90361   0.00000  Uiso   1.00
C987   C     0.86528   0.53169   0.54847   0.00000  Uiso   1.00
C988   C     0.80516   0.45412   0.95026   0.00000  Uiso   1.00
C989   C     0.83523   0.49195   0.52299   0.00000  Uiso   1.00
C990   C     0.83511   0.49319   0.97640   0.00000  Uiso   1.00
C991   C     0.80413   0.45169   0.54407   0.00000  Uiso   1.00
C992   C     0.81886   0.40312   0.75630   0.00000  Uiso   1.00
C993   C     0.86172   0.53572   0.95607   0.00000  Uiso   1.00
C994   C     0.89466   0.57282   0.52717   0.00000  Uiso   1.00
C995   C     0.77060   0.41644   0.97175   0.00000  Uiso   1.00
C996   C     0.89342   0.57330   0.98093   0.00000  Uiso   1.00
C997   C     0.77136   0.41551   0.51806   0.00000  Uiso   1.00
C998   C     0.85541   0.65324   0.76376   0.00000  Uiso   1.00
C999   C     0.81088   0.35060   0.76713   0.00000  Uiso   1.00
C1000  C     0.83383   0.50064   0.83651   0.00000  Uiso   1.00
C1001  C     0.83226   0.49565   0.66374   0.00000  Uiso   1.00
C1002  C     0.80434   0.44989   0.59091   0.00000  Uiso   1.00
Cl1003 Cl    0.67453   0.47113   0.68332   0.00000  Uiso   1.00
Cl1004 Cl    0.99290   0.52505   0.81763   0.00000  Uiso   1.00
H1005  H     0.88837   0.55709   0.61510   0.00000  Uiso   1.00
H1006  H     0.72909   0.40099   0.82835   0.00000  Uiso   1.00
H1007  H     0.79580   0.42383   0.88134   0.00000  Uiso   1.00
H1008  H     0.91607   0.60416   0.96403   0.00000  Uiso   1.00
H1009  H     0.74322   0.38755   0.53380   0.00000  Uiso   1.00
H1010  H     0.69434   0.35667   0.62974   0.00000  Uiso   1.00
H1011  H     0.86660   0.59807   0.84024   0.00000  Uiso   1.00
H1012  H     0.95529   0.37167   0.54259   0.00000  Uiso   1.00
H1013  H     0.96363   0.38813   0.93223   0.00000  Uiso   1.00
H1014  H     0.95953   0.64133   0.83402   0.00000  Uiso   1.00
N1015  N     0.98344   0.48598   0.73783   0.00000  Uiso   1.00
N1016  N     0.68322   0.51402   0.76217   0.00000  Uiso   1.00
O1017  O     0.79642   0.57952   0.75299   0.00000  Uiso   1.00
O1018  O     0.79273   0.39239   0.66359   0.00000  Uiso   1.00
O1019  O     0.70637   0.38840   0.61487   0.00000  Uiso   1.00
O1020  O     0.75901   0.58962   0.89800   0.00000  Uiso   1.00
O1021  O     0.82627   0.64080   0.94358   0.00000  Uiso   1.00
O1022  O     0.85025   0.62758   0.85845   0.00000  Uiso   1.00
O1023  O     0.90355   0.64232   0.60071   0.00000  Uiso   1.00
O1024  O     0.99047   0.61059   0.56187   0.00000  Uiso   1.00
O1025  O     0.93527   0.34360   0.52455   0.00000  Uiso   1.00
O1026  O     0.73397   0.35753   0.89839   0.00000  Uiso   1.00
O1027  O     0.70129   0.66450   0.97194   0.00000  Uiso   1.00
O1028  O     0.87025   0.42048   0.74702   0.00000  Uiso   1.00
O1029  O     0.99312   0.41238   0.94491   0.00000  Uiso   1.00
O1030  O     0.95730   0.36064   0.74032   0.00000  Uiso   1.00
O1031  O     0.91695   0.38779   0.81594   0.00000  Uiso   1.00
O1032  O     0.95443   0.62918   0.80222   0.00000  Uiso   1.00
O1033  O     0.71354   0.64002   0.74353   0.00000  Uiso   1.00
O1034  O     0.74006   0.62558   0.81885   0.00000  Uiso   1.00
O1035  O     0.70433   0.38153   0.80702   0.00000  Uiso   1.00
O1036  O     0.89280   0.57054   0.74519   0.00000  Uiso   1.00
O1037  O     0.77387   0.42946   0.75482   0.00000  Uiso   1.00
O1038  O     0.78514   0.50450   0.81998   0.00000  Uiso   1.00
O1039  O     0.88153   0.49550   0.68003   0.00000  Uiso   1.00
O1040  O     0.88152   0.49552   0.81218   0.00000  Uiso   1.00
O1041  O     0.78515   0.50448   0.68783   0.00000  Uiso   1.00
O1042  O     0.80005   0.34650   0.58923   0.00000  Uiso   1.00
S1043  S     0.77696   0.39297   0.61614   0.00000  Uiso   1.00
S1044  S     0.82058   0.60179   0.90393   0.00000  Uiso   1.00
S1045  S     0.93179   0.62593   0.55567   0.00000  Uiso   1.00
S1046  S     0.71668   0.37702   0.94550   0.00000  Uiso   1.00
S1047  S     0.92266   0.34318   0.78066   0.00000  Uiso   1.00
S1048  S     0.74083   0.66426   0.78449   0.00000  Uiso   1.00
Zn1049 Zn    0.76898   0.50600   0.75521   0.00000  Uiso   1.00
Zn1050 Zn    0.89769   0.49400   0.74479   0.00000  Uiso   1.00
C1051  C     0.18137   0.93162   0.75264   0.00000  Uiso   1.00
C1052  C     0.18391   0.87622   0.91220   0.00000  Uiso   1.00
C1053  C     0.16527   0.82470   0.61562   0.00000  Uiso   1.00
C1054  C     0.16759   0.83251   0.88462   0.00000  Uiso   1.00
C1055  C     0.19735   0.86286   0.59450   0.00000  Uiso   1.00
C1056  C     0.14393   0.78871   0.90361   0.00000  Uiso   1.00
C1057  C     0.19861   0.86503   0.54847   0.00000  Uiso   1.00
C1058  C     0.13849   0.78746   0.95026   0.00000  Uiso   1.00
C1059  C     0.16857   0.82528   0.52299   0.00000  Uiso   1.00
C1060  C     0.16844   0.82652   0.97640   0.00000  Uiso   1.00
C1061  C     0.13747   0.78502   0.54407   0.00000  Uiso   1.00
C1062  C     0.15219   0.73645   0.75630   0.00000  Uiso   1.00
C1063  C     0.19506   0.86905   0.95607   0.00000  Uiso   1.00
C1064  C     0.22800   0.90616   0.52717   0.00000  Uiso   1.00
C1065  C     0.10394   0.74977   0.97175   0.00000  Uiso   1.00
C1066  C     0.22676   0.90663   0.98093   0.00000  Uiso   1.00
C1067  C     0.10469   0.74884   0.51806   0.00000  Uiso   1.00
C1068  C     0.18875   0.98658   0.76376   0.00000  Uiso   1.00
C1069  C     0.14422   0.68393   0.76713   0.00000  Uiso   1.00
C1070  C     0.16716   0.83397   0.83651   0.00000  Uiso   1.00
C1071  C     0.16559   0.82898   0.66374   0.00000  Uiso   1.00
C1072  C     0.13767   0.78322   0.59091   0.00000  Uiso   1.00
Cl1073 Cl    0.00786   0.80446   0.68332   0.00000  Uiso   1.00
Cl1074 Cl    0.32624   0.85838   0.81763   0.00000  Uiso   1.00
H1075  H     0.22171   0.89042   0.61510   0.00000  Uiso   1.00
H1076  H     0.06242   0.73432   0.82835   0.00000  Uiso   1.00
H1077  H     0.12914   0.75716   0.88134   0.00000  Uiso   1.00
H1078  H     0.24940   0.93749   0.96403   0.00000  Uiso   1.00
H1079  H     0.07656   0.72088   0.53380   0.00000  Uiso   1.00
H1080  H     0.02767   0.69000   0.62974   0.00000  Uiso   1.00
H1081  H     0.19994   0.93140   0.84024   0.00000  Uiso   1.00
H1082  H     0.28862   0.70500   0.54259   0.00000  Uiso   1.00
H1083  H     0.29696   0.72147   0.93223   0.00000  Uiso   1.00
H1084  H     0.29286   0.97466   0.83402   0.00000  Uiso   1.00
N1085  N     0.31678   0.81932   0.73783   0.00000  Uiso   1.00
N1086  N     0.01656   0.84735   0.76217   0.00000  Uiso   1.00
O1087  O     0.12975   0.91286   0.75299   0.00000  Uiso   1.00
O1088  O     0.12607   0.72572   0.66359   0.00000  Uiso   1.00
O1089  O     0.03970   0.72173   0.61487   0.00000  Uiso   1.00
O1090  O     0.09235   0.92295   0.89800   0.00000  Uiso   1.00
O1091  O     0.15960   0.97413   0.94358   0.00000  Uiso   1.00
O1092  O     0.18358   0.96092   0.85845   0.00000  Uiso   1.00
O1093  O     0.23689   0.97565   0.60071   0.00000  Uiso   1.00
O1094  O     0.32380   0.94393   0.56187   0.00000  Uiso   1.00
O1095  O     0.26860   0.67693   0.52455   0.00000  Uiso   1.00
O1096  O     0.06730   0.69086   0.89839   0.00000  Uiso   1.00
O1097  O     0.03462   0.99784   0.97194   0.00000  Uiso   1.00
O1098  O     0.20358   0.75381   0.74702   0.00000  Uiso   1.00
O1099  O     0.32646   0.74571   0.94491   0.00000  Uiso   1.00
O1100  O     0.29064   0.69397   0.74032   0.00000  Uiso   1.00
O1101  O     0.25029   0.72113   0.81594   0.00000  Uiso   1.00
O1102  O     0.28777   0.96251   0.80222   0.00000  Uiso   1.00
O1103  O     0.04688   0.97335   0.74353   0.00000  Uiso   1.00
O1104  O     0.07340   0.95891   0.81885   0.00000  Uiso   1.00
O1105  O     0.03766   0.71486   0.80702   0.00000  Uiso   1.00
O1106  O     0.22613   0.90387   0.74519   0.00000  Uiso   1.00
O1107  O     0.10720   0.76279   0.75482   0.00000  Uiso   1.00
O1108  O     0.11847   0.83784   0.81998   0.00000  Uiso   1.00
O1109  O     0.21486   0.82883   0.68003   0.00000  Uiso   1.00
O1110  O     0.21485   0.82885   0.81218   0.00000  Uiso   1.00
O1111  O     0.11848   0.83781   0.68783   0.00000  Uiso   1.00
O1112  O     0.13339   0.67984   0.58923   0.00000  Uiso   1.00
S1113  S     0.11029   0.72631   0.61614   0.00000  Uiso   1.00
S1114  S     0.15392   0.93512   0.90393   0.00000  Uiso   1.00
S1115  S     0.26512   0.95926   0.55567   0.00000  Uiso   1.00
S1116  S     0.05001   0.71035   0.94550   0.00000  Uiso   1.00
S1117  S     0.25600   0.67651   0.78066   0.00000  Uiso   1.00
S1118  S     0.07416   0.99759   0.78449   0.00000  Uiso   1.00
Zn1119 Zn    0.10231   0.83933   0.75521   0.00000  Uiso   1.00
Zn1120 Zn    0.23102   0.82734   0.74479   0.00000  Uiso   1.00
C1121  C     0.51470   0.93162   0.75264   0.00000  Uiso   1.00
C1122  C     0.51725   0.87622   0.91220   0.00000  Uiso   1.00
C1123  C     0.49861   0.82470   0.61562   0.00000  Uiso   1.00
C1124  C     0.50092   0.83251   0.88462   0.00000  Uiso   1.00
C1125  C     0.53068   0.86286   0.59450   0.00000  Uiso   1.00
C1126  C     0.47726   0.78871   0.90361   0.00000  Uiso   1.00
C1127  C     0.53195   0.86503   0.54847   0.00000  Uiso   1.00
C1128  C     0.47183   0.78746   0.95026   0.00000  Uiso   1.00
C1129  C     0.50190   0.82528   0.52299   0.00000  Uiso   1.00
C1130  C     0.50177   0.82652   0.97640   0.00000  Uiso   1.00
C1131  C     0.47080   0.78502   0.54407   0.00000  Uiso   1.00
C1132  C     0.48553   0.73645   0.75630   0.00000  Uiso   1.00
C1133  C     0.52839   0.86905   0.95607   0.00000  Uiso   1.00
C1134  C     0.56133   0.90616   0.52717   0.00000  Uiso   1.00
C1135  C     0.43727   0.74977   0.97175   0.00000  Uiso   1.00
C1136  C     0.56009   0.90663   0.98093   0.00000  Uiso   1.00
C1137  C     0.43802   0.74884   0.51806   0.00000  Uiso   1.00
C1138  C     0.52208   0.98658   0.76376   0.00000  Uiso   1.00
C1139  C     0.47755   0.68393   0.76713   0.00000  Uiso   1.00
C1140  C     0.50050   0.83397   0.83651   0.00000  Uiso   1.00
C1141  C     0.49893   0.82898   0.66374   0.00000  Uiso   1.00
C1142  C     0.47101   0.78322   0.59091   0.00000  Uiso   1.00
Cl1143 Cl    0.34120   0.80446   0.68332   0.00000  Uiso   1.00
Cl1144 Cl    0.65957   0.85838   0.81763   0.00000  Uiso   1.00
H1145  H     0.55504   0.89042   0.61510   0.00000  Uiso   1.00
H1146  H     0.39575   0.73432   0.82835   0.00000  Uiso   1.00
H1147  H     0.46247   0.75716   0.88134   0.00000  Uiso   1.00
H1148  H     0.58273   0.93749   0.96403   0.00000  Uiso   1.00
H1149  H     0.40989   0.72088   0.53380   0.00000  Uiso   1.00
H1150  H     0.36101   0.69000   0.62974   0.00000  Uiso   1.00
H1151  H     0.53327   0.93140   0.84024   0.00000  Uiso   1.00
H1152  H     0.62195   0.70500   0.54259   0.00000  Uiso   1.00
H1153  H     0.63030   0.72147   0.93223   0.00000  Uiso   1.00
H1154  H     0.62620   0.97466   0.83402   0.00000  Uiso   1.00
N1155  N     0.65011   0.81932   0.73783   0.00000  Uiso   1.00
N1156  N     0.34989   0.84735   0.76217   0.00000  Uiso   1.00
O1157  O     0.46308   0.91286   0.75299   0.00000  Uiso   1.00
O1158  O     0.45940   0.72572   0.66359   0.00000  Uiso   1.00
O1159  O     0.37303   0.72173   0.61487   0.00000  Uiso   1.00
O1160  O     0.42568   0.92295   0.89800   0.00000  Uiso   1.00
O1161  O     0.49294   0.97413   0.94358   0.00000  Uiso   1.00
O1162  O     0.51692   0.96092   0.85845   0.00000  Uiso   1.00
O1163  O     0.57022   0.97565   0.60071   0.00000  Uiso   1.00
O1164  O     0.65714   0.94393   0.56187   0.00000  Uiso   1.00
O1165  O     0.60194   0.67693   0.52455   0.00000  Uiso   1.00
O1166  O     0.40063   0.69086   0.89839   0.00000  Uiso   1.00
O1167  O     0.36795   0.99784   0.97194   0.00000  Uiso   1.00
O1168  O     0.53692   0.75381   0.74702   0.00000  Uiso   1.00
O1169  O     0.65979   0.74571   0.94491   0.00000  Uiso   1.00
O1170  O     0.62397   0.69397   0.74032   0.00000  Uiso   1.00
O1171  O     0.58362   0.72113   0.81594   0.00000  Uiso   1.00
O1172  O     0.62110   0.96251   0.80222   0.00000  Uiso   1.00
O1173  O     0.38021   0.97335   0.74353   0.00000  Uiso   1.00
O1174  O     0.40673   0.95891   0.81885   0.00000  Uiso   1.00
O1175  O     0.37099   0.71486   0.80702   0.00000  Uiso   1.00
O1176  O     0.55946   0.90387   0.74519   0.00000  Uiso   1.00
O1177  O     0.44054   0.76279   0.75482   0.00000  Uiso   1.00
O1178  O     0.45181   0.83784   0.81998   0.00000  Uiso   1.00
O1179  O     0.54819   0.82883   0.68003   0.00000  Uiso   1.00
O1180  O     0.54819   0.82885   0.81218   0.00000  Uiso   1.00
O1181  O     0.45181   0.83781   0.68783   0.00000  Uiso   1.00
O1182  O     0.46672   0.67984   0.58923   0.00000  Uiso   1.00
S1183  S     0.44362   0.72631   0.61614   0.00000  Uiso   1.00
S1184  S     0.48725   0.93512   0.90393   0.00000  Uiso   1.00
S1185  S     0.59845   0.95926   0.55567   0.00000  Uiso   1.00
S1186  S     0.38335   0.71035   0.94550   0.00000  Uiso   1.00
S1187  S     0.58933   0.67651   0.78066   0.00000  Uiso   1.00
S1188  S     0.40750   0.99759   0.78449   0.00000  Uiso   1.00
Zn1189 Zn    0.43565   0.83933   0.75521   0.00000  Uiso   1.00
Zn1190 Zn    0.56435   0.82734   0.74479   0.00000  Uiso   1.00
C1191  C     0.84803   0.93162   0.75264   0.00000  Uiso   1.00
C1192  C     0.85058   0.87622   0.91220   0.00000  Uiso   1.00
C1193  C     0.83194   0.82470   0.61562   0.00000  Uiso   1.00
C1194  C     0.83425   0.83251   0.88462   0.00000  Uiso   1.00
C1195  C     0.86401   0.86286   0.59450   0.00000  Uiso   1.00
C1196  C     0.81060   0.78871   0.90361   0.00000  Uiso   1.00
C1197  C     0.86528   0.86503   0.54847   0.00000  Uiso   1.00
C1198  C     0.80516   0.78746   0.95026   0.00000  Uiso   1.00
C1199  C     0.83523   0.82528   0.52299   0.00000  Uiso   1.00
C1200  C     0.83511   0.82652   0.97640   0.00000  Uiso   1.00
C1201  C     0.80413   0.78502   0.54407   0.00000  Uiso   1.00
C1202  C     0.81886   0.73645   0.75630   0.00000  Uiso   1.00
C1203  C     0.86172   0.86905   0.95607   0.00000  Uiso   1.00
C1204  C     0.89466   0.90616   0.52717   0.00000  Uiso   1.00
C1205  C     0.77060   0.74977   0.97175   0.00000  Uiso   1.00
C1206  C     0.89342   0.90663   0.98093   0.00000  Uiso   1.00
C1207  C     0.77136   0.74884   0.51806   0.00000  Uiso   1.00
C1208  C     0.85541   0.98658   0.76376   0.00000  Uiso   1.00
C1209  C     0.81088   0.68393   0.76713   0.00000  Uiso   1.00
C1210  C     0.83383   0.83397   0.83651   0.00000  Uiso   1.00
C1211  C     0.83226   0.82898   0.66374   0.00000  Uiso   1.00
C1212  C     0.80434   0.78322   0.59091   0.00000  Uiso   1.00
Cl1213 Cl    0.67453   0.80446   0.68332   0.00000  Uiso   1.00
Cl1214 Cl    0.99290   0.85838   0.81763   0.00000  Uiso   1.00
H1215  H     0.88837   0.89042   0.61510   0.00000  Uiso   1.00
H1216  H     0.72909   0.73432   0.82835   0.00000  Uiso   1.00
H1217  H     0.79580   0.75716   0.88134   0.00000  Uiso   1.00
H1218  H     0.91607   0.93749   0.96403   0.00000  Uiso   1.00
H1219  H     0.74322   0.72088   0.53380   0.00000  Uiso   1.00
H1220  H     0.69434   0.69000   0.62974   0.00000  Uiso   1.00
H1221  H     0.86660   0.93140   0.84024   0.00000  Uiso   1.00
H1222  H     0.95529   0.70500   0.54259   0.00000  Uiso   1.00
H1223  H     0.96363   0.72147   0.93223   0.00000  Uiso   1.00
H1224  H     0.95953   0.97466   0.83402   0.00000  Uiso   1.00
N1225  N     0.98344   0.81932   0.73783   0.00000  Uiso   1.00
N1226  N     0.68322   0.84735   0.76217   0.00000  Uiso   1.00
O1227  O     0.79642   0.91286   0.75299   0.00000  Uiso   1.00
O1228  O     0.79273   0.72572   0.66359   0.00000  Uiso   1.00
O1229  O     0.70637   0.72173   0.61487   0.00000  Uiso   1.00
O1230  O     0.75901   0.92295   0.89800   0.00000  Uiso   1.00
O1231  O     0.82627   0.97413   0.94358   0.00000  Uiso   1.00
O1232  O     0.85025   0.96092   0.85845   0.00000  Uiso   1.00
O1233  O     0.90355   0.97565   0.60071   0.00000  Uiso   1.00
O1234  O     0.99047   0.94393   0.56187   0.00000  Uiso   1.00
O1235  O     0.93527   0.67693   0.52455   0.00000  Uiso   1.00
O1236  O     0.73397   0.69086   0.89839   0.00000  Uiso   1.00
O1237  O     0.70129   0.99784   0.97194   0.00000  Uiso   1.00
O1238  O     0.87025   0.75381   0.74702   0.00000  Uiso   1.00
O1239  O     0.99312   0.74571   0.94491   0.00000  Uiso   1.00
O1240  O     0.95730   0.69397   0.74032   0.00000  Uiso   1.00
O1241  O     0.91695   0.72113   0.81594   0.00000  Uiso   1.00
O1242  O     0.95443   0.96251   0.80222   0.00000  Uiso   1.00
O1243  O     0.71354   0.97335   0.74353   0.00000  Uiso   1.00
O1244  O     0.74006   0.95891   0.81885   0.00000  Uiso   1.00
O1245  O     0.70433   0.71486   0.80702   0.00000  Uiso   1.00
O1246  O     0.89280   0.90387   0.74519   0.00000  Uiso   1.00
O1247  O     0.77387   0.76279   0.75482   0.00000  Uiso   1.00
O1248  O     0.78514   0.83784   0.81998   0.00000  Uiso   1.00
O1249  O     0.88153   0.82883   0.68003   0.00000  Uiso   1.00
O1250  O     0.88152   0.82885   0.81218   0.00000  Uiso   1.00
O1251  O     0.78515   0.83781   0.68783   0.00000  Uiso   1.00
O1252  O     0.80005   0.67984   0.58923   0.00000  Uiso   1.00
S1253  S     0.77696   0.72631   0.61614   0.00000  Uiso   1.00
S1254  S     0.82058   0.93512   0.90393   0.00000  Uiso   1.00
S1255  S     0.93179   0.95926   0.55567   0.00000  Uiso   1.00
S1256  S     0.71668   0.71035   0.94550   0.00000  Uiso   1.00
S1257  S     0.92266   0.67651   0.78066   0.00000  Uiso   1.00
S1258  S     0.74083   0.99759   0.78449   0.00000  Uiso   1.00
Zn1259 Zn    0.76898   0.83933   0.75521   0.00000  Uiso   1.00
Zn1260 Zn    0.89769   0.82734   0.74479   0.00000  Uiso   1.00
loop_
_geom_bond_atom_site_label_1
_geom_bond_atom_site_label_2
_geom_bond_distance
_geom_bond_site_symmetry_2
_ccdc_geom_bond_type
C1     C18     1.443   .     S
C1     O56     1.316   .     A
C1     O37     1.296   .     A
C2     C4      1.400   .     A
C2     C13     1.389   .     A
C2     S64     1.770   .     S
C3     C21     1.437   .     S
C3     C22     1.412   .     A
C3     C5      1.387   .     A
C4     C6      1.391   .     A
C4     C20     1.446   .     S
C5     C7      1.383   .     A
C5     H25     1.076   .     S
C6     C8      1.397   .     A
C6     H27     1.072   .     S
C7     C9      1.422   .     A
C7     C14     1.419   .     A
C8     C15     1.413   .     A
C8     C10     1.419   .     A
C9     C11     1.416   .     A
C9     C640    1.399   1_554 S
C10    C13     1.407   .     A
C10    C639    1.399   .     S
C11    C22     1.408   .     A
C11    C17     1.407   .     A
C12    O48     1.300   .     A
C12    O57     1.309   .     A
C12    C19     1.431   .     S
C13    C16     1.397   .     A
C14    S65     1.785   .     S
C14    C646    1.389   1_554 S
C15    S66     1.781   .     S
C15    C647    1.391   .     S
C16    H28     1.084   .     S
C16    C644    1.389   .     S
C17    H29     1.077   .     S
C17    C645    1.391   1_554 S
C18    C229    1.356   .     S
C18    S277    1.772   .     S
C19    C438    1.356   1_545 S
C19    S488    1.772   1_545 S
C20    O60     1.312   .     A
C20    O58     1.305   .     A
C21    O59     1.302   .     A
C21    O61     1.310   .     A
C22    S63     1.790   .     S
Cl23   N175    1.713   1_455 S
Cl24   N106    1.721   .     S
H26    O55     0.988   .     S
H30    O39     0.991   .     S
H31    O42     0.985   .     S
H32    O45     0.991   .     S
H33    O49     0.991   .     S
H34    O52     0.991   .     S
N35    Zn70    2.058   .     S
N35    Cl93    1.713   .     S
N35    N106    1.269   .     S
N36    Zn69    2.058   .     S
N36    N175    1.269   1_455 S
N36    Cl164   1.721   1_455 S
O37    Zn69    1.991   .     S
O38    S63     1.497   .     D
O39    S63     1.681   .     S
O40    S64     1.502   .     D
O41    S64     1.503   .     D
O42    S64     1.666   .     S
O43    S65     1.502   .     D
O44    S65     1.503   .     D
O45    S485    1.682   1_545 S
O46    S66     1.495   .     D
O47    S276    1.503   .     S
O48    Zn70    1.991   .     S
O49    S136    1.682   .     S
O50    S67     1.503   .     D
O51    S67     1.506   .     D
O52    S277    1.679   .     S
O53    S68     1.503   .     D
O54    S68     1.499   .     D
O55    S488    1.684   1_545 S
O56    Zn70    2.000   .     S
O57    Zn69    2.000   .     S
O58    Zn69    2.009   .     S
O59    Zn70    2.009   .     S
O60    Zn70    2.026   .     S
O61    Zn69    2.026   .     S
O62    S63     1.502   .     D
S65    O255    1.682   .     S
S66    O189    1.682   1_455 S
S66    O467    1.503   1_545 S
S67    O472    1.679   1_545 S
S67    C438    1.772   1_545 S
S68    C229    1.772   .     S
S68    O265    1.684   .     S
C71    C88     1.443   .     S
C71    O126    1.316   .     A
C71    O107    1.296   .     A
C72    C74     1.400   .     A
C72    C83     1.389   .     A
C72    S134    1.770   .     S
C73    C91     1.437   .     S
C73    C92     1.412   .     A
C73    C75     1.387   .     A
C74    C76     1.391   .     A
C74    C90     1.446   .     S
C75    C77     1.383   .     A
C75    H95     1.076   .     S
C76    C78     1.397   .     A
C76    H97     1.072   .     S
C77    C79     1.422   .     A
C77    C84     1.419   .     A
C78    C85     1.413   .     A
C78    C80     1.419   .     A
C79    C81     1.416   .     A
C79    C710    1.399   1_554 S
C80    C83     1.407   .     A
C80    C709    1.399   .     S
C81    C92     1.408   .     A
C81    C87     1.407   .     A
C82    O118    1.300   .     A
C82    O127    1.309   .     A
C82    C89     1.431   .     S
C83    C86     1.397   .     A
C84    S135    1.785   .     S
C84    C716    1.389   1_554 S
C85    S136    1.781   .     S
C85    C717    1.391   .     S
C86    H98     1.084   .     S
C86    C714    1.389   .     S
C87    H99     1.077   .     S
C87    C715    1.391   1_554 S
C88    C299    1.356   .     S
C88    S347    1.772   .     S
C89    C508    1.356   1_545 S
C89    S558    1.772   1_545 S
C90    O130    1.312   .     A
C90    O128    1.305   .     A
C91    O129    1.302   .     A
C91    O131    1.310   .     A
C92    S133    1.790   .     S
Cl94   N176    1.721   .     S
H96    O125    0.988   .     S
H100   O109    0.991   .     S
H101   O112    0.985   .     S
H102   O115    0.991   .     S
H103   O119    0.991   .     S
H104   O122    0.991   .     S
N105   Zn140   2.058   .     S
N105   Cl163   1.713   .     S
N105   N176    1.269   .     S
N106   Zn139   2.058   .     S
O107   Zn139   1.991   .     S
O108   S133    1.497   .     D
O109   S133    1.681   .     S
O110   S134    1.502   .     D
O111   S134    1.503   .     D
O112   S134    1.666   .     S
O113   S135    1.502   .     D
O114   S135    1.503   .     D
O115   S555    1.682   1_545 S
O116   S136    1.495   .     D
O117   S346    1.503   .     S
O118   Zn140   1.991   .     S
O119   S206    1.682   .     S
O120   S137    1.503   .     D
O121   S137    1.506   .     D
O122   S347    1.679   .     S
O123   S138    1.503   .     D
O124   S138    1.499   .     D
O125   S558    1.684   1_545 S
O126   Zn140   2.000   .     S
O127   Zn139   2.000   .     S
O128   Zn139   2.009   .     S
O129   Zn140   2.009   .     S
O130   Zn140   2.026   .     S
O131   Zn139   2.026   .     S
O132   S133    1.502   .     D
S135   O325    1.682   .     S
S136   O537    1.503   1_545 S
S137   O542    1.679   1_545 S
S137   C508    1.772   1_545 S
S138   C299    1.772   .     S
S138   O335    1.684   .     S
C141   C158    1.443   .     S
C141   O196    1.316   .     A
C141   O177    1.296   .     A
C142   C144    1.400   .     A
C142   C153    1.389   .     A
C142   S204    1.770   .     S
C143   C161    1.437   .     S
C143   C162    1.412   .     A
C143   C145    1.387   .     A
C144   C146    1.391   .     A
C144   C160    1.446   .     S
C145   C147    1.383   .     A
C145   H165    1.076   .     S
C146   C148    1.397   .     A
C146   H167    1.072   .     S
C147   C149    1.422   .     A
C147   C154    1.419   .     A
C148   C155    1.413   .     A
C148   C150    1.419   .     A
C149   C151    1.416   .     A
C149   C780    1.399   1_554 S
C150   C153    1.407   .     A
C150   C779    1.399   .     S
C151   C162    1.408   .     A
C151   C157    1.407   .     A
C152   O188    1.300   .     A
C152   O197    1.309   .     A
C152   C159    1.431   .     S
C153   C156    1.397   .     A
C154   S205    1.785   .     S
C154   C786    1.389   1_554 S
C155   S206    1.781   .     S
C155   C787    1.391   .     S
C156   H168    1.084   .     S
C156   C784    1.389   .     S
C157   H169    1.077   .     S
C157   C785    1.391   1_554 S
C158   C369    1.356   .     S
C158   S417    1.772   .     S
C159   C578    1.356   1_545 S
C159   S628    1.772   1_545 S
C160   O200    1.312   .     A
C160   O198    1.305   .     A
C161   O199    1.302   .     A
C161   O201    1.310   .     A
C162   S203    1.790   .     S
Cl164  N36     1.721   1_655 S
H166   O195    0.988   .     S
H170   O179    0.991   .     S
H171   O182    0.985   .     S
H172   O185    0.991   .     S
H173   O189    0.991   .     S
H174   O192    0.991   .     S
N175   Zn210   2.058   .     S
N175   Cl23    1.713   1_655 S
N175   N36     1.269   1_655 S
N176   Zn209   2.058   .     S
O177   Zn209   1.991   .     S
O178   S203    1.497   .     D
O179   S203    1.681   .     S
O180   S204    1.502   .     D
O181   S204    1.503   .     D
O182   S204    1.666   .     S
O183   S205    1.502   .     D
O184   S205    1.503   .     D
O185   S625    1.682   1_545 S
O186   S206    1.495   .     D
O187   S416    1.503   .     S
O188   Zn210   1.991   .     S
O189   S66     1.682   1_655 S
O190   S207    1.503   .     D
O191   S207    1.506   .     D
O192   S417    1.679   .     S
O193   S208    1.503   .     D
O194   S208    1.499   .     D
O195   S628    1.684   1_545 S
O196   Zn210   2.000   .     S
O197   Zn209   2.000   .     S
O198   Zn209   2.009   .     S
O199   Zn210   2.009   .     S
O200   Zn210   2.026   .     S
O201   Zn209   2.026   .     S
O202   S203    1.502   .     D
S205   O395    1.682   .     S
S206   O607    1.503   1_545 S
S207   O612    1.679   1_545 S
S207   C578    1.772   1_545 S
S208   C369    1.772   .     S
S208   O405    1.684   .     S
C211   C228    1.443   .     S
C211   O266    1.316   .     A
C211   O247    1.296   .     A
C212   C214    1.400   .     A
C212   C223    1.389   .     A
C212   S274    1.770   .     S
C213   C231    1.437   .     S
C213   C232    1.412   .     A
C213   C215    1.387   .     A
C214   C216    1.391   .     A
C214   C230    1.446   .     S
C215   C217    1.383   .     A
C215   H235    1.076   .     S
C216   C218    1.397   .     A
C216   H237    1.072   .     S
C217   C219    1.422   .     A
C217   C224    1.419   .     A
C218   C225    1.413   .     A
C218   C220    1.419   .     A
C219   C221    1.416   .     A
C219   C850    1.399   1_554 S
C220   C223    1.407   .     A
C220   C849    1.399   .     S
C221   C232    1.408   .     A
C221   C227    1.407   .     A
C222   O258    1.300   .     A
C222   O267    1.309   .     A
C222   C229    1.431   .     S
C223   C226    1.397   .     A
C224   S275    1.785   .     S
C224   C856    1.389   1_554 S
C225   S276    1.781   .     S
C225   C857    1.391   .     S
C226   H238    1.084   .     S
C226   C854    1.389   .     S
C227   H239    1.077   .     S
C227   C855    1.391   1_554 S
C228   C439    1.356   .     S
C228   S487    1.772   .     S
C230   O270    1.312   .     A
C230   O268    1.305   .     A
C231   O269    1.302   .     A
C231   O271    1.310   .     A
C232   S273    1.790   .     S
Cl233  N385    1.713   1_455 S
Cl234  N316    1.721   .     S
H236   O265    0.988   .     S
H240   O249    0.991   .     S
H241   O252    0.985   .     S
H242   O255    0.991   .     S
H243   O259    0.991   .     S
H244   O262    0.991   .     S
N245   Zn280   2.058   .     S
N245   Cl303   1.713   .     S
N245   N316    1.269   .     S
N246   Zn279   2.058   .     S
N246   N385    1.269   1_455 S
N246   Cl374   1.721   1_455 S
O247   Zn279   1.991   .     S
O248   S273    1.497   .     D
O249   S273    1.681   .     S
O250   S274    1.502   .     D
O251   S274    1.503   .     D
O252   S274    1.666   .     S
O253   S275    1.502   .     D
O254   S275    1.503   .     D
O256   S276    1.495   .     D
O257   S486    1.503   .     S
O258   Zn280   1.991   .     S
O259   S346    1.682   .     S
O260   S277    1.503   .     D
O261   S277    1.506   .     D
O262   S487    1.679   .     S
O263   S278    1.503   .     D
O264   S278    1.499   .     D
O266   Zn280   2.000   .     S
O267   Zn279   2.000   .     S
O268   Zn279   2.009   .     S
O269   Zn280   2.009   .     S
O270   Zn280   2.026   .     S
O271   Zn279   2.026   .     S
O272   S273    1.502   .     D
S275   O465    1.682   .     S
S276   O399    1.682   1_455 S
S278   C439    1.772   .     S
S278   O475    1.684   .     S
C281   C298    1.443   .     S
C281   O336    1.316   .     A
C281   O317    1.296   .     A
C282   C284    1.400   .     A
C282   C293    1.389   .     A
C282   S344    1.770   .     S
C283   C301    1.437   .     S
C283   C302    1.412   .     A
C283   C285    1.387   .     A
C284   C286    1.391   .     A
C284   C300    1.446   .     S
C285   C287    1.383   .     A
C285   H305    1.076   .     S
C286   C288    1.397   .     A
C286   H307    1.072   .     S
C287   C289    1.422   .     A
C287   C294    1.419   .     A
C288   C295    1.413   .     A
C288   C290    1.419   .     A
C289   C291    1.416   .     A
C289   C920    1.399   1_554 S
C290   C293    1.407   .     A
C290   C919    1.399   .     S
C291   C302    1.408   .     A
C291   C297    1.407   .     A
C292   O328    1.300   .     A
C292   O337    1.309   .     A
C292   C299    1.431   .     S
C293   C296    1.397   .     A
C294   S345    1.785   .     S
C294   C926    1.389   1_554 S
C295   S346    1.781   .     S
C295   C927    1.391   .     S
C296   H308    1.084   .     S
C296   C924    1.389   .     S
C297   H309    1.077   .     S
C297   C925    1.391   1_554 S
C298   C509    1.356   .     S
C298   S557    1.772   .     S
C300   O340    1.312   .     A
C300   O338    1.305   .     A
C301   O339    1.302   .     A
C301   O341    1.310   .     A
C302   S343    1.790   .     S
Cl304  N386    1.721   .     S
H306   O335    0.988   .     S
H310   O319    0.991   .     S
H311   O322    0.985   .     S
H312   O325    0.991   .     S
H313   O329    0.991   .     S
H314   O332    0.991   .     S
N315   Zn350   2.058   .     S
N315   Cl373   1.713   .     S
N315   N386    1.269   .     S
N316   Zn349   2.058   .     S
O317   Zn349   1.991   .     S
O318   S343    1.497   .     D
O319   S343    1.681   .     S
O320   S344    1.502   .     D
O321   S344    1.503   .     D
O322   S344    1.666   .     S
O323   S345    1.502   .     D
O324   S345    1.503   .     D
O326   S346    1.495   .     D
O327   S556    1.503   .     S
O328   Zn350   1.991   .     S
O329   S416    1.682   .     S
O330   S347    1.503   .     D
O331   S347    1.506   .     D
O332   S557    1.679   .     S
O333   S348    1.503   .     D
O334   S348    1.499   .     D
O336   Zn350   2.000   .     S
O337   Zn349   2.000   .     S
O338   Zn349   2.009   .     S
O339   Zn350   2.009   .     S
O340   Zn350   2.026   .     S
O341   Zn349   2.026   .     S
O342   S343    1.502   .     D
S345   O535    1.682   .     S
S348   C509    1.772   .     S
S348   O545    1.684   .     S
C351   C368    1.443   .     S
C351   O406    1.316   .     A
C351   O387    1.296   .     A
C352   C354    1.400   .     A
C352   C363    1.389   .     A
C352   S414    1.770   .     S
C353   C371    1.437   .     S
C353   C372    1.412   .     A
C353   C355    1.387   .     A
C354   C356    1.391   .     A
C354   C370    1.446   .     S
C355   C357    1.383   .     A
C355   H375    1.076   .     S
C356   C358    1.397   .     A
C356   H377    1.072   .     S
C357   C359    1.422   .     A
C357   C364    1.419   .     A
C358   C365    1.413   .     A
C358   C360    1.419   .     A
C359   C361    1.416   .     A
C359   C990    1.399   1_554 S
C360   C363    1.407   .     A
C360   C989    1.399   .     S
C361   C372    1.408   .     A
C361   C367    1.407   .     A
C362   O398    1.300   .     A
C362   O407    1.309   .     A
C362   C369    1.431   .     S
C363   C366    1.397   .     A
C364   S415    1.785   .     S
C364   C996    1.389   1_554 S
C365   S416    1.781   .     S
C365   C997    1.391   .     S
C366   H378    1.084   .     S
C366   C994    1.389   .     S
C367   H379    1.077   .     S
C367   C995    1.391   1_554 S
C368   C579    1.356   .     S
C368   S627    1.772   .     S
C370   O410    1.312   .     A
C370   O408    1.305   .     A
C371   O409    1.302   .     A
C371   O411    1.310   .     A
C372   S413    1.790   .     S
Cl374  N246    1.721   1_655 S
H376   O405    0.988   .     S
H380   O389    0.991   .     S
H381   O392    0.985   .     S
H382   O395    0.991   .     S
H383   O399    0.991   .     S
H384   O402    0.991   .     S
N385   Zn420   2.058   .     S
N385   Cl233   1.713   1_655 S
N385   N246    1.269   1_655 S
N386   Zn419   2.058   .     S
O387   Zn419   1.991   .     S
O388   S413    1.497   .     D
O389   S413    1.681   .     S
O390   S414    1.502   .     D
O391   S414    1.503   .     D
O392   S414    1.666   .     S
O393   S415    1.502   .     D
O394   S415    1.503   .     D
O396   S416    1.495   .     D
O397   S626    1.503   .     S
O398   Zn420   1.991   .     S
O399   S276    1.682   1_655 S
O400   S417    1.503   .     D
O401   S417    1.506   .     D
O402   S627    1.679   .     S
O403   S418    1.503   .     D
O404   S418    1.499   .     D
O406   Zn420   2.000   .     S
O407   Zn419   2.000   .     S
O408   Zn419   2.009   .     S
O409   Zn420   2.009   .     S
O410   Zn420   2.026   .     S
O411   Zn419   2.026   .     S
O412   S413    1.502   .     D
S415   O605    1.682   .     S
S418   C579    1.772   .     S
S418   O615    1.684   .     S
C421   C438    1.443   .     S
C421   O476    1.316   .     A
C421   O457    1.296   .     A
C422   C424    1.400   .     A
C422   C433    1.389   .     A
C422   S484    1.770   .     S
C423   C441    1.437   .     S
C423   C442    1.412   .     A
C423   C425    1.387   .     A
C424   C426    1.391   .     A
C424   C440    1.446   .     S
C425   C427    1.383   .     A
C425   H445    1.076   .     S
C426   C428    1.397   .     A
C426   H447    1.072   .     S
C427   C429    1.422   .     A
C427   C434    1.419   .     A
C428   C435    1.413   .     A
C428   C430    1.419   .     A
C429   C431    1.416   .     A
C429   C1060   1.399   1_554 S
C430   C433    1.407   .     A
C430   C1059   1.399   .     S
C431   C442    1.408   .     A
C431   C437    1.407   .     A
C432   O468    1.300   .     A
C432   O477    1.309   .     A
C432   C439    1.431   .     S
C433   C436    1.397   .     A
C434   S485    1.785   .     S
C434   C1066   1.389   1_554 S
C435   S486    1.781   .     S
C435   C1067   1.391   .     S
C436   H448    1.084   .     S
C436   C1064   1.389   .     S
C437   H449    1.077   .     S
C437   C1065   1.391   1_554 S
C438   C19     1.356   1_565 S
C438   S67     1.772   1_565 S
C440   O480    1.312   .     A
C440   O478    1.305   .     A
C441   O479    1.302   .     A
C441   O481    1.310   .     A
C442   S483    1.790   .     S
Cl443  N595    1.713   1_455 S
Cl444  N526    1.721   .     S
H446   O475    0.988   .     S
H450   O459    0.991   .     S
H451   O462    0.985   .     S
H452   O465    0.991   .     S
H453   O469    0.991   .     S
H454   O472    0.991   .     S
N455   Zn490   2.058   .     S
N455   Cl513   1.713   .     S
N455   N526    1.269   .     S
N456   Zn489   2.058   .     S
N456   N595    1.269   1_455 S
N456   Cl584   1.721   1_455 S
O457   Zn489   1.991   .     S
O458   S483    1.497   .     D
O459   S483    1.681   .     S
O460   S484    1.502   .     D
O461   S484    1.503   .     D
O462   S484    1.666   .     S
O463   S485    1.502   .     D
O464   S485    1.503   .     D
O466   S486    1.495   .     D
O467   S66     1.503   1_565 S
O468   Zn490   1.991   .     S
O469   S556    1.682   .     S
O470   S487    1.503   .     D
O471   S487    1.506   .     D
O472   S67     1.679   1_565 S
O473   S488    1.503   .     D
O474   S488    1.499   .     D
O476   Zn490   2.000   .     S
O477   Zn489   2.000   .     S
O478   Zn489   2.009   .     S
O479   Zn490   2.009   .     S
O480   Zn490   2.026   .     S
O481   Zn489   2.026   .     S
O482   S483    1.502   .     D
S485   O45     1.682   1_565 S
S486   O609    1.682   1_455 S
S488   C19     1.772   1_565 S
S488   O55     1.684   1_565 S
C491   C508    1.443   .     S
C491   O546    1.316   .     A
C491   O527    1.296   .     A
C492   C494    1.400   .     A
C492   C503    1.389   .     A
C492   S554    1.770   .     S
C493   C511    1.437   .     S
C493   C512    1.412   .     A
C493   C495    1.387   .     A
C494   C496    1.391   .     A
C494   C510    1.446   .     S
C495   C497    1.383   .     A
C495   H515    1.076   .     S
C496   C498    1.397   .     A
C496   H517    1.072   .     S
C497   C499    1.422   .     A
C497   C504    1.419   .     A
C498   C505    1.413   .     A
C498   C500    1.419   .     A
C499   C501    1.416   .     A
C499   C1130   1.399   1_554 S
C500   C503    1.407   .     A
C500   C1129   1.399   .     S
C501   C512    1.408   .     A
C501   C507    1.407   .     A
C502   O538    1.300   .     A
C502   O547    1.309   .     A
C502   C509    1.431   .     S
C503   C506    1.397   .     A
C504   S555    1.785   .     S
C504   C1136   1.389   1_554 S
C505   S556    1.781   .     S
C505   C1137   1.391   .     S
C506   H518    1.084   .     S
C506   C1134   1.389   .     S
C507   H519    1.077   .     S
C507   C1135   1.391   1_554 S
C508   C89     1.356   1_565 S
C508   S137    1.772   1_565 S
C510   O550    1.312   .     A
C510   O548    1.305   .     A
C511   O549    1.302   .     A
C511   O551    1.310   .     A
C512   S553    1.790   .     S
Cl514  N596    1.721   .     S
H516   O545    0.988   .     S
H520   O529    0.991   .     S
H521   O532    0.985   .     S
H522   O535    0.991   .     S
H523   O539    0.991   .     S
H524   O542    0.991   .     S
N525   Zn560   2.058   .     S
N525   Cl583   1.713   .     S
N525   N596    1.269   .     S
N526   Zn559   2.058   .     S
O527   Zn559   1.991   .     S
O528   S553    1.497   .     D
O529   S553    1.681   .     S
O530   S554    1.502   .     D
O531   S554    1.503   .     D
O532   S554    1.666   .     S
O533   S555    1.502   .     D
O534   S555    1.503   .     D
O536   S556    1.495   .     D
O537   S136    1.503   1_565 S
O538   Zn560   1.991   .     S
O539   S626    1.682   .     S
O540   S557    1.503   .     D
O541   S557    1.506   .     D
O542   S137    1.679   1_565 S
O543   S558    1.503   .     D
O544   S558    1.499   .     D
O546   Zn560   2.000   .     S
O547   Zn559   2.000   .     S
O548   Zn559   2.009   .     S
O549   Zn560   2.009   .     S
O550   Zn560   2.026   .     S
O551   Zn559   2.026   .     S
O552   S553    1.502   .     D
S555   O115    1.682   1_565 S
S558   C89     1.772   1_565 S
S558   O125    1.684   1_565 S
C561   C578    1.443   .     S
C561   O616    1.316   .     A
C561   O597    1.296   .     A
C562   C564    1.400   .     A
C562   C573    1.389   .     A
C562   S624    1.770   .     S
C563   C581    1.437   .     S
C563   C582    1.412   .     A
C563   C565    1.387   .     A
C564   C566    1.391   .     A
C564   C580    1.446   .     S
C565   C567    1.383   .     A
C565   H585    1.076   .     S
C566   C568    1.397   .     A
C566   H587    1.072   .     S
C567   C569    1.422   .     A
C567   C574    1.419   .     A
C568   C575    1.413   .     A
C568   C570    1.419   .     A
C569   C571    1.416   .     A
C569   C1200   1.399   1_554 S
C570   C573    1.407   .     A
C570   C1199   1.399   .     S
C571   C582    1.408   .     A
C571   C577    1.407   .     A
C572   O608    1.300   .     A
C572   O617    1.309   .     A
C572   C579    1.431   .     S
C573   C576    1.397   .     A
C574   S625    1.785   .     S
C574   C1206   1.389   1_554 S
C575   S626    1.781   .     S
C575   C1207   1.391   .     S
C576   H588    1.084   .     S
C576   C1204   1.389   .     S
C577   H589    1.077   .     S
C577   C1205   1.391   1_554 S
C578   C159    1.356   1_565 S
C578   S207    1.772   1_565 S
C580   O620    1.312   .     A
C580   O618    1.305   .     A
C581   O619    1.302   .     A
C581   O621    1.310   .     A
C582   S623    1.790   .     S
Cl584  N456    1.721   1_655 S
H586   O615    0.988   .     S
H590   O599    0.991   .     S
H591   O602    0.985   .     S
H592   O605    0.991   .     S
H593   O609    0.991   .     S
H594   O612    0.991   .     S
N595   Zn630   2.058   .     S
N595   Cl443   1.713   1_655 S
N595   N456    1.269   1_655 S
N596   Zn629   2.058   .     S
O597   Zn629   1.991   .     S
O598   S623    1.497   .     D
O599   S623    1.681   .     S
O600   S624    1.502   .     D
O601   S624    1.503   .     D
O602   S624    1.666   .     S
O603   S625    1.502   .     D
O604   S625    1.503   .     D
O606   S626    1.495   .     D
O607   S206    1.503   1_565 S
O608   Zn630   1.991   .     S
O609   S486    1.682   1_655 S
O610   S627    1.503   .     D
O611   S627    1.506   .     D
O612   S207    1.679   1_565 S
O613   S628    1.503   .     D
O614   S628    1.499   .     D
O616   Zn630   2.000   .     S
O617   Zn629   2.000   .     S
O618   Zn629   2.009   .     S
O619   Zn630   2.009   .     S
O620   Zn630   2.026   .     S
O621   Zn629   2.026   .     S
O622   S623    1.502   .     D
S625   O185    1.682   1_565 S
S628   C159    1.772   1_565 S
S628   O195    1.684   1_565 S
C631   C648    1.443   .     S
C631   O686    1.316   .     A
C631   O667    1.296   .     A
C632   C634    1.400   .     A
C632   C643    1.389   .     A
C632   S694    1.770   .     S
C633   C651    1.437   .     S
C633   C652    1.412   .     A
C633   C635    1.387   .     A
C634   C636    1.391   .     A
C634   C650    1.446   .     S
C635   C637    1.383   .     A
C635   H655    1.076   .     S
C636   C638    1.397   .     A
C636   H657    1.072   .     S
C637   C639    1.422   .     A
C637   C644    1.419   .     A
C638   C645    1.413   .     A
C638   C640    1.419   .     A
C639   C641    1.416   .     A
C640   C643    1.407   .     A
C640   C9      1.399   1_556 S
C641   C652    1.408   .     A
C641   C647    1.407   .     A
C642   O678    1.300   .     A
C642   O687    1.309   .     A
C642   C649    1.431   .     S
C643   C646    1.397   .     A
C644   S695    1.785   .     S
C645   S696    1.781   .     S
C645   C17     1.391   1_556 S
C646   H658    1.084   .     S
C646   C14     1.389   1_556 S
C647   H659    1.077   .     S
C648   C859    1.356   .     S
C648   S907    1.772   .     S
C649   C1068   1.356   1_545 S
C649   S1118   1.772   1_545 S
C650   O690    1.312   .     A
C650   O688    1.305   .     A
C651   O689    1.302   .     A
C651   O691    1.310   .     A
C652   S693    1.790   .     S
Cl653  N805    1.713   1_455 S
Cl654  N736    1.721   .     S
H656   O685    0.988   .     S
H660   O669    0.991   .     S
H661   O672    0.985   .     S
H662   O675    0.991   .     S
H663   O679    0.991   .     S
H664   O682    0.991   .     S
N665   Zn700   2.058   .     S
N665   Cl723   1.713   .     S
N665   N736    1.269   .     S
N666   Zn699   2.058   .     S
N666   N805    1.269   1_455 S
N666   Cl794   1.721   1_455 S
O667   Zn699   1.991   .     S
O668   S693    1.497   .     D
O669   S693    1.681   .     S
O670   S694    1.502   .     D
O671   S694    1.503   .     D
O672   S694    1.666   .     S
O673   S695    1.502   .     D
O674   S695    1.503   .     D
O675   S1115   1.682   1_545 S
O676   S696    1.495   .     D
O677   S906    1.503   .     S
O678   Zn700   1.991   .     S
O679   S766    1.682   .     S
O680   S697    1.503   .     D
O681   S697    1.506   .     D
O682   S907    1.679   .     S
O683   S698    1.503   .     D
O684   S698    1.499   .     D
O685   S1118   1.684   1_545 S
O686   Zn700   2.000   .     S
O687   Zn699   2.000   .     S
O688   Zn699   2.009   .     S
O689   Zn700   2.009   .     S
O690   Zn700   2.026   .     S
O691   Zn699   2.026   .     S
O692   S693    1.502   .     D
S695   O885    1.682   .     S
S696   O819    1.682   1_455 S
S696   O1097   1.503   1_545 S
S697   O1102   1.679   1_545 S
S697   C1068   1.772   1_545 S
S698   C859    1.772   .     S
S698   O895    1.684   .     S
C701   C718    1.443   .     S
C701   O756    1.316   .     A
C701   O737    1.296   .     A
C702   C704    1.400   .     A
C702   C713    1.389   .     A
C702   S764    1.770   .     S
C703   C721    1.437   .     S
C703   C722    1.412   .     A
C703   C705    1.387   .     A
C704   C706    1.391   .     A
C704   C720    1.446   .     S
C705   C707    1.383   .     A
C705   H725    1.076   .     S
C706   C708    1.397   .     A
C706   H727    1.072   .     S
C707   C709    1.422   .     A
C707   C714    1.419   .     A
C708   C715    1.413   .     A
C708   C710    1.419   .     A
C709   C711    1.416   .     A
C710   C713    1.407   .     A
C710   C79     1.399   1_556 S
C711   C722    1.408   .     A
C711   C717    1.407   .     A
C712   O748    1.300   .     A
C712   O757    1.309   .     A
C712   C719    1.431   .     S
C713   C716    1.397   .     A
C714   S765    1.785   .     S
C715   S766    1.781   .     S
C715   C87     1.391   1_556 S
C716   H728    1.084   .     S
C716   C84     1.389   1_556 S
C717   H729    1.077   .     S
C718   C929    1.356   .     S
C718   S977    1.772   .     S
C719   C1138   1.356   1_545 S
C719   S1188   1.772   1_545 S
C720   O760    1.312   .     A
C720   O758    1.305   .     A
C721   O759    1.302   .     A
C721   O761    1.310   .     A
C722   S763    1.790   .     S
Cl724  N806    1.721   .     S
H726   O755    0.988   .     S
H730   O739    0.991   .     S
H731   O742    0.985   .     S
H732   O745    0.991   .     S
H733   O749    0.991   .     S
H734   O752    0.991   .     S
N735   Zn770   2.058   .     S
N735   Cl793   1.713   .     S
N735   N806    1.269   .     S
N736   Zn769   2.058   .     S
O737   Zn769   1.991   .     S
O738   S763    1.497   .     D
O739   S763    1.681   .     S
O740   S764    1.502   .     D
O741   S764    1.503   .     D
O742   S764    1.666   .     S
O743   S765    1.502   .     D
O744   S765    1.503   .     D
O745   S1185   1.682   1_545 S
O746   S766    1.495   .     D
O747   S976    1.503   .     S
O748   Zn770   1.991   .     S
O749   S836    1.682   .     S
O750   S767    1.503   .     D
O751   S767    1.506   .     D
O752   S977    1.679   .     S
O753   S768    1.503   .     D
O754   S768    1.499   .     D
O755   S1188   1.684   1_545 S
O756   Zn770   2.000   .     S
O757   Zn769   2.000   .     S
O758   Zn769   2.009   .     S
O759   Zn770   2.009   .     S
O760   Zn770   2.026   .     S
O761   Zn769   2.026   .     S
O762   S763    1.502   .     D
S765   O955    1.682   .     S
S766   O1167   1.503   1_545 S
S767   O1172   1.679   1_545 S
S767   C1138   1.772   1_545 S
S768   C929    1.772   .     S
S768   O965    1.684   .     S
C771   C788    1.443   .     S
C771   O826    1.316   .     A
C771   O807    1.296   .     A
C772   C774    1.400   .     A
C772   C783    1.389   .     A
C772   S834    1.770   .     S
C773   C791    1.437   .     S
C773   C792    1.412   .     A
C773   C775    1.387   .     A
C774   C776    1.391   .     A
C774   C790    1.446   .     S
C775   C777    1.383   .     A
C775   H795    1.076   .     S
C776   C778    1.397   .     A
C776   H797    1.072   .     S
C777   C779    1.422   .     A
C777   C784    1.419   .     A
C778   C785    1.413   .     A
C778   C780    1.419   .     A
C779   C781    1.416   .     A
C780   C783    1.407   .     A
C780   C149    1.399   1_556 S
C781   C792    1.408   .     A
C781   C787    1.407   .     A
C782   O818    1.300   .     A
C782   O827    1.309   .     A
C782   C789    1.431   .     S
C783   C786    1.397   .     A
C784   S835    1.785   .     S
C785   S836    1.781   .     S
C785   C157    1.391   1_556 S
C786   H798    1.084   .     S
C786   C154    1.389   1_556 S
C787   H799    1.077   .     S
C788   C999    1.356   .     S
C788   S1047   1.772   .     S
C789   C1208   1.356   1_545 S
C789   S1258   1.772   1_545 S
C790   O830    1.312   .     A
C790   O828    1.305   .     A
C791   O829    1.302   .     A
C791   O831    1.310   .     A
C792   S833    1.790   .     S
Cl794  N666    1.721   1_655 S
H796   O825    0.988   .     S
H800   O809    0.991   .     S
H801   O812    0.985   .     S
H802   O815    0.991   .     S
H803   O819    0.991   .     S
H804   O822    0.991   .     S
N805   Zn840   2.058   .     S
N805   Cl653   1.713   1_655 S
N805   N666    1.269   1_655 S
N806   Zn839   2.058   .     S
O807   Zn839   1.991   .     S
O808   S833    1.497   .     D
O809   S833    1.681   .     S
O810   S834    1.502   .     D
O811   S834    1.503   .     D
O812   S834    1.666   .     S
O813   S835    1.502   .     D
O814   S835    1.503   .     D
O815   S1255   1.682   1_545 S
O816   S836    1.495   .     D
O817   S1046   1.503   .     S
O818   Zn840   1.991   .     S
O819   S696    1.682   1_655 S
O820   S837    1.503   .     D
O821   S837    1.506   .     D
O822   S1047   1.679   .     S
O823   S838    1.503   .     D
O824   S838    1.499   .     D
O825   S1258   1.684   1_545 S
O826   Zn840   2.000   .     S
O827   Zn839   2.000   .     S
O828   Zn839   2.009   .     S
O829   Zn840   2.009   .     S
O830   Zn840   2.026   .     S
O831   Zn839   2.026   .     S
O832   S833    1.502   .     D
S835   O1025   1.682   .     S
S836   O1237   1.503   1_545 S
S837   O1242   1.679   1_545 S
S837   C1208   1.772   1_545 S
S838   C999    1.772   .     S
S838   O1035   1.684   .     S
C841   C858    1.443   .     S
C841   O896    1.316   .     A
C841   O877    1.296   .     A
C842   C844    1.400   .     A
C842   C853    1.389   .     A
C842   S904    1.770   .     S
C843   C861    1.437   .     S
C843   C862    1.412   .     A
C843   C845    1.387   .     A
C844   C846    1.391   .     A
C844   C860    1.446   .     S
C845   C847    1.383   .     A
C845   H865    1.076   .     S
C846   C848    1.397   .     A
C846   H867    1.072   .     S
C847   C849    1.422   .     A
C847   C854    1.419   .     A
C848   C855    1.413   .     A
C848   C850    1.419   .     A
C849   C851    1.416   .     A
C850   C853    1.407   .     A
C850   C219    1.399   1_556 S
C851   C862    1.408   .     A
C851   C857    1.407   .     A
C852   O888    1.300   .     A
C852   O897    1.309   .     A
C852   C859    1.431   .     S
C853   C856    1.397   .     A
C854   S905    1.785   .     S
C855   S906    1.781   .     S
C855   C227    1.391   1_556 S
C856   H868    1.084   .     S
C856   C224    1.389   1_556 S
C857   H869    1.077   .     S
C858   C1069   1.356   .     S
C858   S1117   1.772   .     S
C860   O900    1.312   .     A
C860   O898    1.305   .     A
C861   O899    1.302   .     A
C861   O901    1.310   .     A
C862   S903    1.790   .     S
Cl863  N1015   1.713   1_455 S
Cl864  N946    1.721   .     S
H866   O895    0.988   .     S
H870   O879    0.991   .     S
H871   O882    0.985   .     S
H872   O885    0.991   .     S
H873   O889    0.991   .     S
H874   O892    0.991   .     S
N875   Zn910   2.058   .     S
N875   Cl933   1.713   .     S
N875   N946    1.269   .     S
N876   Zn909   2.058   .     S
N876   N1015   1.269   1_455 S
N876   Cl1004  1.721   1_455 S
O877   Zn909   1.991   .     S
O878   S903    1.497   .     D
O879   S903    1.681   .     S
O880   S904    1.502   .     D
O881   S904    1.503   .     D
O882   S904    1.666   .     S
O883   S905    1.502   .     D
O884   S905    1.503   .     D
O886   S906    1.495   .     D
O887   S1116   1.503   .     S
O888   Zn910   1.991   .     S
O889   S976    1.682   .     S
O890   S907    1.503   .     D
O891   S907    1.506   .     D
O892   S1117   1.679   .     S
O893   S908    1.503   .     D
O894   S908    1.499   .     D
O896   Zn910   2.000   .     S
O897   Zn909   2.000   .     S
O898   Zn909   2.009   .     S
O899   Zn910   2.009   .     S
O900   Zn910   2.026   .     S
O901   Zn909   2.026   .     S
O902   S903    1.502   .     D
S905   O1095   1.682   .     S
S906   O1029   1.682   1_455 S
S908   C1069   1.772   .     S
S908   O1105   1.684   .     S
C911   C928    1.443   .     S
C911   O966    1.316   .     A
C911   O947    1.296   .     A
C912   C914    1.400   .     A
C912   C923    1.389   .     A
C912   S974    1.770   .     S
C913   C931    1.437   .     S
C913   C932    1.412   .     A
C913   C915    1.387   .     A
C914   C916    1.391   .     A
C914   C930    1.446   .     S
C915   C917    1.383   .     A
C915   H935    1.076   .     S
C916   C918    1.397   .     A
C916   H937    1.072   .     S
C917   C919    1.422   .     A
C917   C924    1.419   .     A
C918   C925    1.413   .     A
C918   C920    1.419   .     A
C919   C921    1.416   .     A
C920   C923    1.407   .     A
C920   C289    1.399   1_556 S
C921   C932    1.408   .     A
C921   C927    1.407   .     A
C922   O958    1.300   .     A
C922   O967    1.309   .     A
C922   C929    1.431   .     S
C923   C926    1.397   .     A
C924   S975    1.785   .     S
C925   S976    1.781   .     S
C925   C297    1.391   1_556 S
C926   H938    1.084   .     S
C926   C294    1.389   1_556 S
C927   H939    1.077   .     S
C928   C1139   1.356   .     S
C928   S1187   1.772   .     S
C930   O970    1.312   .     A
C930   O968    1.305   .     A
C931   O969    1.302   .     A
C931   O971    1.310   .     A
C932   S973    1.790   .     S
Cl934  N1016   1.721   .     S
H936   O965    0.988   .     S
H940   O949    0.991   .     S
H941   O952    0.985   .     S
H942   O955    0.991   .     S
H943   O959    0.991   .     S
H944   O962    0.991   .     S
N945   Zn980   2.058   .     S
N945   Cl1003  1.713   .     S
N945   N1016   1.269   .     S
N946   Zn979   2.058   .     S
O947   Zn979   1.991   .     S
O948   S973    1.497   .     D
O949   S973    1.681   .     S
O950   S974    1.502   .     D
O951   S974    1.503   .     D
O952   S974    1.666   .     S
O953   S975    1.502   .     D
O954   S975    1.503   .     D
O956   S976    1.495   .     D
O957   S1186   1.503   .     S
O958   Zn980   1.991   .     S
O959   S1046   1.682   .     S
O960   S977    1.503   .     D
O961   S977    1.506   .     D
O962   S1187   1.679   .     S
O963   S978    1.503   .     D
O964   S978    1.499   .     D
O966   Zn980   2.000   .     S
O967   Zn979   2.000   .     S
O968   Zn979   2.009   .     S
O969   Zn980   2.009   .     S
O970   Zn980   2.026   .     S
O971   Zn979   2.026   .     S
O972   S973    1.502   .     D
S975   O1165   1.682   .     S
S978   C1139   1.772   .     S
S978   O1175   1.684   .     S
C981   C998    1.443   .     S
C981   O1036   1.316   .     A
C981   O1017   1.296   .     A
C982   C984    1.400   .     A
C982   C993    1.389   .     A
C982   S1044   1.770   .     S
C983   C1001   1.437   .     S
C983   C1002   1.412   .     A
C983   C985    1.387   .     A
C984   C986    1.391   .     A
C984   C1000   1.446   .     S
C985   C987    1.383   .     A
C985   H1005   1.076   .     S
C986   C988    1.397   .     A
C986   H1007   1.072   .     S
C987   C989    1.422   .     A
C987   C994    1.419   .     A
C988   C995    1.413   .     A
C988   C990    1.419   .     A
C989   C991    1.416   .     A
C990   C993    1.407   .     A
C990   C359    1.399   1_556 S
C991   C1002   1.408   .     A
C991   C997    1.407   .     A
C992   O1028   1.300   .     A
C992   O1037   1.309   .     A
C992   C999    1.431   .     S
C993   C996    1.397   .     A
C994   S1045   1.785   .     S
C995   S1046   1.781   .     S
C995   C367    1.391   1_556 S
C996   H1008   1.084   .     S
C996   C364    1.389   1_556 S
C997   H1009   1.077   .     S
C998   C1209   1.356   .     S
C998   S1257   1.772   .     S
C1000  O1040   1.312   .     A
C1000  O1038   1.305   .     A
C1001  O1039   1.302   .     A
C1001  O1041   1.310   .     A
C1002  S1043   1.790   .     S
Cl1004 N876    1.721   1_655 S
H1006  O1035   0.988   .     S
H1010  O1019   0.991   .     S
H1011  O1022   0.985   .     S
H1012  O1025   0.991   .     S
H1013  O1029   0.991   .     S
H1014  O1032   0.991   .     S
N1015  Zn1050  2.058   .     S
N1015  Cl863   1.713   1_655 S
N1015  N876    1.269   1_655 S
N1016  Zn1049  2.058   .     S
O1017  Zn1049  1.991   .     S
O1018  S1043   1.497   .     D
O1019  S1043   1.681   .     S
O1020  S1044   1.502   .     D
O1021  S1044   1.503   .     D
O1022  S1044   1.666   .     S
O1023  S1045   1.502   .     D
O1024  S1045   1.503   .     D
O1026  S1046   1.495   .     D
O1027  S1256   1.503   .     S
O1028  Zn1050  1.991   .     S
O1029  S906    1.682   1_655 S
O1030  S1047   1.503   .     D
O1031  S1047   1.506   .     D
O1032  S1257   1.679   .     S
O1033  S1048   1.503   .     D
O1034  S1048   1.499   .     D
O1036  Zn1050  2.000   .     S
O1037  Zn1049  2.000   .     S
O1038  Zn1049  2.009   .     S
O1039  Zn1050  2.009   .     S
O1040  Zn1050  2.026   .     S
O1041  Zn1049  2.026   .     S
O1042  S1043   1.502   .     D
S1045  O1235   1.682   .     S
S1048  C1209   1.772   .     S
S1048  O1245   1.684   .     S
C1051  C1068   1.443   .     S
C1051  O1106   1.316   .     A
C1051  O1087   1.296   .     A
C1052  C1054   1.400   .     A
C1052  C1063   1.389   .     A
C1052  S1114   1.770   .     S
C1053  C1071   1.437   .     S
C1053  C1072   1.412   .     A
C1053  C1055   1.387   .     A
C1054  C1056   1.391   .     A
C1054  C1070   1.446   .     S
C1055  C1057   1.383   .     A
C1055  H1075   1.076   .     S
C1056  C1058   1.397   .     A
C1056  H1077   1.072   .     S
C1057  C1059   1.422   .     A
C1057  C1064   1.419   .     A
C1058  C1065   1.413   .     A
C1058  C1060   1.419   .     A
C1059  C1061   1.416   .     A
C1060  C1063   1.407   .     A
C1060  C429    1.399   1_556 S
C1061  C1072   1.408   .     A
C1061  C1067   1.407   .     A
C1062  O1098   1.300   .     A
C1062  O1107   1.309   .     A
C1062  C1069   1.431   .     S
C1063  C1066   1.397   .     A
C1064  S1115   1.785   .     S
C1065  S1116   1.781   .     S
C1065  C437    1.391   1_556 S
C1066  H1078   1.084   .     S
C1066  C434    1.389   1_556 S
C1067  H1079   1.077   .     S
C1068  C649    1.356   1_565 S
C1068  S697    1.772   1_565 S
C1070  O1110   1.312   .     A
C1070  O1108   1.305   .     A
C1071  O1109   1.302   .     A
C1071  O1111   1.310   .     A
C1072  S1113   1.790   .     S
Cl1073 N1225   1.713   1_455 S
Cl1074 N1156   1.721   .     S
H1076  O1105   0.988   .     S
H1080  O1089   0.991   .     S
H1081  O1092   0.985   .     S
H1082  O1095   0.991   .     S
H1083  O1099   0.991   .     S
H1084  O1102   0.991   .     S
N1085  Zn1120  2.058   .     S
N1085  Cl1143  1.713   .     S
N1085  N1156   1.269   .     S
N1086  Zn1119  2.058   .     S
N1086  N1225   1.269   1_455 S
N1086  Cl1214  1.721   1_455 S
O1087  Zn1119  1.991   .     S
O1088  S1113   1.497   .     D
O1089  S1113   1.681   .     S
O1090  S1114   1.502   .     D
O1091  S1114   1.503   .     D
O1092  S1114   1.666   .     S
O1093  S1115   1.502   .     D
O1094  S1115   1.503   .     D
O1096  S1116   1.495   .     D
O1097  S696    1.503   1_565 S
O1098  Zn1120  1.991   .     S
O1099  S1186   1.682   .     S
O1100  S1117   1.503   .     D
O1101  S1117   1.506   .     D
O1102  S697    1.679   1_565 S
O1103  S1118   1.503   .     D
O1104  S1118   1.499   .     D
O1106  Zn1120  2.000   .     S
O1107  Zn1119  2.000   .     S
O1108  Zn1119  2.009   .     S
O1109  Zn1120  2.009   .     S
O1110  Zn1120  2.026   .     S
O1111  Zn1119  2.026   .     S
O1112  S1113   1.502   .     D
S1115  O675    1.682   1_565 S
S1116  O1239   1.682   1_455 S
S1118  C649    1.772   1_565 S
S1118  O685    1.684   1_565 S
C1121  C1138   1.443   .     S
C1121  O1176   1.316   .     A
C1121  O1157   1.296   .     A
C1122  C1124   1.400   .     A
C1122  C1133   1.389   .     A
C1122  S1184   1.770   .     S
C1123  C1141   1.437   .     S
C1123  C1142   1.412   .     A
C1123  C1125   1.387   .     A
C1124  C1126   1.391   .     A
C1124  C1140   1.446   .     S
C1125  C1127   1.383   .     A
C1125  H1145   1.076   .     S
C1126  C1128   1.397   .     A
C1126  H1147   1.072   .     S
C1127  C1129   1.422   .     A
C1127  C1134   1.419   .     A
C1128  C1135   1.413   .     A
C1128  C1130   1.419   .     A
C1129  C1131   1.416   .     A
C1130  C1133   1.407   .     A
C1130  C499    1.399   1_556 S
C1131  C1142   1.408   .     A
C1131  C1137   1.407   .     A
C1132  O1168   1.300   .     A
C1132  O1177   1.309   .     A
C1132  C1139   1.431   .     S
C1133  C1136   1.397   .     A
C1134  S1185   1.785   .     S
C1135  S1186   1.781   .     S
C1135  C507    1.391   1_556 S
C1136  H1148   1.084   .     S
C1136  C504    1.389   1_556 S
C1137  H1149   1.077   .     S
C1138  C719    1.356   1_565 S
C1138  S767    1.772   1_565 S
C1140  O1180   1.312   .     A
C1140  O1178   1.305   .     A
C1141  O1179   1.302   .     A
C1141  O1181   1.310   .     A
C1142  S1183   1.790   .     S
Cl1144 N1226   1.721   .     S
H1146  O1175   0.988   .     S
H1150  O1159   0.991   .     S
H1151  O1162   0.985   .     S
H1152  O1165   0.991   .     S
H1153  O1169   0.991   .     S
H1154  O1172   0.991   .     S
N1155  Zn1190  2.058   .     S
N1155  Cl1213  1.713   .     S
N1155  N1226   1.269   .     S
N1156  Zn1189  2.058   .     S
O1157  Zn1189  1.991   .     S
O1158  S1183   1.497   .     D
O1159  S1183   1.681   .     S
O1160  S1184   1.502   .     D
O1161  S1184   1.503   .     D
O1162  S1184   1.666   .     S
O1163  S1185   1.502   .     D
O1164  S1185   1.503   .     D
O1166  S1186   1.495   .     D
O1167  S766    1.503   1_565 S
O1168  Zn1190  1.991   .     S
O1169  S1256   1.682   .     S
O1170  S1187   1.503   .     D
O1171  S1187   1.506   .     D
O1172  S767    1.679   1_565 S
O1173  S1188   1.503   .     D
O1174  S1188   1.499   .     D
O1176  Zn1190  2.000   .     S
O1177  Zn1189  2.000   .     S
O1178  Zn1189  2.009   .     S
O1179  Zn1190  2.009   .     S
O1180  Zn1190  2.026   .     S
O1181  Zn1189  2.026   .     S
O1182  S1183   1.502   .     D
S1185  O745    1.682   1_565 S
S1188  C719    1.772   1_565 S
S1188  O755    1.684   1_565 S
C1191  C1208   1.443   .     S
C1191  O1246   1.316   .     A
C1191  O1227   1.296   .     A
C1192  C1194   1.400   .     A
C1192  C1203   1.389   .     A
C1192  S1254   1.770   .     S
C1193  C1211   1.437   .     S
C1193  C1212   1.412   .     A
C1193  C1195   1.387   .     A
C1194  C1196   1.391   .     A
C1194  C1210   1.446   .     S
C1195  C1197   1.383   .     A
C1195  H1215   1.076   .     S
C1196  C1198   1.397   .     A
C1196  H1217   1.072   .     S
C1197  C1199   1.422   .     A
C1197  C1204   1.419   .     A
C1198  C1205   1.413   .     A
C1198  C1200   1.419   .     A
C1199  C1201   1.416   .     A
C1200  C1203   1.407   .     A
C1200  C569    1.399   1_556 S
C1201  C1212   1.408   .     A
C1201  C1207   1.407   .     A
C1202  O1238   1.300   .     A
C1202  O1247   1.309   .     A
C1202  C1209   1.431   .     S
C1203  C1206   1.397   .     A
C1204  S1255   1.785   .     S
C1205  S1256   1.781   .     S
C1205  C577    1.391   1_556 S
C1206  H1218   1.084   .     S
C1206  C574    1.389   1_556 S
C1207  H1219   1.077   .     S
C1208  C789    1.356   1_565 S
C1208  S837    1.772   1_565 S
C1210  O1250   1.312   .     A
C1210  O1248   1.305   .     A
C1211  O1249   1.302   .     A
C1211  O1251   1.310   .     A
C1212  S1253   1.790   .     S
Cl1214 N1086   1.721   1_655 S
H1216  O1245   0.988   .     S
H1220  O1229   0.991   .     S
H1221  O1232   0.985   .     S
H1222  O1235   0.991   .     S
H1223  O1239   0.991   .     S
H1224  O1242   0.991   .     S
N1225  Zn1260  2.058   .     S
N1225  Cl1073  1.713   1_655 S
N1225  N1086   1.269   1_655 S
N1226  Zn1259  2.058   .     S
O1227  Zn1259  1.991   .     S
O1228  S1253   1.497   .     D
O1229  S1253   1.681   .     S
O1230  S1254   1.502   .     D
O1231  S1254   1.503   .     D
O1232  S1254   1.666   .     S
O1233  S1255   1.502   .     D
O1234  S1255   1.503   .     D
O1236  S1256   1.495   .     D
O1237  S836    1.503   1_565 S
O1238  Zn1260  1.991   .     S
O1239  S1116   1.682   1_655 S
O1240  S1257   1.503   .     D
O1241  S1257   1.506   .     D
O1242  S837    1.679   1_565 S
O1243  S1258   1.503   .     D
O1244  S1258   1.499   .     D
O1246  Zn1260  2.000   .     S
O1247  Zn1259  2.000   .     S
O1248  Zn1259  2.009   .     S
O1249  Zn1260  2.009   .     S
O1250  Zn1260  2.026   .     S
O1251  Zn1259  2.026   .     S
O1252  S1253   1.502   .     D
S1255  O815    1.682   1_565 S
S1258  C789    1.772   1_565 S
S1258  O825    1.684   1_565 S
