data_str_m3_o1_o17_pcu_sym.148
_audit_creation_date              2020-01-03
_audit_creation_method            'Materials Studio'
_symmetry_space_group_name_H-M    'P1'
_symmetry_Int_Tables_number       1
_symmetry_cell_setting            triclinic
loop_
_symmetry_equiv_pos_as_xyz
  x,y,z
_cell_length_a                    32.0900
_cell_length_b                    29.5333
_cell_length_c                    29.8805
_cell_angle_alpha                 89.6715
_cell_angle_beta                  89.8125
_cell_angle_gamma                 90.0769
loop_
_atom_site_label
_atom_site_type_symbol
_atom_site_fract_x
_atom_site_fract_y
_atom_site_fract_z
_atom_site_U_iso_or_equiv
_atom_site_adp_type
_atom_site_occupancy
C1     C     0.08664   0.16664   0.25017   0.00000  Uiso   1.00
C2     C     0.24669   0.16667   0.25065   0.00000  Uiso   1.00
C3     C     0.09548   0.19198   0.02665   0.00000  Uiso   1.00
C4     C     0.23759   0.14059   0.47304   0.00000  Uiso   1.00
C5     C     0.02129   0.12672   0.24041   0.00000  Uiso   1.00
C6     C     0.31204   0.20635   0.26203   0.00000  Uiso   1.00
C7     C     0.31198   0.12670   0.24069   0.00000  Uiso   1.00
C8     C     0.02139   0.20634   0.26186   0.00000  Uiso   1.00
C9     C     0.29084   0.16658   0.25121   0.00000  Uiso   1.00
C10    C     0.04250   0.16658   0.25081   0.00000  Uiso   1.00
C11    C     0.19379   0.02387   0.27631   0.00000  Uiso   1.00
C12    C     0.13954   0.30947   0.22369   0.00000  Uiso   1.00
C13    C     0.13954   0.02409   0.22369   0.00000  Uiso   1.00
C14    C     0.19379   0.30924   0.27632   0.00000  Uiso   1.00
C15    C     0.16776   0.16681   0.16353   0.00000  Uiso   1.00
C16    C     0.16552   0.16652   0.33642   0.00000  Uiso   1.00
C17    C     0.19798   0.14865   0.40605   0.00000  Uiso   1.00
C18    C     0.13510   0.18400   0.09379   0.00000  Uiso   1.00
C19    C     0.16352   0.16586   0.38409   0.00000  Uiso   1.00
C20    C     0.16989   0.16751   0.11578   0.00000  Uiso   1.00
C21    C     0.12905   0.18368   0.40718   0.00000  Uiso   1.00
C22    C     0.20479   0.15065   0.09252   0.00000  Uiso   1.00
C23    C     0.12798   0.17943   0.45436   0.00000  Uiso   1.00
C24    C     0.20548   0.15434   0.04534   0.00000  Uiso   1.00
C25    C     0.16533   0.16602   0.47654   0.00000  Uiso   1.00
C26    C     0.16799   0.16738   0.02323   0.00000  Uiso   1.00
C27    C     0.20015   0.15101   0.45197   0.00000  Uiso   1.00
C28    C     0.13301   0.18191   0.04781   0.00000  Uiso   1.00
C29    C     0.09171   0.18836   0.48038   0.00000  Uiso   1.00
C30    C     0.24159   0.14480   0.01913   0.00000  Uiso   1.00
H31    H     0.22442   0.13629   0.38689   0.00000  Uiso   1.00
H32    H     0.10844   0.19579   0.11295   0.00000  Uiso   1.00
H33    H     0.06817   0.19984   0.04668   0.00000  Uiso   1.00
H34    H     0.26472   0.13213   0.45297   0.00000  Uiso   1.00
H35    H     0.03753   0.09585   0.23163   0.00000  Uiso   1.00
H36    H     0.29574   0.23721   0.27072   0.00000  Uiso   1.00
H37    H     0.29570   0.09579   0.23209   0.00000  Uiso   1.00
H38    H     0.03774   0.23719   0.27049   0.00000  Uiso   1.00
H39    H     0.21547   0.04195   0.29736   0.00000  Uiso   1.00
H40    H     0.11786   0.29139   0.20264   0.00000  Uiso   1.00
H41    H     0.11785   0.04235   0.20265   0.00000  Uiso   1.00
H42    H     0.21548   0.29098   0.29736   0.00000  Uiso   1.00
N43    N     0.16667   0.28573   0.25000   0.00000  Uiso   1.00
N44    N     0.16667   0.04760   0.25000   0.00000  Uiso   1.00
O45    O     0.10559   0.20487   0.25000   0.00000  Uiso   1.00
O46    O     0.22774   0.12846   0.25001   0.00000  Uiso   1.00
O47    O     0.22774   0.20487   0.25001   0.00000  Uiso   1.00
O48    O     0.10559   0.12846   0.25000   0.00000  Uiso   1.00
O49    O     0.16666   0.20489   0.18393   0.00000  Uiso   1.00
O50    O     0.16667   0.12844   0.31608   0.00000  Uiso   1.00
O51    O     0.16667   0.20489   0.31608   0.00000  Uiso   1.00
O52    O     0.16666   0.12844   0.18393   0.00000  Uiso   1.00
Zn53   Zn    0.16667   0.21771   0.25000   0.00000  Uiso   1.00
Zn54   Zn    0.16667   0.11563   0.25000   0.00000  Uiso   1.00
C55    C     0.09745   0.21003   0.38164   0.00000  Uiso   1.00
H56    H     0.08697   0.19836   0.34919   0.00000  Uiso   1.00
O57    O     0.08447   0.24612   0.39570   0.00000  Uiso   1.00
C58    C     0.23761   0.12504   0.11691   0.00000  Uiso   1.00
H59    H     0.25017   0.09420   0.10267   0.00000  Uiso   1.00
O60    O     0.25182   0.13885   0.15210   0.00000  Uiso   1.00
C61    C     0.04876   0.18768   0.46199   0.00000  Uiso   1.00
O62    O     0.02244   0.21380   0.47638   0.00000  Uiso   1.00
O63    O     0.03792   0.15579   0.42961   0.00000  Uiso   1.00
H64    H     0.00770   0.15834   0.42014   0.00000  Uiso   1.00
C65    C     0.28480   0.14491   0.03677   0.00000  Uiso   1.00
O66    O     0.29560   0.17374   0.06360   0.00000  Uiso   1.00
O67    O     0.31377   0.11354   0.02079   0.00000  Uiso   1.00
H68    H     0.00904   0.11766   0.03453   0.00000  Uiso   1.00
C69    C     0.41997   0.16664   0.25017   0.00000  Uiso   1.00
C70    C     0.58002   0.16667   0.25065   0.00000  Uiso   1.00
C71    C     0.42881   0.19198   0.02665   0.00000  Uiso   1.00
C72    C     0.57093   0.14059   0.47304   0.00000  Uiso   1.00
C73    C     0.35463   0.12672   0.24041   0.00000  Uiso   1.00
C74    C     0.64537   0.20635   0.26203   0.00000  Uiso   1.00
C75    C     0.64532   0.12670   0.24069   0.00000  Uiso   1.00
C76    C     0.35472   0.20634   0.26186   0.00000  Uiso   1.00
C77    C     0.62418   0.16658   0.25121   0.00000  Uiso   1.00
C78    C     0.37584   0.16658   0.25081   0.00000  Uiso   1.00
C79    C     0.52712   0.02387   0.27631   0.00000  Uiso   1.00
C80    C     0.47287   0.30947   0.22369   0.00000  Uiso   1.00
C81    C     0.47287   0.02409   0.22369   0.00000  Uiso   1.00
C82    C     0.52712   0.30924   0.27632   0.00000  Uiso   1.00
C83    C     0.50109   0.16681   0.16353   0.00000  Uiso   1.00
C84    C     0.49885   0.16652   0.33642   0.00000  Uiso   1.00
C85    C     0.53131   0.14865   0.40605   0.00000  Uiso   1.00
C86    C     0.46843   0.18400   0.09379   0.00000  Uiso   1.00
C87    C     0.49685   0.16586   0.38409   0.00000  Uiso   1.00
C88    C     0.50322   0.16751   0.11578   0.00000  Uiso   1.00
C89    C     0.46239   0.18368   0.40718   0.00000  Uiso   1.00
C90    C     0.53812   0.15065   0.09252   0.00000  Uiso   1.00
C91    C     0.46131   0.17943   0.45436   0.00000  Uiso   1.00
C92    C     0.53882   0.15434   0.04534   0.00000  Uiso   1.00
C93    C     0.49866   0.16602   0.47654   0.00000  Uiso   1.00
C94    C     0.50132   0.16738   0.02323   0.00000  Uiso   1.00
C95    C     0.53348   0.15101   0.45197   0.00000  Uiso   1.00
C96    C     0.46634   0.18191   0.04781   0.00000  Uiso   1.00
C97    C     0.42505   0.18836   0.48038   0.00000  Uiso   1.00
C98    C     0.57493   0.14480   0.01913   0.00000  Uiso   1.00
H99    H     0.55775   0.13629   0.38689   0.00000  Uiso   1.00
H100   H     0.44177   0.19579   0.11295   0.00000  Uiso   1.00
H101   H     0.40151   0.19984   0.04668   0.00000  Uiso   1.00
H102   H     0.59806   0.13213   0.45297   0.00000  Uiso   1.00
H103   H     0.37086   0.09585   0.23163   0.00000  Uiso   1.00
H104   H     0.62908   0.23721   0.27072   0.00000  Uiso   1.00
H105   H     0.62903   0.09579   0.23209   0.00000  Uiso   1.00
H106   H     0.37107   0.23719   0.27049   0.00000  Uiso   1.00
H107   H     0.54881   0.04195   0.29736   0.00000  Uiso   1.00
H108   H     0.45119   0.29139   0.20264   0.00000  Uiso   1.00
H109   H     0.45119   0.04235   0.20265   0.00000  Uiso   1.00
H110   H     0.54881   0.29098   0.29736   0.00000  Uiso   1.00
N111   N     0.50000   0.28573   0.25000   0.00000  Uiso   1.00
N112   N     0.50000   0.04760   0.25000   0.00000  Uiso   1.00
O113   O     0.43892   0.20487   0.25000   0.00000  Uiso   1.00
O114   O     0.56108   0.12846   0.25001   0.00000  Uiso   1.00
O115   O     0.56108   0.20487   0.25001   0.00000  Uiso   1.00
O116   O     0.43892   0.12846   0.25000   0.00000  Uiso   1.00
O117   O     0.49999   0.20489   0.18393   0.00000  Uiso   1.00
O118   O     0.50001   0.12844   0.31608   0.00000  Uiso   1.00
O119   O     0.50001   0.20489   0.31608   0.00000  Uiso   1.00
O120   O     0.49999   0.12844   0.18393   0.00000  Uiso   1.00
Zn121  Zn    0.50000   0.21771   0.25000   0.00000  Uiso   1.00
Zn122  Zn    0.50000   0.11563   0.25000   0.00000  Uiso   1.00
C123   C     0.43078   0.21003   0.38164   0.00000  Uiso   1.00
H124   H     0.42030   0.19836   0.34919   0.00000  Uiso   1.00
O125   O     0.41780   0.24612   0.39570   0.00000  Uiso   1.00
C126   C     0.57094   0.12504   0.11691   0.00000  Uiso   1.00
H127   H     0.58350   0.09420   0.10267   0.00000  Uiso   1.00
O128   O     0.58515   0.13885   0.15210   0.00000  Uiso   1.00
C129   C     0.38210   0.18768   0.46199   0.00000  Uiso   1.00
O130   O     0.35577   0.21380   0.47638   0.00000  Uiso   1.00
O131   O     0.37126   0.15579   0.42961   0.00000  Uiso   1.00
H132   H     0.34103   0.15834   0.42014   0.00000  Uiso   1.00
C133   C     0.61813   0.14491   0.03677   0.00000  Uiso   1.00
O134   O     0.62893   0.17374   0.06360   0.00000  Uiso   1.00
O135   O     0.64711   0.11354   0.02079   0.00000  Uiso   1.00
H136   H     0.34237   0.11766   0.03453   0.00000  Uiso   1.00
C137   C     0.75331   0.16664   0.25017   0.00000  Uiso   1.00
C138   C     0.91336   0.16667   0.25065   0.00000  Uiso   1.00
C139   C     0.76214   0.19198   0.02665   0.00000  Uiso   1.00
C140   C     0.90426   0.14059   0.47304   0.00000  Uiso   1.00
C141   C     0.68796   0.12672   0.24041   0.00000  Uiso   1.00
C142   C     0.97870   0.20635   0.26203   0.00000  Uiso   1.00
C143   C     0.97865   0.12670   0.24069   0.00000  Uiso   1.00
C144   C     0.68806   0.20634   0.26186   0.00000  Uiso   1.00
C145   C     0.95751   0.16658   0.25121   0.00000  Uiso   1.00
C146   C     0.70917   0.16658   0.25081   0.00000  Uiso   1.00
C147   C     0.86046   0.02387   0.27631   0.00000  Uiso   1.00
C148   C     0.80621   0.30947   0.22369   0.00000  Uiso   1.00
C149   C     0.80621   0.02409   0.22369   0.00000  Uiso   1.00
C150   C     0.86046   0.30924   0.27632   0.00000  Uiso   1.00
C151   C     0.83443   0.16681   0.16353   0.00000  Uiso   1.00
C152   C     0.83218   0.16652   0.33642   0.00000  Uiso   1.00
C153   C     0.86464   0.14865   0.40605   0.00000  Uiso   1.00
C154   C     0.80177   0.18400   0.09379   0.00000  Uiso   1.00
C155   C     0.83018   0.16586   0.38409   0.00000  Uiso   1.00
C156   C     0.83655   0.16751   0.11578   0.00000  Uiso   1.00
C157   C     0.79572   0.18368   0.40718   0.00000  Uiso   1.00
C158   C     0.87146   0.15065   0.09252   0.00000  Uiso   1.00
C159   C     0.79465   0.17943   0.45436   0.00000  Uiso   1.00
C160   C     0.87215   0.15434   0.04534   0.00000  Uiso   1.00
C161   C     0.83200   0.16602   0.47654   0.00000  Uiso   1.00
C162   C     0.83465   0.16738   0.02323   0.00000  Uiso   1.00
C163   C     0.86681   0.15101   0.45197   0.00000  Uiso   1.00
C164   C     0.79968   0.18191   0.04781   0.00000  Uiso   1.00
C165   C     0.75838   0.18836   0.48038   0.00000  Uiso   1.00
C166   C     0.90826   0.14480   0.01913   0.00000  Uiso   1.00
H167   H     0.89109   0.13629   0.38689   0.00000  Uiso   1.00
H168   H     0.77510   0.19579   0.11295   0.00000  Uiso   1.00
H169   H     0.73484   0.19984   0.04668   0.00000  Uiso   1.00
H170   H     0.93139   0.13213   0.45297   0.00000  Uiso   1.00
H171   H     0.70420   0.09585   0.23163   0.00000  Uiso   1.00
H172   H     0.96241   0.23721   0.27072   0.00000  Uiso   1.00
H173   H     0.96236   0.09579   0.23209   0.00000  Uiso   1.00
H174   H     0.70441   0.23719   0.27049   0.00000  Uiso   1.00
H175   H     0.88214   0.04195   0.29736   0.00000  Uiso   1.00
H176   H     0.78453   0.29139   0.20264   0.00000  Uiso   1.00
H177   H     0.78452   0.04235   0.20265   0.00000  Uiso   1.00
H178   H     0.88214   0.29098   0.29736   0.00000  Uiso   1.00
N179   N     0.83333   0.28573   0.25000   0.00000  Uiso   1.00
N180   N     0.83333   0.04760   0.25000   0.00000  Uiso   1.00
O181   O     0.77226   0.20487   0.25000   0.00000  Uiso   1.00
O182   O     0.89441   0.12846   0.25001   0.00000  Uiso   1.00
O183   O     0.89441   0.20487   0.25001   0.00000  Uiso   1.00
O184   O     0.77226   0.12846   0.25000   0.00000  Uiso   1.00
O185   O     0.83333   0.20489   0.18393   0.00000  Uiso   1.00
O186   O     0.83334   0.12844   0.31608   0.00000  Uiso   1.00
O187   O     0.83334   0.20489   0.31608   0.00000  Uiso   1.00
O188   O     0.83333   0.12844   0.18393   0.00000  Uiso   1.00
Zn189  Zn    0.83333   0.21771   0.25000   0.00000  Uiso   1.00
Zn190  Zn    0.83333   0.11563   0.25000   0.00000  Uiso   1.00
C191   C     0.76412   0.21003   0.38164   0.00000  Uiso   1.00
H192   H     0.75364   0.19836   0.34919   0.00000  Uiso   1.00
O193   O     0.75114   0.24612   0.39570   0.00000  Uiso   1.00
C194   C     0.90427   0.12504   0.11691   0.00000  Uiso   1.00
H195   H     0.91683   0.09420   0.10267   0.00000  Uiso   1.00
O196   O     0.91849   0.13885   0.15210   0.00000  Uiso   1.00
C197   C     0.71543   0.18768   0.46199   0.00000  Uiso   1.00
O198   O     0.68911   0.21380   0.47638   0.00000  Uiso   1.00
O199   O     0.70459   0.15579   0.42961   0.00000  Uiso   1.00
H200   H     0.67437   0.15834   0.42014   0.00000  Uiso   1.00
C201   C     0.95146   0.14491   0.03677   0.00000  Uiso   1.00
O202   O     0.96226   0.17374   0.06360   0.00000  Uiso   1.00
O203   O     0.98044   0.11354   0.02079   0.00000  Uiso   1.00
H204   H     0.67571   0.11766   0.03453   0.00000  Uiso   1.00
C205   C     0.08664   0.49998   0.25017   0.00000  Uiso   1.00
C206   C     0.24669   0.50001   0.25065   0.00000  Uiso   1.00
C207   C     0.09548   0.52531   0.02665   0.00000  Uiso   1.00
C208   C     0.23759   0.47393   0.47304   0.00000  Uiso   1.00
C209   C     0.02129   0.46005   0.24041   0.00000  Uiso   1.00
C210   C     0.31204   0.53968   0.26203   0.00000  Uiso   1.00
C211   C     0.31198   0.46003   0.24069   0.00000  Uiso   1.00
C212   C     0.02139   0.53967   0.26186   0.00000  Uiso   1.00
C213   C     0.29084   0.49992   0.25121   0.00000  Uiso   1.00
C214   C     0.04250   0.49991   0.25081   0.00000  Uiso   1.00
C215   C     0.19379   0.35720   0.27631   0.00000  Uiso   1.00
C216   C     0.13954   0.64280   0.22369   0.00000  Uiso   1.00
C217   C     0.13954   0.35743   0.22369   0.00000  Uiso   1.00
C218   C     0.19379   0.64257   0.27632   0.00000  Uiso   1.00
C219   C     0.16776   0.50015   0.16353   0.00000  Uiso   1.00
C220   C     0.16552   0.49985   0.33642   0.00000  Uiso   1.00
C221   C     0.19798   0.48199   0.40605   0.00000  Uiso   1.00
C222   C     0.13510   0.51734   0.09379   0.00000  Uiso   1.00
C223   C     0.16352   0.49919   0.38409   0.00000  Uiso   1.00
C224   C     0.16989   0.50084   0.11578   0.00000  Uiso   1.00
C225   C     0.12905   0.51702   0.40718   0.00000  Uiso   1.00
C226   C     0.20479   0.48398   0.09252   0.00000  Uiso   1.00
C227   C     0.12798   0.51277   0.45436   0.00000  Uiso   1.00
C228   C     0.20548   0.48767   0.04534   0.00000  Uiso   1.00
C229   C     0.16533   0.49935   0.47654   0.00000  Uiso   1.00
C230   C     0.16799   0.50071   0.02323   0.00000  Uiso   1.00
C231   C     0.20015   0.48434   0.45197   0.00000  Uiso   1.00
C232   C     0.13301   0.51524   0.04781   0.00000  Uiso   1.00
C233   C     0.09171   0.52169   0.48038   0.00000  Uiso   1.00
C234   C     0.24159   0.47814   0.01913   0.00000  Uiso   1.00
H235   H     0.22442   0.46963   0.38689   0.00000  Uiso   1.00
H236   H     0.10844   0.52913   0.11295   0.00000  Uiso   1.00
H237   H     0.06817   0.53317   0.04668   0.00000  Uiso   1.00
H238   H     0.26472   0.46546   0.45297   0.00000  Uiso   1.00
H239   H     0.03753   0.42918   0.23163   0.00000  Uiso   1.00
H240   H     0.29574   0.57054   0.27072   0.00000  Uiso   1.00
H241   H     0.29570   0.42913   0.23209   0.00000  Uiso   1.00
H242   H     0.03774   0.57053   0.27049   0.00000  Uiso   1.00
H243   H     0.21547   0.37528   0.29736   0.00000  Uiso   1.00
H244   H     0.11786   0.62472   0.20264   0.00000  Uiso   1.00
H245   H     0.11785   0.37568   0.20265   0.00000  Uiso   1.00
H246   H     0.21548   0.62432   0.29736   0.00000  Uiso   1.00
N247   N     0.16667   0.61907   0.25000   0.00000  Uiso   1.00
N248   N     0.16667   0.38093   0.25000   0.00000  Uiso   1.00
O249   O     0.10559   0.53821   0.25000   0.00000  Uiso   1.00
O250   O     0.22774   0.46179   0.25001   0.00000  Uiso   1.00
O251   O     0.22774   0.53821   0.25001   0.00000  Uiso   1.00
O252   O     0.10559   0.46179   0.25000   0.00000  Uiso   1.00
O253   O     0.16666   0.53823   0.18393   0.00000  Uiso   1.00
O254   O     0.16667   0.46177   0.31608   0.00000  Uiso   1.00
O255   O     0.16667   0.53823   0.31608   0.00000  Uiso   1.00
O256   O     0.16666   0.46177   0.18393   0.00000  Uiso   1.00
Zn257  Zn    0.16667   0.55104   0.25000   0.00000  Uiso   1.00
Zn258  Zn    0.16667   0.44896   0.25000   0.00000  Uiso   1.00
C259   C     0.09745   0.54337   0.38164   0.00000  Uiso   1.00
H260   H     0.08697   0.53169   0.34919   0.00000  Uiso   1.00
O261   O     0.08447   0.57945   0.39570   0.00000  Uiso   1.00
C262   C     0.23761   0.45838   0.11691   0.00000  Uiso   1.00
H263   H     0.25017   0.42753   0.10267   0.00000  Uiso   1.00
O264   O     0.25182   0.47218   0.15210   0.00000  Uiso   1.00
C265   C     0.04876   0.52101   0.46199   0.00000  Uiso   1.00
O266   O     0.02244   0.54713   0.47638   0.00000  Uiso   1.00
O267   O     0.03792   0.48912   0.42961   0.00000  Uiso   1.00
H268   H     0.00770   0.49167   0.42014   0.00000  Uiso   1.00
C269   C     0.28480   0.47825   0.03677   0.00000  Uiso   1.00
O270   O     0.29560   0.50708   0.06360   0.00000  Uiso   1.00
O271   O     0.31377   0.44688   0.02079   0.00000  Uiso   1.00
H272   H     0.00904   0.45099   0.03453   0.00000  Uiso   1.00
C273   C     0.41997   0.49998   0.25017   0.00000  Uiso   1.00
C274   C     0.58002   0.50001   0.25065   0.00000  Uiso   1.00
C275   C     0.42881   0.52531   0.02665   0.00000  Uiso   1.00
C276   C     0.57093   0.47393   0.47304   0.00000  Uiso   1.00
C277   C     0.35463   0.46005   0.24041   0.00000  Uiso   1.00
C278   C     0.64537   0.53968   0.26203   0.00000  Uiso   1.00
C279   C     0.64532   0.46003   0.24069   0.00000  Uiso   1.00
C280   C     0.35472   0.53967   0.26186   0.00000  Uiso   1.00
C281   C     0.62418   0.49992   0.25121   0.00000  Uiso   1.00
C282   C     0.37584   0.49991   0.25081   0.00000  Uiso   1.00
C283   C     0.52712   0.35720   0.27631   0.00000  Uiso   1.00
C284   C     0.47287   0.64280   0.22369   0.00000  Uiso   1.00
C285   C     0.47287   0.35743   0.22369   0.00000  Uiso   1.00
C286   C     0.52712   0.64257   0.27632   0.00000  Uiso   1.00
C287   C     0.50109   0.50015   0.16353   0.00000  Uiso   1.00
C288   C     0.49885   0.49985   0.33642   0.00000  Uiso   1.00
C289   C     0.53131   0.48199   0.40605   0.00000  Uiso   1.00
C290   C     0.46843   0.51734   0.09379   0.00000  Uiso   1.00
C291   C     0.49685   0.49919   0.38409   0.00000  Uiso   1.00
C292   C     0.50322   0.50084   0.11578   0.00000  Uiso   1.00
C293   C     0.46239   0.51702   0.40718   0.00000  Uiso   1.00
C294   C     0.53812   0.48398   0.09252   0.00000  Uiso   1.00
C295   C     0.46131   0.51277   0.45436   0.00000  Uiso   1.00
C296   C     0.53882   0.48767   0.04534   0.00000  Uiso   1.00
C297   C     0.49866   0.49935   0.47654   0.00000  Uiso   1.00
C298   C     0.50132   0.50071   0.02323   0.00000  Uiso   1.00
C299   C     0.53348   0.48434   0.45197   0.00000  Uiso   1.00
C300   C     0.46634   0.51524   0.04781   0.00000  Uiso   1.00
C301   C     0.42505   0.52169   0.48038   0.00000  Uiso   1.00
C302   C     0.57493   0.47814   0.01913   0.00000  Uiso   1.00
H303   H     0.55775   0.46963   0.38689   0.00000  Uiso   1.00
H304   H     0.44177   0.52913   0.11295   0.00000  Uiso   1.00
H305   H     0.40151   0.53317   0.04668   0.00000  Uiso   1.00
H306   H     0.59806   0.46546   0.45297   0.00000  Uiso   1.00
H307   H     0.37086   0.42918   0.23163   0.00000  Uiso   1.00
H308   H     0.62908   0.57054   0.27072   0.00000  Uiso   1.00
H309   H     0.62903   0.42913   0.23209   0.00000  Uiso   1.00
H310   H     0.37107   0.57053   0.27049   0.00000  Uiso   1.00
H311   H     0.54881   0.37528   0.29736   0.00000  Uiso   1.00
H312   H     0.45119   0.62472   0.20264   0.00000  Uiso   1.00
H313   H     0.45119   0.37568   0.20265   0.00000  Uiso   1.00
H314   H     0.54881   0.62432   0.29736   0.00000  Uiso   1.00
N315   N     0.50000   0.61907   0.25000   0.00000  Uiso   1.00
N316   N     0.50000   0.38093   0.25000   0.00000  Uiso   1.00
O317   O     0.43892   0.53821   0.25000   0.00000  Uiso   1.00
O318   O     0.56108   0.46179   0.25001   0.00000  Uiso   1.00
O319   O     0.56108   0.53821   0.25001   0.00000  Uiso   1.00
O320   O     0.43892   0.46179   0.25000   0.00000  Uiso   1.00
O321   O     0.49999   0.53823   0.18393   0.00000  Uiso   1.00
O322   O     0.50001   0.46177   0.31608   0.00000  Uiso   1.00
O323   O     0.50001   0.53823   0.31608   0.00000  Uiso   1.00
O324   O     0.49999   0.46177   0.18393   0.00000  Uiso   1.00
Zn325  Zn    0.50000   0.55104   0.25000   0.00000  Uiso   1.00
Zn326  Zn    0.50000   0.44896   0.25000   0.00000  Uiso   1.00
C327   C     0.43078   0.54337   0.38164   0.00000  Uiso   1.00
H328   H     0.42030   0.53169   0.34919   0.00000  Uiso   1.00
O329   O     0.41780   0.57945   0.39570   0.00000  Uiso   1.00
C330   C     0.57094   0.45838   0.11691   0.00000  Uiso   1.00
H331   H     0.58350   0.42753   0.10267   0.00000  Uiso   1.00
O332   O     0.58515   0.47218   0.15210   0.00000  Uiso   1.00
C333   C     0.38210   0.52101   0.46199   0.00000  Uiso   1.00
O334   O     0.35577   0.54713   0.47638   0.00000  Uiso   1.00
O335   O     0.37126   0.48912   0.42961   0.00000  Uiso   1.00
H336   H     0.34103   0.49167   0.42014   0.00000  Uiso   1.00
C337   C     0.61813   0.47825   0.03677   0.00000  Uiso   1.00
O338   O     0.62893   0.50708   0.06360   0.00000  Uiso   1.00
O339   O     0.64711   0.44688   0.02079   0.00000  Uiso   1.00
H340   H     0.34237   0.45099   0.03453   0.00000  Uiso   1.00
C341   C     0.75331   0.49998   0.25017   0.00000  Uiso   1.00
C342   C     0.91336   0.50001   0.25065   0.00000  Uiso   1.00
C343   C     0.76214   0.52531   0.02665   0.00000  Uiso   1.00
C344   C     0.90426   0.47393   0.47304   0.00000  Uiso   1.00
C345   C     0.68796   0.46005   0.24041   0.00000  Uiso   1.00
C346   C     0.97870   0.53968   0.26203   0.00000  Uiso   1.00
C347   C     0.97865   0.46003   0.24069   0.00000  Uiso   1.00
C348   C     0.68806   0.53967   0.26186   0.00000  Uiso   1.00
C349   C     0.95751   0.49992   0.25121   0.00000  Uiso   1.00
C350   C     0.70917   0.49991   0.25081   0.00000  Uiso   1.00
C351   C     0.86046   0.35720   0.27631   0.00000  Uiso   1.00
C352   C     0.80621   0.64280   0.22369   0.00000  Uiso   1.00
C353   C     0.80621   0.35743   0.22369   0.00000  Uiso   1.00
C354   C     0.86046   0.64257   0.27632   0.00000  Uiso   1.00
C355   C     0.83443   0.50015   0.16353   0.00000  Uiso   1.00
C356   C     0.83218   0.49985   0.33642   0.00000  Uiso   1.00
C357   C     0.86464   0.48199   0.40605   0.00000  Uiso   1.00
C358   C     0.80177   0.51734   0.09379   0.00000  Uiso   1.00
C359   C     0.83018   0.49919   0.38409   0.00000  Uiso   1.00
C360   C     0.83655   0.50084   0.11578   0.00000  Uiso   1.00
C361   C     0.79572   0.51702   0.40718   0.00000  Uiso   1.00
C362   C     0.87146   0.48398   0.09252   0.00000  Uiso   1.00
C363   C     0.79465   0.51277   0.45436   0.00000  Uiso   1.00
C364   C     0.87215   0.48767   0.04534   0.00000  Uiso   1.00
C365   C     0.83200   0.49935   0.47654   0.00000  Uiso   1.00
C366   C     0.83465   0.50071   0.02323   0.00000  Uiso   1.00
C367   C     0.86681   0.48434   0.45197   0.00000  Uiso   1.00
C368   C     0.79968   0.51524   0.04781   0.00000  Uiso   1.00
C369   C     0.75838   0.52169   0.48038   0.00000  Uiso   1.00
C370   C     0.90826   0.47814   0.01913   0.00000  Uiso   1.00
H371   H     0.89109   0.46963   0.38689   0.00000  Uiso   1.00
H372   H     0.77510   0.52913   0.11295   0.00000  Uiso   1.00
H373   H     0.73484   0.53317   0.04668   0.00000  Uiso   1.00
H374   H     0.93139   0.46546   0.45297   0.00000  Uiso   1.00
H375   H     0.70420   0.42918   0.23163   0.00000  Uiso   1.00
H376   H     0.96241   0.57054   0.27072   0.00000  Uiso   1.00
H377   H     0.96236   0.42913   0.23209   0.00000  Uiso   1.00
H378   H     0.70441   0.57053   0.27049   0.00000  Uiso   1.00
H379   H     0.88214   0.37528   0.29736   0.00000  Uiso   1.00
H380   H     0.78453   0.62472   0.20264   0.00000  Uiso   1.00
H381   H     0.78452   0.37568   0.20265   0.00000  Uiso   1.00
H382   H     0.88214   0.62432   0.29736   0.00000  Uiso   1.00
N383   N     0.83333   0.61907   0.25000   0.00000  Uiso   1.00
N384   N     0.83333   0.38093   0.25000   0.00000  Uiso   1.00
O385   O     0.77226   0.53821   0.25000   0.00000  Uiso   1.00
O386   O     0.89441   0.46179   0.25001   0.00000  Uiso   1.00
O387   O     0.89441   0.53821   0.25001   0.00000  Uiso   1.00
O388   O     0.77226   0.46179   0.25000   0.00000  Uiso   1.00
O389   O     0.83333   0.53823   0.18393   0.00000  Uiso   1.00
O390   O     0.83334   0.46177   0.31608   0.00000  Uiso   1.00
O391   O     0.83334   0.53823   0.31608   0.00000  Uiso   1.00
O392   O     0.83333   0.46177   0.18393   0.00000  Uiso   1.00
Zn393  Zn    0.83333   0.55104   0.25000   0.00000  Uiso   1.00
Zn394  Zn    0.83333   0.44896   0.25000   0.00000  Uiso   1.00
C395   C     0.76412   0.54337   0.38164   0.00000  Uiso   1.00
H396   H     0.75364   0.53169   0.34919   0.00000  Uiso   1.00
O397   O     0.75114   0.57945   0.39570   0.00000  Uiso   1.00
C398   C     0.90427   0.45838   0.11691   0.00000  Uiso   1.00
H399   H     0.91683   0.42753   0.10267   0.00000  Uiso   1.00
O400   O     0.91849   0.47218   0.15210   0.00000  Uiso   1.00
C401   C     0.71543   0.52101   0.46199   0.00000  Uiso   1.00
O402   O     0.68911   0.54713   0.47638   0.00000  Uiso   1.00
O403   O     0.70459   0.48912   0.42961   0.00000  Uiso   1.00
H404   H     0.67437   0.49167   0.42014   0.00000  Uiso   1.00
C405   C     0.95146   0.47825   0.03677   0.00000  Uiso   1.00
O406   O     0.96226   0.50708   0.06360   0.00000  Uiso   1.00
O407   O     0.98044   0.44688   0.02079   0.00000  Uiso   1.00
H408   H     0.67571   0.45099   0.03453   0.00000  Uiso   1.00
C409   C     0.08664   0.83331   0.25017   0.00000  Uiso   1.00
C410   C     0.24669   0.83334   0.25065   0.00000  Uiso   1.00
C411   C     0.09548   0.85864   0.02665   0.00000  Uiso   1.00
C412   C     0.23759   0.80726   0.47304   0.00000  Uiso   1.00
C413   C     0.02129   0.79339   0.24041   0.00000  Uiso   1.00
C414   C     0.31204   0.87301   0.26203   0.00000  Uiso   1.00
C415   C     0.31198   0.79336   0.24069   0.00000  Uiso   1.00
C416   C     0.02139   0.87301   0.26186   0.00000  Uiso   1.00
C417   C     0.29084   0.83325   0.25121   0.00000  Uiso   1.00
C418   C     0.04250   0.83325   0.25081   0.00000  Uiso   1.00
C419   C     0.19379   0.69053   0.27631   0.00000  Uiso   1.00
C420   C     0.13954   0.97613   0.22369   0.00000  Uiso   1.00
C421   C     0.13954   0.69076   0.22369   0.00000  Uiso   1.00
C422   C     0.19379   0.97591   0.27632   0.00000  Uiso   1.00
C423   C     0.16776   0.83348   0.16353   0.00000  Uiso   1.00
C424   C     0.16552   0.83318   0.33642   0.00000  Uiso   1.00
C425   C     0.19798   0.81532   0.40605   0.00000  Uiso   1.00
C426   C     0.13510   0.85067   0.09379   0.00000  Uiso   1.00
C427   C     0.16352   0.83253   0.38409   0.00000  Uiso   1.00
C428   C     0.16989   0.83418   0.11578   0.00000  Uiso   1.00
C429   C     0.12905   0.85035   0.40718   0.00000  Uiso   1.00
C430   C     0.20479   0.81731   0.09252   0.00000  Uiso   1.00
C431   C     0.12798   0.84610   0.45436   0.00000  Uiso   1.00
C432   C     0.20548   0.82100   0.04534   0.00000  Uiso   1.00
C433   C     0.16533   0.83268   0.47654   0.00000  Uiso   1.00
C434   C     0.16799   0.83405   0.02323   0.00000  Uiso   1.00
C435   C     0.20015   0.81767   0.45197   0.00000  Uiso   1.00
C436   C     0.13301   0.84857   0.04781   0.00000  Uiso   1.00
C437   C     0.09171   0.85503   0.48038   0.00000  Uiso   1.00
C438   C     0.24159   0.81147   0.01913   0.00000  Uiso   1.00
H439   H     0.22442   0.80296   0.38689   0.00000  Uiso   1.00
H440   H     0.10844   0.86246   0.11295   0.00000  Uiso   1.00
H441   H     0.06817   0.86651   0.04668   0.00000  Uiso   1.00
H442   H     0.26472   0.79880   0.45297   0.00000  Uiso   1.00
H443   H     0.03753   0.76252   0.23163   0.00000  Uiso   1.00
H444   H     0.29574   0.90387   0.27072   0.00000  Uiso   1.00
H445   H     0.29570   0.76246   0.23209   0.00000  Uiso   1.00
H446   H     0.03774   0.90386   0.27049   0.00000  Uiso   1.00
H447   H     0.21547   0.70861   0.29736   0.00000  Uiso   1.00
H448   H     0.11786   0.95806   0.20264   0.00000  Uiso   1.00
H449   H     0.11785   0.70902   0.20265   0.00000  Uiso   1.00
H450   H     0.21548   0.95765   0.29736   0.00000  Uiso   1.00
N451   N     0.16667   0.95240   0.25000   0.00000  Uiso   1.00
N452   N     0.16667   0.71427   0.25000   0.00000  Uiso   1.00
O453   O     0.10559   0.87154   0.25000   0.00000  Uiso   1.00
O454   O     0.22774   0.79513   0.25001   0.00000  Uiso   1.00
O455   O     0.22774   0.87154   0.25001   0.00000  Uiso   1.00
O456   O     0.10559   0.79513   0.25000   0.00000  Uiso   1.00
O457   O     0.16666   0.87156   0.18393   0.00000  Uiso   1.00
O458   O     0.16667   0.79511   0.31608   0.00000  Uiso   1.00
O459   O     0.16667   0.87156   0.31608   0.00000  Uiso   1.00
O460   O     0.16666   0.79511   0.18393   0.00000  Uiso   1.00
Zn461  Zn    0.16667   0.88437   0.25000   0.00000  Uiso   1.00
Zn462  Zn    0.16667   0.78229   0.25000   0.00000  Uiso   1.00
C463   C     0.09745   0.87670   0.38164   0.00000  Uiso   1.00
H464   H     0.08697   0.86503   0.34919   0.00000  Uiso   1.00
O465   O     0.08447   0.91279   0.39570   0.00000  Uiso   1.00
C466   C     0.23761   0.79171   0.11691   0.00000  Uiso   1.00
H467   H     0.25017   0.76087   0.10267   0.00000  Uiso   1.00
O468   O     0.25182   0.80551   0.15210   0.00000  Uiso   1.00
C469   C     0.04876   0.85435   0.46199   0.00000  Uiso   1.00
O470   O     0.02244   0.88047   0.47638   0.00000  Uiso   1.00
O471   O     0.03792   0.82246   0.42961   0.00000  Uiso   1.00
H472   H     0.00770   0.82501   0.42014   0.00000  Uiso   1.00
C473   C     0.28480   0.81158   0.03677   0.00000  Uiso   1.00
O474   O     0.29560   0.84041   0.06360   0.00000  Uiso   1.00
O475   O     0.31377   0.78021   0.02079   0.00000  Uiso   1.00
H476   H     0.00904   0.78433   0.03453   0.00000  Uiso   1.00
C477   C     0.41997   0.83331   0.25017   0.00000  Uiso   1.00
C478   C     0.58002   0.83334   0.25065   0.00000  Uiso   1.00
C479   C     0.42881   0.85864   0.02665   0.00000  Uiso   1.00
C480   C     0.57093   0.80726   0.47304   0.00000  Uiso   1.00
C481   C     0.35463   0.79339   0.24041   0.00000  Uiso   1.00
C482   C     0.64537   0.87301   0.26203   0.00000  Uiso   1.00
C483   C     0.64532   0.79336   0.24069   0.00000  Uiso   1.00
C484   C     0.35472   0.87301   0.26186   0.00000  Uiso   1.00
C485   C     0.62418   0.83325   0.25121   0.00000  Uiso   1.00
C486   C     0.37584   0.83325   0.25081   0.00000  Uiso   1.00
C487   C     0.52712   0.69053   0.27631   0.00000  Uiso   1.00
C488   C     0.47287   0.97613   0.22369   0.00000  Uiso   1.00
C489   C     0.47287   0.69076   0.22369   0.00000  Uiso   1.00
C490   C     0.52712   0.97591   0.27632   0.00000  Uiso   1.00
C491   C     0.50109   0.83348   0.16353   0.00000  Uiso   1.00
C492   C     0.49885   0.83318   0.33642   0.00000  Uiso   1.00
C493   C     0.53131   0.81532   0.40605   0.00000  Uiso   1.00
C494   C     0.46843   0.85067   0.09379   0.00000  Uiso   1.00
C495   C     0.49685   0.83253   0.38409   0.00000  Uiso   1.00
C496   C     0.50322   0.83418   0.11578   0.00000  Uiso   1.00
C497   C     0.46239   0.85035   0.40718   0.00000  Uiso   1.00
C498   C     0.53812   0.81731   0.09252   0.00000  Uiso   1.00
C499   C     0.46131   0.84610   0.45436   0.00000  Uiso   1.00
C500   C     0.53882   0.82100   0.04534   0.00000  Uiso   1.00
C501   C     0.49866   0.83268   0.47654   0.00000  Uiso   1.00
C502   C     0.50132   0.83405   0.02323   0.00000  Uiso   1.00
C503   C     0.53348   0.81767   0.45197   0.00000  Uiso   1.00
C504   C     0.46634   0.84857   0.04781   0.00000  Uiso   1.00
C505   C     0.42505   0.85503   0.48038   0.00000  Uiso   1.00
C506   C     0.57493   0.81147   0.01913   0.00000  Uiso   1.00
H507   H     0.55775   0.80296   0.38689   0.00000  Uiso   1.00
H508   H     0.44177   0.86246   0.11295   0.00000  Uiso   1.00
H509   H     0.40151   0.86651   0.04668   0.00000  Uiso   1.00
H510   H     0.59806   0.79880   0.45297   0.00000  Uiso   1.00
H511   H     0.37086   0.76252   0.23163   0.00000  Uiso   1.00
H512   H     0.62908   0.90387   0.27072   0.00000  Uiso   1.00
H513   H     0.62903   0.76246   0.23209   0.00000  Uiso   1.00
H514   H     0.37107   0.90386   0.27049   0.00000  Uiso   1.00
H515   H     0.54881   0.70861   0.29736   0.00000  Uiso   1.00
H516   H     0.45119   0.95806   0.20264   0.00000  Uiso   1.00
H517   H     0.45119   0.70902   0.20265   0.00000  Uiso   1.00
H518   H     0.54881   0.95765   0.29736   0.00000  Uiso   1.00
N519   N     0.50000   0.95240   0.25000   0.00000  Uiso   1.00
N520   N     0.50000   0.71427   0.25000   0.00000  Uiso   1.00
O521   O     0.43892   0.87154   0.25000   0.00000  Uiso   1.00
O522   O     0.56108   0.79513   0.25001   0.00000  Uiso   1.00
O523   O     0.56108   0.87154   0.25001   0.00000  Uiso   1.00
O524   O     0.43892   0.79513   0.25000   0.00000  Uiso   1.00
O525   O     0.49999   0.87156   0.18393   0.00000  Uiso   1.00
O526   O     0.50001   0.79511   0.31608   0.00000  Uiso   1.00
O527   O     0.50001   0.87156   0.31608   0.00000  Uiso   1.00
O528   O     0.49999   0.79511   0.18393   0.00000  Uiso   1.00
Zn529  Zn    0.50000   0.88437   0.25000   0.00000  Uiso   1.00
Zn530  Zn    0.50000   0.78229   0.25000   0.00000  Uiso   1.00
C531   C     0.43078   0.87670   0.38164   0.00000  Uiso   1.00
H532   H     0.42030   0.86503   0.34919   0.00000  Uiso   1.00
O533   O     0.41780   0.91279   0.39570   0.00000  Uiso   1.00
C534   C     0.57094   0.79171   0.11691   0.00000  Uiso   1.00
H535   H     0.58350   0.76087   0.10267   0.00000  Uiso   1.00
O536   O     0.58515   0.80551   0.15210   0.00000  Uiso   1.00
C537   C     0.38210   0.85435   0.46199   0.00000  Uiso   1.00
O538   O     0.35577   0.88047   0.47638   0.00000  Uiso   1.00
O539   O     0.37126   0.82246   0.42961   0.00000  Uiso   1.00
H540   H     0.34103   0.82501   0.42014   0.00000  Uiso   1.00
C541   C     0.61813   0.81158   0.03677   0.00000  Uiso   1.00
O542   O     0.62893   0.84041   0.06360   0.00000  Uiso   1.00
O543   O     0.64711   0.78021   0.02079   0.00000  Uiso   1.00
H544   H     0.34237   0.78433   0.03453   0.00000  Uiso   1.00
C545   C     0.75331   0.83331   0.25017   0.00000  Uiso   1.00
C546   C     0.91336   0.83334   0.25065   0.00000  Uiso   1.00
C547   C     0.76214   0.85864   0.02665   0.00000  Uiso   1.00
C548   C     0.90426   0.80726   0.47304   0.00000  Uiso   1.00
C549   C     0.68796   0.79339   0.24041   0.00000  Uiso   1.00
C550   C     0.97870   0.87301   0.26203   0.00000  Uiso   1.00
C551   C     0.97865   0.79336   0.24069   0.00000  Uiso   1.00
C552   C     0.68806   0.87301   0.26186   0.00000  Uiso   1.00
C553   C     0.95751   0.83325   0.25121   0.00000  Uiso   1.00
C554   C     0.70917   0.83325   0.25081   0.00000  Uiso   1.00
C555   C     0.86046   0.69053   0.27631   0.00000  Uiso   1.00
C556   C     0.80621   0.97613   0.22369   0.00000  Uiso   1.00
C557   C     0.80621   0.69076   0.22369   0.00000  Uiso   1.00
C558   C     0.86046   0.97591   0.27632   0.00000  Uiso   1.00
C559   C     0.83443   0.83348   0.16353   0.00000  Uiso   1.00
C560   C     0.83218   0.83318   0.33642   0.00000  Uiso   1.00
C561   C     0.86464   0.81532   0.40605   0.00000  Uiso   1.00
C562   C     0.80177   0.85067   0.09379   0.00000  Uiso   1.00
C563   C     0.83018   0.83253   0.38409   0.00000  Uiso   1.00
C564   C     0.83655   0.83418   0.11578   0.00000  Uiso   1.00
C565   C     0.79572   0.85035   0.40718   0.00000  Uiso   1.00
C566   C     0.87146   0.81731   0.09252   0.00000  Uiso   1.00
C567   C     0.79465   0.84610   0.45436   0.00000  Uiso   1.00
C568   C     0.87215   0.82100   0.04534   0.00000  Uiso   1.00
C569   C     0.83200   0.83268   0.47654   0.00000  Uiso   1.00
C570   C     0.83465   0.83405   0.02323   0.00000  Uiso   1.00
C571   C     0.86681   0.81767   0.45197   0.00000  Uiso   1.00
C572   C     0.79968   0.84857   0.04781   0.00000  Uiso   1.00
C573   C     0.75838   0.85503   0.48038   0.00000  Uiso   1.00
C574   C     0.90826   0.81147   0.01913   0.00000  Uiso   1.00
H575   H     0.89109   0.80296   0.38689   0.00000  Uiso   1.00
H576   H     0.77510   0.86246   0.11295   0.00000  Uiso   1.00
H577   H     0.73484   0.86651   0.04668   0.00000  Uiso   1.00
H578   H     0.93139   0.79880   0.45297   0.00000  Uiso   1.00
H579   H     0.70420   0.76252   0.23163   0.00000  Uiso   1.00
H580   H     0.96241   0.90387   0.27072   0.00000  Uiso   1.00
H581   H     0.96236   0.76246   0.23209   0.00000  Uiso   1.00
H582   H     0.70441   0.90386   0.27049   0.00000  Uiso   1.00
H583   H     0.88214   0.70861   0.29736   0.00000  Uiso   1.00
H584   H     0.78453   0.95806   0.20264   0.00000  Uiso   1.00
H585   H     0.78452   0.70902   0.20265   0.00000  Uiso   1.00
H586   H     0.88214   0.95765   0.29736   0.00000  Uiso   1.00
N587   N     0.83333   0.95240   0.25000   0.00000  Uiso   1.00
N588   N     0.83333   0.71427   0.25000   0.00000  Uiso   1.00
O589   O     0.77226   0.87154   0.25000   0.00000  Uiso   1.00
O590   O     0.89441   0.79513   0.25001   0.00000  Uiso   1.00
O591   O     0.89441   0.87154   0.25001   0.00000  Uiso   1.00
O592   O     0.77226   0.79513   0.25000   0.00000  Uiso   1.00
O593   O     0.83333   0.87156   0.18393   0.00000  Uiso   1.00
O594   O     0.83334   0.79511   0.31608   0.00000  Uiso   1.00
O595   O     0.83334   0.87156   0.31608   0.00000  Uiso   1.00
O596   O     0.83333   0.79511   0.18393   0.00000  Uiso   1.00
Zn597  Zn    0.83333   0.88437   0.25000   0.00000  Uiso   1.00
Zn598  Zn    0.83333   0.78229   0.25000   0.00000  Uiso   1.00
C599   C     0.76412   0.87670   0.38164   0.00000  Uiso   1.00
H600   H     0.75364   0.86503   0.34919   0.00000  Uiso   1.00
O601   O     0.75114   0.91279   0.39570   0.00000  Uiso   1.00
C602   C     0.90427   0.79171   0.11691   0.00000  Uiso   1.00
H603   H     0.91683   0.76087   0.10267   0.00000  Uiso   1.00
O604   O     0.91849   0.80551   0.15210   0.00000  Uiso   1.00
C605   C     0.71543   0.85435   0.46199   0.00000  Uiso   1.00
O606   O     0.68911   0.88047   0.47638   0.00000  Uiso   1.00
O607   O     0.70459   0.82246   0.42961   0.00000  Uiso   1.00
H608   H     0.67437   0.82501   0.42014   0.00000  Uiso   1.00
C609   C     0.95146   0.81158   0.03677   0.00000  Uiso   1.00
O610   O     0.96226   0.84041   0.06360   0.00000  Uiso   1.00
O611   O     0.98044   0.78021   0.02079   0.00000  Uiso   1.00
H612   H     0.67571   0.78433   0.03453   0.00000  Uiso   1.00
C613   C     0.08664   0.16664   0.75017   0.00000  Uiso   1.00
C614   C     0.24669   0.16667   0.75065   0.00000  Uiso   1.00
C615   C     0.09548   0.19198   0.52665   0.00000  Uiso   1.00
C616   C     0.23759   0.14059   0.97304   0.00000  Uiso   1.00
C617   C     0.02129   0.12672   0.74041   0.00000  Uiso   1.00
C618   C     0.31204   0.20635   0.76203   0.00000  Uiso   1.00
C619   C     0.31198   0.12670   0.74069   0.00000  Uiso   1.00
C620   C     0.02139   0.20634   0.76186   0.00000  Uiso   1.00
C621   C     0.29084   0.16658   0.75121   0.00000  Uiso   1.00
C622   C     0.04250   0.16658   0.75081   0.00000  Uiso   1.00
C623   C     0.19379   0.02387   0.77631   0.00000  Uiso   1.00
C624   C     0.13954   0.30947   0.72369   0.00000  Uiso   1.00
C625   C     0.13954   0.02409   0.72369   0.00000  Uiso   1.00
C626   C     0.19379   0.30924   0.77632   0.00000  Uiso   1.00
C627   C     0.16776   0.16681   0.66353   0.00000  Uiso   1.00
C628   C     0.16552   0.16652   0.83642   0.00000  Uiso   1.00
C629   C     0.19798   0.14865   0.90605   0.00000  Uiso   1.00
C630   C     0.13510   0.18400   0.59379   0.00000  Uiso   1.00
C631   C     0.16352   0.16586   0.88409   0.00000  Uiso   1.00
C632   C     0.16989   0.16751   0.61578   0.00000  Uiso   1.00
C633   C     0.12905   0.18368   0.90718   0.00000  Uiso   1.00
C634   C     0.20479   0.15065   0.59252   0.00000  Uiso   1.00
C635   C     0.12798   0.17943   0.95436   0.00000  Uiso   1.00
C636   C     0.20548   0.15434   0.54534   0.00000  Uiso   1.00
C637   C     0.16533   0.16602   0.97654   0.00000  Uiso   1.00
C638   C     0.16799   0.16738   0.52323   0.00000  Uiso   1.00
C639   C     0.20015   0.15101   0.95197   0.00000  Uiso   1.00
C640   C     0.13301   0.18191   0.54781   0.00000  Uiso   1.00
C641   C     0.09171   0.18836   0.98038   0.00000  Uiso   1.00
C642   C     0.24159   0.14480   0.51913   0.00000  Uiso   1.00
H643   H     0.22442   0.13629   0.88689   0.00000  Uiso   1.00
H644   H     0.10844   0.19579   0.61295   0.00000  Uiso   1.00
H645   H     0.06817   0.19984   0.54668   0.00000  Uiso   1.00
H646   H     0.26472   0.13213   0.95297   0.00000  Uiso   1.00
H647   H     0.03753   0.09585   0.73163   0.00000  Uiso   1.00
H648   H     0.29574   0.23721   0.77072   0.00000  Uiso   1.00
H649   H     0.29570   0.09579   0.73209   0.00000  Uiso   1.00
H650   H     0.03774   0.23719   0.77049   0.00000  Uiso   1.00
H651   H     0.21547   0.04195   0.79736   0.00000  Uiso   1.00
H652   H     0.11786   0.29139   0.70264   0.00000  Uiso   1.00
H653   H     0.11785   0.04235   0.70265   0.00000  Uiso   1.00
H654   H     0.21548   0.29098   0.79736   0.00000  Uiso   1.00
N655   N     0.16667   0.28573   0.75000   0.00000  Uiso   1.00
N656   N     0.16667   0.04760   0.75000   0.00000  Uiso   1.00
O657   O     0.10559   0.20487   0.75000   0.00000  Uiso   1.00
O658   O     0.22774   0.12846   0.75001   0.00000  Uiso   1.00
O659   O     0.22774   0.20487   0.75001   0.00000  Uiso   1.00
O660   O     0.10559   0.12846   0.75000   0.00000  Uiso   1.00
O661   O     0.16666   0.20489   0.68393   0.00000  Uiso   1.00
O662   O     0.16667   0.12844   0.81608   0.00000  Uiso   1.00
O663   O     0.16667   0.20489   0.81608   0.00000  Uiso   1.00
O664   O     0.16666   0.12844   0.68393   0.00000  Uiso   1.00
Zn665  Zn    0.16667   0.21771   0.75000   0.00000  Uiso   1.00
Zn666  Zn    0.16667   0.11563   0.75000   0.00000  Uiso   1.00
C667   C     0.09745   0.21003   0.88164   0.00000  Uiso   1.00
H668   H     0.08697   0.19836   0.84919   0.00000  Uiso   1.00
O669   O     0.08447   0.24612   0.89570   0.00000  Uiso   1.00
C670   C     0.23761   0.12504   0.61691   0.00000  Uiso   1.00
H671   H     0.25017   0.09420   0.60267   0.00000  Uiso   1.00
O672   O     0.25182   0.13885   0.65210   0.00000  Uiso   1.00
C673   C     0.04876   0.18768   0.96199   0.00000  Uiso   1.00
O674   O     0.02244   0.21380   0.97638   0.00000  Uiso   1.00
O675   O     0.03792   0.15579   0.92961   0.00000  Uiso   1.00
H676   H     0.00770   0.15834   0.92014   0.00000  Uiso   1.00
C677   C     0.28480   0.14491   0.53677   0.00000  Uiso   1.00
O678   O     0.29560   0.17374   0.56360   0.00000  Uiso   1.00
O679   O     0.31377   0.11354   0.52079   0.00000  Uiso   1.00
H680   H     0.00904   0.11766   0.53453   0.00000  Uiso   1.00
C681   C     0.41997   0.16664   0.75017   0.00000  Uiso   1.00
C682   C     0.58002   0.16667   0.75065   0.00000  Uiso   1.00
C683   C     0.42881   0.19198   0.52665   0.00000  Uiso   1.00
C684   C     0.57093   0.14059   0.97304   0.00000  Uiso   1.00
C685   C     0.35463   0.12672   0.74041   0.00000  Uiso   1.00
C686   C     0.64537   0.20635   0.76203   0.00000  Uiso   1.00
C687   C     0.64532   0.12670   0.74069   0.00000  Uiso   1.00
C688   C     0.35472   0.20634   0.76186   0.00000  Uiso   1.00
C689   C     0.62418   0.16658   0.75121   0.00000  Uiso   1.00
C690   C     0.37584   0.16658   0.75081   0.00000  Uiso   1.00
C691   C     0.52712   0.02387   0.77631   0.00000  Uiso   1.00
C692   C     0.47287   0.30947   0.72369   0.00000  Uiso   1.00
C693   C     0.47287   0.02409   0.72369   0.00000  Uiso   1.00
C694   C     0.52712   0.30924   0.77632   0.00000  Uiso   1.00
C695   C     0.50109   0.16681   0.66353   0.00000  Uiso   1.00
C696   C     0.49885   0.16652   0.83642   0.00000  Uiso   1.00
C697   C     0.53131   0.14865   0.90605   0.00000  Uiso   1.00
C698   C     0.46843   0.18400   0.59379   0.00000  Uiso   1.00
C699   C     0.49685   0.16586   0.88409   0.00000  Uiso   1.00
C700   C     0.50322   0.16751   0.61578   0.00000  Uiso   1.00
C701   C     0.46239   0.18368   0.90718   0.00000  Uiso   1.00
C702   C     0.53812   0.15065   0.59252   0.00000  Uiso   1.00
C703   C     0.46131   0.17943   0.95436   0.00000  Uiso   1.00
C704   C     0.53882   0.15434   0.54534   0.00000  Uiso   1.00
C705   C     0.49866   0.16602   0.97654   0.00000  Uiso   1.00
C706   C     0.50132   0.16738   0.52323   0.00000  Uiso   1.00
C707   C     0.53348   0.15101   0.95197   0.00000  Uiso   1.00
C708   C     0.46634   0.18191   0.54781   0.00000  Uiso   1.00
C709   C     0.42505   0.18836   0.98038   0.00000  Uiso   1.00
C710   C     0.57493   0.14480   0.51913   0.00000  Uiso   1.00
H711   H     0.55775   0.13629   0.88689   0.00000  Uiso   1.00
H712   H     0.44177   0.19579   0.61295   0.00000  Uiso   1.00
H713   H     0.40151   0.19984   0.54668   0.00000  Uiso   1.00
H714   H     0.59806   0.13213   0.95297   0.00000  Uiso   1.00
H715   H     0.37086   0.09585   0.73163   0.00000  Uiso   1.00
H716   H     0.62908   0.23721   0.77072   0.00000  Uiso   1.00
H717   H     0.62903   0.09579   0.73209   0.00000  Uiso   1.00
H718   H     0.37107   0.23719   0.77049   0.00000  Uiso   1.00
H719   H     0.54881   0.04195   0.79736   0.00000  Uiso   1.00
H720   H     0.45119   0.29139   0.70264   0.00000  Uiso   1.00
H721   H     0.45119   0.04235   0.70265   0.00000  Uiso   1.00
H722   H     0.54881   0.29098   0.79736   0.00000  Uiso   1.00
N723   N     0.50000   0.28573   0.75000   0.00000  Uiso   1.00
N724   N     0.50000   0.04760   0.75000   0.00000  Uiso   1.00
O725   O     0.43892   0.20487   0.75000   0.00000  Uiso   1.00
O726   O     0.56108   0.12846   0.75001   0.00000  Uiso   1.00
O727   O     0.56108   0.20487   0.75001   0.00000  Uiso   1.00
O728   O     0.43892   0.12846   0.75000   0.00000  Uiso   1.00
O729   O     0.49999   0.20489   0.68393   0.00000  Uiso   1.00
O730   O     0.50001   0.12844   0.81608   0.00000  Uiso   1.00
O731   O     0.50001   0.20489   0.81608   0.00000  Uiso   1.00
O732   O     0.49999   0.12844   0.68393   0.00000  Uiso   1.00
Zn733  Zn    0.50000   0.21771   0.75000   0.00000  Uiso   1.00
Zn734  Zn    0.50000   0.11563   0.75000   0.00000  Uiso   1.00
C735   C     0.43078   0.21003   0.88164   0.00000  Uiso   1.00
H736   H     0.42030   0.19836   0.84919   0.00000  Uiso   1.00
O737   O     0.41780   0.24612   0.89570   0.00000  Uiso   1.00
C738   C     0.57094   0.12504   0.61691   0.00000  Uiso   1.00
H739   H     0.58350   0.09420   0.60267   0.00000  Uiso   1.00
O740   O     0.58515   0.13885   0.65210   0.00000  Uiso   1.00
C741   C     0.38210   0.18768   0.96199   0.00000  Uiso   1.00
O742   O     0.35577   0.21380   0.97638   0.00000  Uiso   1.00
O743   O     0.37126   0.15579   0.92961   0.00000  Uiso   1.00
H744   H     0.34103   0.15834   0.92014   0.00000  Uiso   1.00
C745   C     0.61813   0.14491   0.53677   0.00000  Uiso   1.00
O746   O     0.62893   0.17374   0.56360   0.00000  Uiso   1.00
O747   O     0.64711   0.11354   0.52079   0.00000  Uiso   1.00
H748   H     0.34237   0.11766   0.53453   0.00000  Uiso   1.00
C749   C     0.75331   0.16664   0.75017   0.00000  Uiso   1.00
C750   C     0.91336   0.16667   0.75065   0.00000  Uiso   1.00
C751   C     0.76214   0.19198   0.52665   0.00000  Uiso   1.00
C752   C     0.90426   0.14059   0.97304   0.00000  Uiso   1.00
C753   C     0.68796   0.12672   0.74041   0.00000  Uiso   1.00
C754   C     0.97870   0.20635   0.76203   0.00000  Uiso   1.00
C755   C     0.97865   0.12670   0.74069   0.00000  Uiso   1.00
C756   C     0.68806   0.20634   0.76186   0.00000  Uiso   1.00
C757   C     0.95751   0.16658   0.75121   0.00000  Uiso   1.00
C758   C     0.70917   0.16658   0.75081   0.00000  Uiso   1.00
C759   C     0.86046   0.02387   0.77631   0.00000  Uiso   1.00
C760   C     0.80621   0.30947   0.72369   0.00000  Uiso   1.00
C761   C     0.80621   0.02409   0.72369   0.00000  Uiso   1.00
C762   C     0.86046   0.30924   0.77632   0.00000  Uiso   1.00
C763   C     0.83443   0.16681   0.66353   0.00000  Uiso   1.00
C764   C     0.83218   0.16652   0.83642   0.00000  Uiso   1.00
C765   C     0.86464   0.14865   0.90605   0.00000  Uiso   1.00
C766   C     0.80177   0.18400   0.59379   0.00000  Uiso   1.00
C767   C     0.83018   0.16586   0.88409   0.00000  Uiso   1.00
C768   C     0.83655   0.16751   0.61578   0.00000  Uiso   1.00
C769   C     0.79572   0.18368   0.90718   0.00000  Uiso   1.00
C770   C     0.87146   0.15065   0.59252   0.00000  Uiso   1.00
C771   C     0.79465   0.17943   0.95436   0.00000  Uiso   1.00
C772   C     0.87215   0.15434   0.54534   0.00000  Uiso   1.00
C773   C     0.83200   0.16602   0.97654   0.00000  Uiso   1.00
C774   C     0.83465   0.16738   0.52323   0.00000  Uiso   1.00
C775   C     0.86681   0.15101   0.95197   0.00000  Uiso   1.00
C776   C     0.79968   0.18191   0.54781   0.00000  Uiso   1.00
C777   C     0.75838   0.18836   0.98038   0.00000  Uiso   1.00
C778   C     0.90826   0.14480   0.51913   0.00000  Uiso   1.00
H779   H     0.89109   0.13629   0.88689   0.00000  Uiso   1.00
H780   H     0.77510   0.19579   0.61295   0.00000  Uiso   1.00
H781   H     0.73484   0.19984   0.54668   0.00000  Uiso   1.00
H782   H     0.93139   0.13213   0.95297   0.00000  Uiso   1.00
H783   H     0.70420   0.09585   0.73163   0.00000  Uiso   1.00
H784   H     0.96241   0.23721   0.77072   0.00000  Uiso   1.00
H785   H     0.96236   0.09579   0.73209   0.00000  Uiso   1.00
H786   H     0.70441   0.23719   0.77049   0.00000  Uiso   1.00
H787   H     0.88214   0.04195   0.79736   0.00000  Uiso   1.00
H788   H     0.78453   0.29139   0.70264   0.00000  Uiso   1.00
H789   H     0.78452   0.04235   0.70265   0.00000  Uiso   1.00
H790   H     0.88214   0.29098   0.79736   0.00000  Uiso   1.00
N791   N     0.83333   0.28573   0.75000   0.00000  Uiso   1.00
N792   N     0.83333   0.04760   0.75000   0.00000  Uiso   1.00
O793   O     0.77226   0.20487   0.75000   0.00000  Uiso   1.00
O794   O     0.89441   0.12846   0.75001   0.00000  Uiso   1.00
O795   O     0.89441   0.20487   0.75001   0.00000  Uiso   1.00
O796   O     0.77226   0.12846   0.75000   0.00000  Uiso   1.00
O797   O     0.83333   0.20489   0.68393   0.00000  Uiso   1.00
O798   O     0.83334   0.12844   0.81608   0.00000  Uiso   1.00
O799   O     0.83334   0.20489   0.81608   0.00000  Uiso   1.00
O800   O     0.83333   0.12844   0.68393   0.00000  Uiso   1.00
Zn801  Zn    0.83333   0.21771   0.75000   0.00000  Uiso   1.00
Zn802  Zn    0.83333   0.11563   0.75000   0.00000  Uiso   1.00
C803   C     0.76412   0.21003   0.88164   0.00000  Uiso   1.00
H804   H     0.75364   0.19836   0.84919   0.00000  Uiso   1.00
O805   O     0.75114   0.24612   0.89570   0.00000  Uiso   1.00
C806   C     0.90427   0.12504   0.61691   0.00000  Uiso   1.00
H807   H     0.91683   0.09420   0.60267   0.00000  Uiso   1.00
O808   O     0.91849   0.13885   0.65210   0.00000  Uiso   1.00
C809   C     0.71543   0.18768   0.96199   0.00000  Uiso   1.00
O810   O     0.68911   0.21380   0.97638   0.00000  Uiso   1.00
O811   O     0.70459   0.15579   0.92961   0.00000  Uiso   1.00
H812   H     0.67437   0.15834   0.92014   0.00000  Uiso   1.00
C813   C     0.95146   0.14491   0.53677   0.00000  Uiso   1.00
O814   O     0.96226   0.17374   0.56360   0.00000  Uiso   1.00
O815   O     0.98044   0.11354   0.52079   0.00000  Uiso   1.00
H816   H     0.67571   0.11766   0.53453   0.00000  Uiso   1.00
C817   C     0.08664   0.49998   0.75017   0.00000  Uiso   1.00
C818   C     0.24669   0.50001   0.75065   0.00000  Uiso   1.00
C819   C     0.09548   0.52531   0.52665   0.00000  Uiso   1.00
C820   C     0.23759   0.47393   0.97304   0.00000  Uiso   1.00
C821   C     0.02129   0.46005   0.74041   0.00000  Uiso   1.00
C822   C     0.31204   0.53968   0.76203   0.00000  Uiso   1.00
C823   C     0.31198   0.46003   0.74069   0.00000  Uiso   1.00
C824   C     0.02139   0.53967   0.76186   0.00000  Uiso   1.00
C825   C     0.29084   0.49992   0.75121   0.00000  Uiso   1.00
C826   C     0.04250   0.49991   0.75081   0.00000  Uiso   1.00
C827   C     0.19379   0.35720   0.77631   0.00000  Uiso   1.00
C828   C     0.13954   0.64280   0.72369   0.00000  Uiso   1.00
C829   C     0.13954   0.35743   0.72369   0.00000  Uiso   1.00
C830   C     0.19379   0.64257   0.77632   0.00000  Uiso   1.00
C831   C     0.16776   0.50015   0.66353   0.00000  Uiso   1.00
C832   C     0.16552   0.49985   0.83642   0.00000  Uiso   1.00
C833   C     0.19798   0.48199   0.90605   0.00000  Uiso   1.00
C834   C     0.13510   0.51734   0.59379   0.00000  Uiso   1.00
C835   C     0.16352   0.49919   0.88409   0.00000  Uiso   1.00
C836   C     0.16989   0.50084   0.61578   0.00000  Uiso   1.00
C837   C     0.12905   0.51702   0.90718   0.00000  Uiso   1.00
C838   C     0.20479   0.48398   0.59252   0.00000  Uiso   1.00
C839   C     0.12798   0.51277   0.95436   0.00000  Uiso   1.00
C840   C     0.20548   0.48767   0.54534   0.00000  Uiso   1.00
C841   C     0.16533   0.49935   0.97654   0.00000  Uiso   1.00
C842   C     0.16799   0.50071   0.52323   0.00000  Uiso   1.00
C843   C     0.20015   0.48434   0.95197   0.00000  Uiso   1.00
C844   C     0.13301   0.51524   0.54781   0.00000  Uiso   1.00
C845   C     0.09171   0.52169   0.98038   0.00000  Uiso   1.00
C846   C     0.24159   0.47814   0.51913   0.00000  Uiso   1.00
H847   H     0.22442   0.46963   0.88689   0.00000  Uiso   1.00
H848   H     0.10844   0.52913   0.61295   0.00000  Uiso   1.00
H849   H     0.06817   0.53317   0.54668   0.00000  Uiso   1.00
H850   H     0.26472   0.46546   0.95297   0.00000  Uiso   1.00
H851   H     0.03753   0.42918   0.73163   0.00000  Uiso   1.00
H852   H     0.29574   0.57054   0.77072   0.00000  Uiso   1.00
H853   H     0.29570   0.42913   0.73209   0.00000  Uiso   1.00
H854   H     0.03774   0.57053   0.77049   0.00000  Uiso   1.00
H855   H     0.21547   0.37528   0.79736   0.00000  Uiso   1.00
H856   H     0.11786   0.62472   0.70264   0.00000  Uiso   1.00
H857   H     0.11785   0.37568   0.70265   0.00000  Uiso   1.00
H858   H     0.21548   0.62432   0.79736   0.00000  Uiso   1.00
N859   N     0.16667   0.61907   0.75000   0.00000  Uiso   1.00
N860   N     0.16667   0.38093   0.75000   0.00000  Uiso   1.00
O861   O     0.10559   0.53821   0.75000   0.00000  Uiso   1.00
O862   O     0.22774   0.46179   0.75001   0.00000  Uiso   1.00
O863   O     0.22774   0.53821   0.75001   0.00000  Uiso   1.00
O864   O     0.10559   0.46179   0.75000   0.00000  Uiso   1.00
O865   O     0.16666   0.53823   0.68393   0.00000  Uiso   1.00
O866   O     0.16667   0.46177   0.81608   0.00000  Uiso   1.00
O867   O     0.16667   0.53823   0.81608   0.00000  Uiso   1.00
O868   O     0.16666   0.46177   0.68393   0.00000  Uiso   1.00
Zn869  Zn    0.16667   0.55104   0.75000   0.00000  Uiso   1.00
Zn870  Zn    0.16667   0.44896   0.75000   0.00000  Uiso   1.00
C871   C     0.09745   0.54337   0.88164   0.00000  Uiso   1.00
H872   H     0.08697   0.53169   0.84919   0.00000  Uiso   1.00
O873   O     0.08447   0.57945   0.89570   0.00000  Uiso   1.00
C874   C     0.23761   0.45838   0.61691   0.00000  Uiso   1.00
H875   H     0.25017   0.42753   0.60267   0.00000  Uiso   1.00
O876   O     0.25182   0.47218   0.65210   0.00000  Uiso   1.00
C877   C     0.04876   0.52101   0.96199   0.00000  Uiso   1.00
O878   O     0.02244   0.54713   0.97638   0.00000  Uiso   1.00
O879   O     0.03792   0.48912   0.92961   0.00000  Uiso   1.00
H880   H     0.00770   0.49167   0.92014   0.00000  Uiso   1.00
C881   C     0.28480   0.47825   0.53677   0.00000  Uiso   1.00
O882   O     0.29560   0.50708   0.56360   0.00000  Uiso   1.00
O883   O     0.31377   0.44688   0.52079   0.00000  Uiso   1.00
H884   H     0.00904   0.45099   0.53453   0.00000  Uiso   1.00
C885   C     0.41997   0.49998   0.75017   0.00000  Uiso   1.00
C886   C     0.58002   0.50001   0.75065   0.00000  Uiso   1.00
C887   C     0.42881   0.52531   0.52665   0.00000  Uiso   1.00
C888   C     0.57093   0.47393   0.97304   0.00000  Uiso   1.00
C889   C     0.35463   0.46005   0.74041   0.00000  Uiso   1.00
C890   C     0.64537   0.53968   0.76203   0.00000  Uiso   1.00
C891   C     0.64532   0.46003   0.74069   0.00000  Uiso   1.00
C892   C     0.35472   0.53967   0.76186   0.00000  Uiso   1.00
C893   C     0.62418   0.49992   0.75121   0.00000  Uiso   1.00
C894   C     0.37584   0.49991   0.75081   0.00000  Uiso   1.00
C895   C     0.52712   0.35720   0.77631   0.00000  Uiso   1.00
C896   C     0.47287   0.64280   0.72369   0.00000  Uiso   1.00
C897   C     0.47287   0.35743   0.72369   0.00000  Uiso   1.00
C898   C     0.52712   0.64257   0.77632   0.00000  Uiso   1.00
C899   C     0.50109   0.50015   0.66353   0.00000  Uiso   1.00
C900   C     0.49885   0.49985   0.83642   0.00000  Uiso   1.00
C901   C     0.53131   0.48199   0.90605   0.00000  Uiso   1.00
C902   C     0.46843   0.51734   0.59379   0.00000  Uiso   1.00
C903   C     0.49685   0.49919   0.88409   0.00000  Uiso   1.00
C904   C     0.50322   0.50084   0.61578   0.00000  Uiso   1.00
C905   C     0.46239   0.51702   0.90718   0.00000  Uiso   1.00
C906   C     0.53812   0.48398   0.59252   0.00000  Uiso   1.00
C907   C     0.46131   0.51277   0.95436   0.00000  Uiso   1.00
C908   C     0.53882   0.48767   0.54534   0.00000  Uiso   1.00
C909   C     0.49866   0.49935   0.97654   0.00000  Uiso   1.00
C910   C     0.50132   0.50071   0.52323   0.00000  Uiso   1.00
C911   C     0.53348   0.48434   0.95197   0.00000  Uiso   1.00
C912   C     0.46634   0.51524   0.54781   0.00000  Uiso   1.00
C913   C     0.42505   0.52169   0.98038   0.00000  Uiso   1.00
C914   C     0.57493   0.47814   0.51913   0.00000  Uiso   1.00
H915   H     0.55775   0.46963   0.88689   0.00000  Uiso   1.00
H916   H     0.44177   0.52913   0.61295   0.00000  Uiso   1.00
H917   H     0.40151   0.53317   0.54668   0.00000  Uiso   1.00
H918   H     0.59806   0.46546   0.95297   0.00000  Uiso   1.00
H919   H     0.37086   0.42918   0.73163   0.00000  Uiso   1.00
H920   H     0.62908   0.57054   0.77072   0.00000  Uiso   1.00
H921   H     0.62903   0.42913   0.73209   0.00000  Uiso   1.00
H922   H     0.37107   0.57053   0.77049   0.00000  Uiso   1.00
H923   H     0.54881   0.37528   0.79736   0.00000  Uiso   1.00
H924   H     0.45119   0.62472   0.70264   0.00000  Uiso   1.00
H925   H     0.45119   0.37568   0.70265   0.00000  Uiso   1.00
H926   H     0.54881   0.62432   0.79736   0.00000  Uiso   1.00
N927   N     0.50000   0.61907   0.75000   0.00000  Uiso   1.00
N928   N     0.50000   0.38093   0.75000   0.00000  Uiso   1.00
O929   O     0.43892   0.53821   0.75000   0.00000  Uiso   1.00
O930   O     0.56108   0.46179   0.75001   0.00000  Uiso   1.00
O931   O     0.56108   0.53821   0.75001   0.00000  Uiso   1.00
O932   O     0.43892   0.46179   0.75000   0.00000  Uiso   1.00
O933   O     0.49999   0.53823   0.68393   0.00000  Uiso   1.00
O934   O     0.50001   0.46177   0.81608   0.00000  Uiso   1.00
O935   O     0.50001   0.53823   0.81608   0.00000  Uiso   1.00
O936   O     0.49999   0.46177   0.68393   0.00000  Uiso   1.00
Zn937  Zn    0.50000   0.55104   0.75000   0.00000  Uiso   1.00
Zn938  Zn    0.50000   0.44896   0.75000   0.00000  Uiso   1.00
C939   C     0.43078   0.54337   0.88164   0.00000  Uiso   1.00
H940   H     0.42030   0.53169   0.84919   0.00000  Uiso   1.00
O941   O     0.41780   0.57945   0.89570   0.00000  Uiso   1.00
C942   C     0.57094   0.45838   0.61691   0.00000  Uiso   1.00
H943   H     0.58350   0.42753   0.60267   0.00000  Uiso   1.00
O944   O     0.58515   0.47218   0.65210   0.00000  Uiso   1.00
C945   C     0.38210   0.52101   0.96199   0.00000  Uiso   1.00
O946   O     0.35577   0.54713   0.97638   0.00000  Uiso   1.00
O947   O     0.37126   0.48912   0.92961   0.00000  Uiso   1.00
H948   H     0.34103   0.49167   0.92014   0.00000  Uiso   1.00
C949   C     0.61813   0.47825   0.53677   0.00000  Uiso   1.00
O950   O     0.62893   0.50708   0.56360   0.00000  Uiso   1.00
O951   O     0.64711   0.44688   0.52079   0.00000  Uiso   1.00
H952   H     0.34237   0.45099   0.53453   0.00000  Uiso   1.00
C953   C     0.75331   0.49998   0.75017   0.00000  Uiso   1.00
C954   C     0.91336   0.50001   0.75065   0.00000  Uiso   1.00
C955   C     0.76214   0.52531   0.52665   0.00000  Uiso   1.00
C956   C     0.90426   0.47393   0.97304   0.00000  Uiso   1.00
C957   C     0.68796   0.46005   0.74041   0.00000  Uiso   1.00
C958   C     0.97870   0.53968   0.76203   0.00000  Uiso   1.00
C959   C     0.97865   0.46003   0.74069   0.00000  Uiso   1.00
C960   C     0.68806   0.53967   0.76186   0.00000  Uiso   1.00
C961   C     0.95751   0.49992   0.75121   0.00000  Uiso   1.00
C962   C     0.70917   0.49991   0.75081   0.00000  Uiso   1.00
C963   C     0.86046   0.35720   0.77631   0.00000  Uiso   1.00
C964   C     0.80621   0.64280   0.72369   0.00000  Uiso   1.00
C965   C     0.80621   0.35743   0.72369   0.00000  Uiso   1.00
C966   C     0.86046   0.64257   0.77632   0.00000  Uiso   1.00
C967   C     0.83443   0.50015   0.66353   0.00000  Uiso   1.00
C968   C     0.83218   0.49985   0.83642   0.00000  Uiso   1.00
C969   C     0.86464   0.48199   0.90605   0.00000  Uiso   1.00
C970   C     0.80177   0.51734   0.59379   0.00000  Uiso   1.00
C971   C     0.83018   0.49919   0.88409   0.00000  Uiso   1.00
C972   C     0.83655   0.50084   0.61578   0.00000  Uiso   1.00
C973   C     0.79572   0.51702   0.90718   0.00000  Uiso   1.00
C974   C     0.87146   0.48398   0.59252   0.00000  Uiso   1.00
C975   C     0.79465   0.51277   0.95436   0.00000  Uiso   1.00
C976   C     0.87215   0.48767   0.54534   0.00000  Uiso   1.00
C977   C     0.83200   0.49935   0.97654   0.00000  Uiso   1.00
C978   C     0.83465   0.50071   0.52323   0.00000  Uiso   1.00
C979   C     0.86681   0.48434   0.95197   0.00000  Uiso   1.00
C980   C     0.79968   0.51524   0.54781   0.00000  Uiso   1.00
C981   C     0.75838   0.52169   0.98038   0.00000  Uiso   1.00
C982   C     0.90826   0.47814   0.51913   0.00000  Uiso   1.00
H983   H     0.89109   0.46963   0.88689   0.00000  Uiso   1.00
H984   H     0.77510   0.52913   0.61295   0.00000  Uiso   1.00
H985   H     0.73484   0.53317   0.54668   0.00000  Uiso   1.00
H986   H     0.93139   0.46546   0.95297   0.00000  Uiso   1.00
H987   H     0.70420   0.42918   0.73163   0.00000  Uiso   1.00
H988   H     0.96241   0.57054   0.77072   0.00000  Uiso   1.00
H989   H     0.96236   0.42913   0.73209   0.00000  Uiso   1.00
H990   H     0.70441   0.57053   0.77049   0.00000  Uiso   1.00
H991   H     0.88214   0.37528   0.79736   0.00000  Uiso   1.00
H992   H     0.78453   0.62472   0.70264   0.00000  Uiso   1.00
H993   H     0.78452   0.37568   0.70265   0.00000  Uiso   1.00
H994   H     0.88214   0.62432   0.79736   0.00000  Uiso   1.00
N995   N     0.83333   0.61907   0.75000   0.00000  Uiso   1.00
N996   N     0.83333   0.38093   0.75000   0.00000  Uiso   1.00
O997   O     0.77226   0.53821   0.75000   0.00000  Uiso   1.00
O998   O     0.89441   0.46179   0.75001   0.00000  Uiso   1.00
O999   O     0.89441   0.53821   0.75001   0.00000  Uiso   1.00
O1000  O     0.77226   0.46179   0.75000   0.00000  Uiso   1.00
O1001  O     0.83333   0.53823   0.68393   0.00000  Uiso   1.00
O1002  O     0.83334   0.46177   0.81608   0.00000  Uiso   1.00
O1003  O     0.83334   0.53823   0.81608   0.00000  Uiso   1.00
O1004  O     0.83333   0.46177   0.68393   0.00000  Uiso   1.00
Zn1005 Zn    0.83333   0.55104   0.75000   0.00000  Uiso   1.00
Zn1006 Zn    0.83333   0.44896   0.75000   0.00000  Uiso   1.00
C1007  C     0.76412   0.54337   0.88164   0.00000  Uiso   1.00
H1008  H     0.75364   0.53169   0.84919   0.00000  Uiso   1.00
O1009  O     0.75114   0.57945   0.89570   0.00000  Uiso   1.00
C1010  C     0.90427   0.45838   0.61691   0.00000  Uiso   1.00
H1011  H     0.91683   0.42753   0.60267   0.00000  Uiso   1.00
O1012  O     0.91849   0.47218   0.65210   0.00000  Uiso   1.00
C1013  C     0.71543   0.52101   0.96199   0.00000  Uiso   1.00
O1014  O     0.68911   0.54713   0.97638   0.00000  Uiso   1.00
O1015  O     0.70459   0.48912   0.92961   0.00000  Uiso   1.00
H1016  H     0.67437   0.49167   0.92014   0.00000  Uiso   1.00
C1017  C     0.95146   0.47825   0.53677   0.00000  Uiso   1.00
O1018  O     0.96226   0.50708   0.56360   0.00000  Uiso   1.00
O1019  O     0.98044   0.44688   0.52079   0.00000  Uiso   1.00
H1020  H     0.67571   0.45099   0.53453   0.00000  Uiso   1.00
C1021  C     0.08664   0.83331   0.75017   0.00000  Uiso   1.00
C1022  C     0.24669   0.83334   0.75065   0.00000  Uiso   1.00
C1023  C     0.09548   0.85864   0.52665   0.00000  Uiso   1.00
C1024  C     0.23759   0.80726   0.97304   0.00000  Uiso   1.00
C1025  C     0.02129   0.79339   0.74041   0.00000  Uiso   1.00
C1026  C     0.31204   0.87301   0.76203   0.00000  Uiso   1.00
C1027  C     0.31198   0.79336   0.74069   0.00000  Uiso   1.00
C1028  C     0.02139   0.87301   0.76186   0.00000  Uiso   1.00
C1029  C     0.29084   0.83325   0.75121   0.00000  Uiso   1.00
C1030  C     0.04250   0.83325   0.75081   0.00000  Uiso   1.00
C1031  C     0.19379   0.69053   0.77631   0.00000  Uiso   1.00
C1032  C     0.13954   0.97613   0.72369   0.00000  Uiso   1.00
C1033  C     0.13954   0.69076   0.72369   0.00000  Uiso   1.00
C1034  C     0.19379   0.97591   0.77632   0.00000  Uiso   1.00
C1035  C     0.16776   0.83348   0.66353   0.00000  Uiso   1.00
C1036  C     0.16552   0.83318   0.83642   0.00000  Uiso   1.00
C1037  C     0.19798   0.81532   0.90605   0.00000  Uiso   1.00
C1038  C     0.13510   0.85067   0.59379   0.00000  Uiso   1.00
C1039  C     0.16352   0.83253   0.88409   0.00000  Uiso   1.00
C1040  C     0.16989   0.83418   0.61578   0.00000  Uiso   1.00
C1041  C     0.12905   0.85035   0.90718   0.00000  Uiso   1.00
C1042  C     0.20479   0.81731   0.59252   0.00000  Uiso   1.00
C1043  C     0.12798   0.84610   0.95436   0.00000  Uiso   1.00
C1044  C     0.20548   0.82100   0.54534   0.00000  Uiso   1.00
C1045  C     0.16533   0.83268   0.97654   0.00000  Uiso   1.00
C1046  C     0.16799   0.83405   0.52323   0.00000  Uiso   1.00
C1047  C     0.20015   0.81767   0.95197   0.00000  Uiso   1.00
C1048  C     0.13301   0.84857   0.54781   0.00000  Uiso   1.00
C1049  C     0.09171   0.85503   0.98038   0.00000  Uiso   1.00
C1050  C     0.24159   0.81147   0.51913   0.00000  Uiso   1.00
H1051  H     0.22442   0.80296   0.88689   0.00000  Uiso   1.00
H1052  H     0.10844   0.86246   0.61295   0.00000  Uiso   1.00
H1053  H     0.06817   0.86651   0.54668   0.00000  Uiso   1.00
H1054  H     0.26472   0.79880   0.95297   0.00000  Uiso   1.00
H1055  H     0.03753   0.76252   0.73163   0.00000  Uiso   1.00
H1056  H     0.29574   0.90387   0.77072   0.00000  Uiso   1.00
H1057  H     0.29570   0.76246   0.73209   0.00000  Uiso   1.00
H1058  H     0.03774   0.90386   0.77049   0.00000  Uiso   1.00
H1059  H     0.21547   0.70861   0.79736   0.00000  Uiso   1.00
H1060  H     0.11786   0.95806   0.70264   0.00000  Uiso   1.00
H1061  H     0.11785   0.70902   0.70265   0.00000  Uiso   1.00
H1062  H     0.21548   0.95765   0.79736   0.00000  Uiso   1.00
N1063  N     0.16667   0.95240   0.75000   0.00000  Uiso   1.00
N1064  N     0.16667   0.71427   0.75000   0.00000  Uiso   1.00
O1065  O     0.10559   0.87154   0.75000   0.00000  Uiso   1.00
O1066  O     0.22774   0.79513   0.75001   0.00000  Uiso   1.00
O1067  O     0.22774   0.87154   0.75001   0.00000  Uiso   1.00
O1068  O     0.10559   0.79513   0.75000   0.00000  Uiso   1.00
O1069  O     0.16666   0.87156   0.68393   0.00000  Uiso   1.00
O1070  O     0.16667   0.79511   0.81608   0.00000  Uiso   1.00
O1071  O     0.16667   0.87156   0.81608   0.00000  Uiso   1.00
O1072  O     0.16666   0.79511   0.68393   0.00000  Uiso   1.00
Zn1073 Zn    0.16667   0.88437   0.75000   0.00000  Uiso   1.00
Zn1074 Zn    0.16667   0.78229   0.75000   0.00000  Uiso   1.00
C1075  C     0.09745   0.87670   0.88164   0.00000  Uiso   1.00
H1076  H     0.08697   0.86503   0.84919   0.00000  Uiso   1.00
O1077  O     0.08447   0.91279   0.89570   0.00000  Uiso   1.00
C1078  C     0.23761   0.79171   0.61691   0.00000  Uiso   1.00
H1079  H     0.25017   0.76087   0.60267   0.00000  Uiso   1.00
O1080  O     0.25182   0.80551   0.65210   0.00000  Uiso   1.00
C1081  C     0.04876   0.85435   0.96199   0.00000  Uiso   1.00
O1082  O     0.02244   0.88047   0.97638   0.00000  Uiso   1.00
O1083  O     0.03792   0.82246   0.92961   0.00000  Uiso   1.00
H1084  H     0.00770   0.82501   0.92014   0.00000  Uiso   1.00
C1085  C     0.28480   0.81158   0.53677   0.00000  Uiso   1.00
O1086  O     0.29560   0.84041   0.56360   0.00000  Uiso   1.00
O1087  O     0.31377   0.78021   0.52079   0.00000  Uiso   1.00
H1088  H     0.00904   0.78433   0.53453   0.00000  Uiso   1.00
C1089  C     0.41997   0.83331   0.75017   0.00000  Uiso   1.00
C1090  C     0.58002   0.83334   0.75065   0.00000  Uiso   1.00
C1091  C     0.42881   0.85864   0.52665   0.00000  Uiso   1.00
C1092  C     0.57093   0.80726   0.97304   0.00000  Uiso   1.00
C1093  C     0.35463   0.79339   0.74041   0.00000  Uiso   1.00
C1094  C     0.64537   0.87301   0.76203   0.00000  Uiso   1.00
C1095  C     0.64532   0.79336   0.74069   0.00000  Uiso   1.00
C1096  C     0.35472   0.87301   0.76186   0.00000  Uiso   1.00
C1097  C     0.62418   0.83325   0.75121   0.00000  Uiso   1.00
C1098  C     0.37584   0.83325   0.75081   0.00000  Uiso   1.00
C1099  C     0.52712   0.69053   0.77631   0.00000  Uiso   1.00
C1100  C     0.47287   0.97613   0.72369   0.00000  Uiso   1.00
C1101  C     0.47287   0.69076   0.72369   0.00000  Uiso   1.00
C1102  C     0.52712   0.97591   0.77632   0.00000  Uiso   1.00
C1103  C     0.50109   0.83348   0.66353   0.00000  Uiso   1.00
C1104  C     0.49885   0.83318   0.83642   0.00000  Uiso   1.00
C1105  C     0.53131   0.81532   0.90605   0.00000  Uiso   1.00
C1106  C     0.46843   0.85067   0.59379   0.00000  Uiso   1.00
C1107  C     0.49685   0.83253   0.88409   0.00000  Uiso   1.00
C1108  C     0.50322   0.83418   0.61578   0.00000  Uiso   1.00
C1109  C     0.46239   0.85035   0.90718   0.00000  Uiso   1.00
C1110  C     0.53812   0.81731   0.59252   0.00000  Uiso   1.00
C1111  C     0.46131   0.84610   0.95436   0.00000  Uiso   1.00
C1112  C     0.53882   0.82100   0.54534   0.00000  Uiso   1.00
C1113  C     0.49866   0.83268   0.97654   0.00000  Uiso   1.00
C1114  C     0.50132   0.83405   0.52323   0.00000  Uiso   1.00
C1115  C     0.53348   0.81767   0.95197   0.00000  Uiso   1.00
C1116  C     0.46634   0.84857   0.54781   0.00000  Uiso   1.00
C1117  C     0.42505   0.85503   0.98038   0.00000  Uiso   1.00
C1118  C     0.57493   0.81147   0.51913   0.00000  Uiso   1.00
H1119  H     0.55775   0.80296   0.88689   0.00000  Uiso   1.00
H1120  H     0.44177   0.86246   0.61295   0.00000  Uiso   1.00
H1121  H     0.40151   0.86651   0.54668   0.00000  Uiso   1.00
H1122  H     0.59806   0.79880   0.95297   0.00000  Uiso   1.00
H1123  H     0.37086   0.76252   0.73163   0.00000  Uiso   1.00
H1124  H     0.62908   0.90387   0.77072   0.00000  Uiso   1.00
H1125  H     0.62903   0.76246   0.73209   0.00000  Uiso   1.00
H1126  H     0.37107   0.90386   0.77049   0.00000  Uiso   1.00
H1127  H     0.54881   0.70861   0.79736   0.00000  Uiso   1.00
H1128  H     0.45119   0.95806   0.70264   0.00000  Uiso   1.00
H1129  H     0.45119   0.70902   0.70265   0.00000  Uiso   1.00
H1130  H     0.54881   0.95765   0.79736   0.00000  Uiso   1.00
N1131  N     0.50000   0.95240   0.75000   0.00000  Uiso   1.00
N1132  N     0.50000   0.71427   0.75000   0.00000  Uiso   1.00
O1133  O     0.43892   0.87154   0.75000   0.00000  Uiso   1.00
O1134  O     0.56108   0.79513   0.75001   0.00000  Uiso   1.00
O1135  O     0.56108   0.87154   0.75001   0.00000  Uiso   1.00
O1136  O     0.43892   0.79513   0.75000   0.00000  Uiso   1.00
O1137  O     0.49999   0.87156   0.68393   0.00000  Uiso   1.00
O1138  O     0.50001   0.79511   0.81608   0.00000  Uiso   1.00
O1139  O     0.50001   0.87156   0.81608   0.00000  Uiso   1.00
O1140  O     0.49999   0.79511   0.68393   0.00000  Uiso   1.00
Zn1141 Zn    0.50000   0.88437   0.75000   0.00000  Uiso   1.00
Zn1142 Zn    0.50000   0.78229   0.75000   0.00000  Uiso   1.00
C1143  C     0.43078   0.87670   0.88164   0.00000  Uiso   1.00
H1144  H     0.42030   0.86503   0.84919   0.00000  Uiso   1.00
O1145  O     0.41780   0.91279   0.89570   0.00000  Uiso   1.00
C1146  C     0.57094   0.79171   0.61691   0.00000  Uiso   1.00
H1147  H     0.58350   0.76087   0.60267   0.00000  Uiso   1.00
O1148  O     0.58515   0.80551   0.65210   0.00000  Uiso   1.00
C1149  C     0.38210   0.85435   0.96199   0.00000  Uiso   1.00
O1150  O     0.35577   0.88047   0.97638   0.00000  Uiso   1.00
O1151  O     0.37126   0.82246   0.92961   0.00000  Uiso   1.00
H1152  H     0.34103   0.82501   0.92014   0.00000  Uiso   1.00
C1153  C     0.61813   0.81158   0.53677   0.00000  Uiso   1.00
O1154  O     0.62893   0.84041   0.56360   0.00000  Uiso   1.00
O1155  O     0.64711   0.78021   0.52079   0.00000  Uiso   1.00
H1156  H     0.34237   0.78433   0.53453   0.00000  Uiso   1.00
C1157  C     0.75331   0.83331   0.75017   0.00000  Uiso   1.00
C1158  C     0.91336   0.83334   0.75065   0.00000  Uiso   1.00
C1159  C     0.76214   0.85864   0.52665   0.00000  Uiso   1.00
C1160  C     0.90426   0.80726   0.97304   0.00000  Uiso   1.00
C1161  C     0.68796   0.79339   0.74041   0.00000  Uiso   1.00
C1162  C     0.97870   0.87301   0.76203   0.00000  Uiso   1.00
C1163  C     0.97865   0.79336   0.74069   0.00000  Uiso   1.00
C1164  C     0.68806   0.87301   0.76186   0.00000  Uiso   1.00
C1165  C     0.95751   0.83325   0.75121   0.00000  Uiso   1.00
C1166  C     0.70917   0.83325   0.75081   0.00000  Uiso   1.00
C1167  C     0.86046   0.69053   0.77631   0.00000  Uiso   1.00
C1168  C     0.80621   0.97613   0.72369   0.00000  Uiso   1.00
C1169  C     0.80621   0.69076   0.72369   0.00000  Uiso   1.00
C1170  C     0.86046   0.97591   0.77632   0.00000  Uiso   1.00
C1171  C     0.83443   0.83348   0.66353   0.00000  Uiso   1.00
C1172  C     0.83218   0.83318   0.83642   0.00000  Uiso   1.00
C1173  C     0.86464   0.81532   0.90605   0.00000  Uiso   1.00
C1174  C     0.80177   0.85067   0.59379   0.00000  Uiso   1.00
C1175  C     0.83018   0.83253   0.88409   0.00000  Uiso   1.00
C1176  C     0.83655   0.83418   0.61578   0.00000  Uiso   1.00
C1177  C     0.79572   0.85035   0.90718   0.00000  Uiso   1.00
C1178  C     0.87146   0.81731   0.59252   0.00000  Uiso   1.00
C1179  C     0.79465   0.84610   0.95436   0.00000  Uiso   1.00
C1180  C     0.87215   0.82100   0.54534   0.00000  Uiso   1.00
C1181  C     0.83200   0.83268   0.97654   0.00000  Uiso   1.00
C1182  C     0.83465   0.83405   0.52323   0.00000  Uiso   1.00
C1183  C     0.86681   0.81767   0.95197   0.00000  Uiso   1.00
C1184  C     0.79968   0.84857   0.54781   0.00000  Uiso   1.00
C1185  C     0.75838   0.85503   0.98038   0.00000  Uiso   1.00
C1186  C     0.90826   0.81147   0.51913   0.00000  Uiso   1.00
H1187  H     0.89109   0.80296   0.88689   0.00000  Uiso   1.00
H1188  H     0.77510   0.86246   0.61295   0.00000  Uiso   1.00
H1189  H     0.73484   0.86651   0.54668   0.00000  Uiso   1.00
H1190  H     0.93139   0.79880   0.95297   0.00000  Uiso   1.00
H1191  H     0.70420   0.76252   0.73163   0.00000  Uiso   1.00
H1192  H     0.96241   0.90387   0.77072   0.00000  Uiso   1.00
H1193  H     0.96236   0.76246   0.73209   0.00000  Uiso   1.00
H1194  H     0.70441   0.90386   0.77049   0.00000  Uiso   1.00
H1195  H     0.88214   0.70861   0.79736   0.00000  Uiso   1.00
H1196  H     0.78453   0.95806   0.70264   0.00000  Uiso   1.00
H1197  H     0.78452   0.70902   0.70265   0.00000  Uiso   1.00
H1198  H     0.88214   0.95765   0.79736   0.00000  Uiso   1.00
N1199  N     0.83333   0.95240   0.75000   0.00000  Uiso   1.00
N1200  N     0.83333   0.71427   0.75000   0.00000  Uiso   1.00
O1201  O     0.77226   0.87154   0.75000   0.00000  Uiso   1.00
O1202  O     0.89441   0.79513   0.75001   0.00000  Uiso   1.00
O1203  O     0.89441   0.87154   0.75001   0.00000  Uiso   1.00
O1204  O     0.77226   0.79513   0.75000   0.00000  Uiso   1.00
O1205  O     0.83333   0.87156   0.68393   0.00000  Uiso   1.00
O1206  O     0.83334   0.79511   0.81608   0.00000  Uiso   1.00
O1207  O     0.83334   0.87156   0.81608   0.00000  Uiso   1.00
O1208  O     0.83333   0.79511   0.68393   0.00000  Uiso   1.00
Zn1209 Zn    0.83333   0.88437   0.75000   0.00000  Uiso   1.00
Zn1210 Zn    0.83333   0.78229   0.75000   0.00000  Uiso   1.00
C1211  C     0.76412   0.87670   0.88164   0.00000  Uiso   1.00
H1212  H     0.75364   0.86503   0.84919   0.00000  Uiso   1.00
O1213  O     0.75114   0.91279   0.89570   0.00000  Uiso   1.00
C1214  C     0.90427   0.79171   0.61691   0.00000  Uiso   1.00
H1215  H     0.91683   0.76087   0.60267   0.00000  Uiso   1.00
O1216  O     0.91849   0.80551   0.65210   0.00000  Uiso   1.00
C1217  C     0.71543   0.85435   0.96199   0.00000  Uiso   1.00
O1218  O     0.68911   0.88047   0.97638   0.00000  Uiso   1.00
O1219  O     0.70459   0.82246   0.92961   0.00000  Uiso   1.00
H1220  H     0.67437   0.82501   0.92014   0.00000  Uiso   1.00
C1221  C     0.95146   0.81158   0.53677   0.00000  Uiso   1.00
O1222  O     0.96226   0.84041   0.56360   0.00000  Uiso   1.00
O1223  O     0.98044   0.78021   0.52079   0.00000  Uiso   1.00
H1224  H     0.67571   0.78433   0.53453   0.00000  Uiso   1.00
loop_
_geom_bond_atom_site_label_1
_geom_bond_atom_site_label_2
_geom_bond_distance
_geom_bond_site_symmetry_2
_ccdc_geom_bond_type
C1     O48     1.282   .     A
C1     O45     1.282   .     A
C1     C10     1.416   .     S
C2     O47     1.282   .     A
C2     O46     1.282   .     A
C2     C9      1.417   .     S
C3     C28     1.394   .     A
C3     H33     1.086   .     S
C3     C641    1.393   1_554 S
C4     H34     1.086   .     S
C4     C27     1.392   .     A
C4     C642    1.390   .     S
C5     H35     1.084   .     S
C5     C10     1.396   .     A
C5     C143    1.368   1_455 S
C6     C9      1.396   .     A
C6     H36     1.084   .     S
C6     C76     1.370   .     S
C7     C9      1.397   .     A
C7     H37     1.084   .     S
C7     C73     1.368   .     S
C8     H38     1.084   .     S
C8     C10     1.397   .     A
C8     C142    1.370   1_455 S
C11    N44     1.366   .     A
C11    H39     1.082   .     S
C11    C422    1.416   1_545 S
C12    H40     1.082   .     S
C12    N43     1.366   .     A
C12    C217    1.416   .     S
C13    H41     1.082   .     S
C13    N44     1.366   .     A
C13    C420    1.416   1_545 S
C14    H42     1.082   .     S
C14    N43     1.366   .     A
C14    C215    1.416   .     S
C15    O52     1.284   .     A
C15    O49     1.283   .     A
C15    C20     1.428   .     S
C16    O51     1.283   .     A
C16    C19     1.426   .     S
C16    O50     1.282   .     A
C17    C19     1.384   .     A
C17    H31     1.087   .     S
C17    C27     1.376   .     A
C18    H32     1.087   .     S
C18    C28     1.378   .     A
C18    C20     1.385   .     A
C19    C21     1.406   .     A
C20    C22     1.409   .     A
C21    C23     1.415   .     A
C21    C55     1.489   .     S
C22    C58     1.488   .     S
C22    C24     1.414   .     A
C23    C25     1.427   .     A
C23    C29     1.423   .     A
C24    C26     1.427   .     A
C24    C30     1.426   .     A
C25    C27     1.408   .     A
C25    C638    1.399   .     S
C26    C28     1.408   .     A
C26    C637    1.399   1_554 S
C29    C61     1.486   .     S
C29    C615    1.393   .     S
C30    C65     1.485   .     S
C30    C616    1.390   1_554 S
N43    Zn53    2.009   .     S
N44    Zn54    2.009   .     S
O45    Zn53    1.996   .     S
O46    Zn54    1.996   .     S
O47    Zn53    1.997   .     S
O48    Zn54    1.997   .     S
O49    Zn53    2.012   .     S
O50    Zn54    2.012   .     S
O51    Zn53    2.008   .     S
O52    Zn54    2.008   .     S
C55    H56     1.085   .     S
C55    O57     1.221   .     D
C58    H59     1.085   .     S
C58    O60     1.219   .     D
C61    O62     1.223   .     D
C61    O63     1.399   .     S
O63    H64     1.014   .     S
C65    O66     1.223   .     D
C65    O67     1.398   .     S
O67    H136    1.014   .     S
H68    O203    1.014   1_455 S
C69    O116    1.282   .     A
C69    O113    1.282   .     A
C69    C78     1.416   .     S
C70    O115    1.282   .     A
C70    O114    1.282   .     A
C70    C77     1.417   .     S
C71    C96     1.394   .     A
C71    H101    1.086   .     S
C71    C709    1.393   1_554 S
C72    H102    1.086   .     S
C72    C95     1.392   .     A
C72    C710    1.390   .     S
C73    H103    1.084   .     S
C73    C78     1.396   .     A
C74    C77     1.396   .     A
C74    H104    1.084   .     S
C74    C144    1.370   .     S
C75    C77     1.397   .     A
C75    H105    1.084   .     S
C75    C141    1.368   .     S
C76    H106    1.084   .     S
C76    C78     1.397   .     A
C79    N112    1.366   .     A
C79    H107    1.082   .     S
C79    C490    1.416   1_545 S
C80    H108    1.082   .     S
C80    N111    1.366   .     A
C80    C285    1.416   .     S
C81    H109    1.082   .     S
C81    N112    1.366   .     A
C81    C488    1.416   1_545 S
C82    H110    1.082   .     S
C82    N111    1.366   .     A
C82    C283    1.416   .     S
C83    O120    1.284   .     A
C83    O117    1.283   .     A
C83    C88     1.428   .     S
C84    O119    1.283   .     A
C84    C87     1.426   .     S
C84    O118    1.282   .     A
C85    C87     1.384   .     A
C85    H99     1.087   .     S
C85    C95     1.376   .     A
C86    H100    1.087   .     S
C86    C96     1.378   .     A
C86    C88     1.385   .     A
C87    C89     1.406   .     A
C88    C90     1.409   .     A
C89    C91     1.415   .     A
C89    C123    1.489   .     S
C90    C126    1.488   .     S
C90    C92     1.414   .     A
C91    C93     1.427   .     A
C91    C97     1.423   .     A
C92    C94     1.427   .     A
C92    C98     1.426   .     A
C93    C95     1.408   .     A
C93    C706    1.399   .     S
C94    C96     1.408   .     A
C94    C705    1.399   1_554 S
C97    C129    1.486   .     S
C97    C683    1.393   .     S
C98    C133    1.485   .     S
C98    C684    1.390   1_554 S
N111   Zn121   2.009   .     S
N112   Zn122   2.009   .     S
O113   Zn121   1.996   .     S
O114   Zn122   1.996   .     S
O115   Zn121   1.997   .     S
O116   Zn122   1.997   .     S
O117   Zn121   2.012   .     S
O118   Zn122   2.012   .     S
O119   Zn121   2.008   .     S
O120   Zn122   2.008   .     S
C123   H124    1.085   .     S
C123   O125    1.221   .     D
C126   H127    1.085   .     S
C126   O128    1.219   .     D
C129   O130    1.223   .     D
C129   O131    1.399   .     S
O131   H132    1.014   .     S
C133   O134    1.223   .     D
C133   O135    1.398   .     S
O135   H204    1.014   .     S
C137   O184    1.282   .     A
C137   O181    1.282   .     A
C137   C146    1.416   .     S
C138   O183    1.282   .     A
C138   O182    1.282   .     A
C138   C145    1.417   .     S
C139   C164    1.394   .     A
C139   H169    1.086   .     S
C139   C777    1.393   1_554 S
C140   H170    1.086   .     S
C140   C163    1.392   .     A
C140   C778    1.390   .     S
C141   H171    1.084   .     S
C141   C146    1.396   .     A
C142   C145    1.396   .     A
C142   H172    1.084   .     S
C142   C8      1.370   1_655 S
C143   C145    1.397   .     A
C143   H173    1.084   .     S
C143   C5      1.368   1_655 S
C144   H174    1.084   .     S
C144   C146    1.397   .     A
C147   N180    1.366   .     A
C147   H175    1.082   .     S
C147   C558    1.416   1_545 S
C148   H176    1.082   .     S
C148   N179    1.366   .     A
C148   C353    1.416   .     S
C149   H177    1.082   .     S
C149   N180    1.366   .     A
C149   C556    1.416   1_545 S
C150   H178    1.082   .     S
C150   N179    1.366   .     A
C150   C351    1.416   .     S
C151   O188    1.284   .     A
C151   O185    1.283   .     A
C151   C156    1.428   .     S
C152   O187    1.283   .     A
C152   C155    1.426   .     S
C152   O186    1.282   .     A
C153   C155    1.384   .     A
C153   H167    1.087   .     S
C153   C163    1.376   .     A
C154   H168    1.087   .     S
C154   C164    1.378   .     A
C154   C156    1.385   .     A
C155   C157    1.406   .     A
C156   C158    1.409   .     A
C157   C159    1.415   .     A
C157   C191    1.489   .     S
C158   C194    1.488   .     S
C158   C160    1.414   .     A
C159   C161    1.427   .     A
C159   C165    1.423   .     A
C160   C162    1.427   .     A
C160   C166    1.426   .     A
C161   C163    1.408   .     A
C161   C774    1.399   .     S
C162   C164    1.408   .     A
C162   C773    1.399   1_554 S
C165   C197    1.486   .     S
C165   C751    1.393   .     S
C166   C201    1.485   .     S
C166   C752    1.390   1_554 S
N179   Zn189   2.009   .     S
N180   Zn190   2.009   .     S
O181   Zn189   1.996   .     S
O182   Zn190   1.996   .     S
O183   Zn189   1.997   .     S
O184   Zn190   1.997   .     S
O185   Zn189   2.012   .     S
O186   Zn190   2.012   .     S
O187   Zn189   2.008   .     S
O188   Zn190   2.008   .     S
C191   H192    1.085   .     S
C191   O193    1.221   .     D
C194   H195    1.085   .     S
C194   O196    1.219   .     D
C197   O198    1.223   .     D
C197   O199    1.399   .     S
O199   H200    1.014   .     S
C201   O202    1.223   .     D
C201   O203    1.398   .     S
O203   H68     1.014   1_655 S
C205   O252    1.282   .     A
C205   O249    1.282   .     A
C205   C214    1.416   .     S
C206   O251    1.282   .     A
C206   O250    1.282   .     A
C206   C213    1.417   .     S
C207   C232    1.394   .     A
C207   H237    1.086   .     S
C207   C845    1.393   1_554 S
C208   H238    1.086   .     S
C208   C231    1.392   .     A
C208   C846    1.390   .     S
C209   H239    1.084   .     S
C209   C214    1.396   .     A
C209   C347    1.368   1_455 S
C210   C213    1.396   .     A
C210   H240    1.084   .     S
C210   C280    1.370   .     S
C211   C213    1.397   .     A
C211   H241    1.084   .     S
C211   C277    1.368   .     S
C212   H242    1.084   .     S
C212   C214    1.397   .     A
C212   C346    1.370   1_455 S
C215   N248    1.366   .     A
C215   H243    1.082   .     S
C216   H244    1.082   .     S
C216   N247    1.366   .     A
C216   C421    1.416   .     S
C217   H245    1.082   .     S
C217   N248    1.366   .     A
C218   H246    1.082   .     S
C218   N247    1.366   .     A
C218   C419    1.416   .     S
C219   O256    1.284   .     A
C219   O253    1.283   .     A
C219   C224    1.428   .     S
C220   O255    1.283   .     A
C220   C223    1.426   .     S
C220   O254    1.282   .     A
C221   C223    1.384   .     A
C221   H235    1.087   .     S
C221   C231    1.376   .     A
C222   H236    1.087   .     S
C222   C232    1.378   .     A
C222   C224    1.385   .     A
C223   C225    1.406   .     A
C224   C226    1.409   .     A
C225   C227    1.415   .     A
C225   C259    1.489   .     S
C226   C262    1.488   .     S
C226   C228    1.414   .     A
C227   C229    1.427   .     A
C227   C233    1.423   .     A
C228   C230    1.427   .     A
C228   C234    1.426   .     A
C229   C231    1.408   .     A
C229   C842    1.399   .     S
C230   C232    1.408   .     A
C230   C841    1.399   1_554 S
C233   C265    1.486   .     S
C233   C819    1.393   .     S
C234   C269    1.485   .     S
C234   C820    1.390   1_554 S
N247   Zn257   2.009   .     S
N248   Zn258   2.009   .     S
O249   Zn257   1.996   .     S
O250   Zn258   1.996   .     S
O251   Zn257   1.997   .     S
O252   Zn258   1.997   .     S
O253   Zn257   2.012   .     S
O254   Zn258   2.012   .     S
O255   Zn257   2.008   .     S
O256   Zn258   2.008   .     S
C259   H260    1.085   .     S
C259   O261    1.221   .     D
C262   H263    1.085   .     S
C262   O264    1.219   .     D
C265   O266    1.223   .     D
C265   O267    1.399   .     S
O267   H268    1.014   .     S
C269   O270    1.223   .     D
C269   O271    1.398   .     S
O271   H340    1.014   .     S
H272   O407    1.014   1_455 S
C273   O320    1.282   .     A
C273   O317    1.282   .     A
C273   C282    1.416   .     S
C274   O319    1.282   .     A
C274   O318    1.282   .     A
C274   C281    1.417   .     S
C275   C300    1.394   .     A
C275   H305    1.086   .     S
C275   C913    1.393   1_554 S
C276   H306    1.086   .     S
C276   C299    1.392   .     A
C276   C914    1.390   .     S
C277   H307    1.084   .     S
C277   C282    1.396   .     A
C278   C281    1.396   .     A
C278   H308    1.084   .     S
C278   C348    1.370   .     S
C279   C281    1.397   .     A
C279   H309    1.084   .     S
C279   C345    1.368   .     S
C280   H310    1.084   .     S
C280   C282    1.397   .     A
C283   N316    1.366   .     A
C283   H311    1.082   .     S
C284   H312    1.082   .     S
C284   N315    1.366   .     A
C284   C489    1.416   .     S
C285   H313    1.082   .     S
C285   N316    1.366   .     A
C286   H314    1.082   .     S
C286   N315    1.366   .     A
C286   C487    1.416   .     S
C287   O324    1.284   .     A
C287   O321    1.283   .     A
C287   C292    1.428   .     S
C288   O323    1.283   .     A
C288   C291    1.426   .     S
C288   O322    1.282   .     A
C289   C291    1.384   .     A
C289   H303    1.087   .     S
C289   C299    1.376   .     A
C290   H304    1.087   .     S
C290   C300    1.378   .     A
C290   C292    1.385   .     A
C291   C293    1.406   .     A
C292   C294    1.409   .     A
C293   C295    1.415   .     A
C293   C327    1.489   .     S
C294   C330    1.488   .     S
C294   C296    1.414   .     A
C295   C297    1.427   .     A
C295   C301    1.423   .     A
C296   C298    1.427   .     A
C296   C302    1.426   .     A
C297   C299    1.408   .     A
C297   C910    1.399   .     S
C298   C300    1.408   .     A
C298   C909    1.399   1_554 S
C301   C333    1.486   .     S
C301   C887    1.393   .     S
C302   C337    1.485   .     S
C302   C888    1.390   1_554 S
N315   Zn325   2.009   .     S
N316   Zn326   2.009   .     S
O317   Zn325   1.996   .     S
O318   Zn326   1.996   .     S
O319   Zn325   1.997   .     S
O320   Zn326   1.997   .     S
O321   Zn325   2.012   .     S
O322   Zn326   2.012   .     S
O323   Zn325   2.008   .     S
O324   Zn326   2.008   .     S
C327   H328    1.085   .     S
C327   O329    1.221   .     D
C330   H331    1.085   .     S
C330   O332    1.219   .     D
C333   O334    1.223   .     D
C333   O335    1.399   .     S
O335   H336    1.014   .     S
C337   O338    1.223   .     D
C337   O339    1.398   .     S
O339   H408    1.014   .     S
C341   O388    1.282   .     A
C341   O385    1.282   .     A
C341   C350    1.416   .     S
C342   O387    1.282   .     A
C342   O386    1.282   .     A
C342   C349    1.417   .     S
C343   C368    1.394   .     A
C343   H373    1.086   .     S
C343   C981    1.393   1_554 S
C344   H374    1.086   .     S
C344   C367    1.392   .     A
C344   C982    1.390   .     S
C345   H375    1.084   .     S
C345   C350    1.396   .     A
C346   C349    1.396   .     A
C346   H376    1.084   .     S
C346   C212    1.370   1_655 S
C347   C349    1.397   .     A
C347   H377    1.084   .     S
C347   C209    1.368   1_655 S
C348   H378    1.084   .     S
C348   C350    1.397   .     A
C351   N384    1.366   .     A
C351   H379    1.082   .     S
C352   H380    1.082   .     S
C352   N383    1.366   .     A
C352   C557    1.416   .     S
C353   H381    1.082   .     S
C353   N384    1.366   .     A
C354   H382    1.082   .     S
C354   N383    1.366   .     A
C354   C555    1.416   .     S
C355   O392    1.284   .     A
C355   O389    1.283   .     A
C355   C360    1.428   .     S
C356   O391    1.283   .     A
C356   C359    1.426   .     S
C356   O390    1.282   .     A
C357   C359    1.384   .     A
C357   H371    1.087   .     S
C357   C367    1.376   .     A
C358   H372    1.087   .     S
C358   C368    1.378   .     A
C358   C360    1.385   .     A
C359   C361    1.406   .     A
C360   C362    1.409   .     A
C361   C363    1.415   .     A
C361   C395    1.489   .     S
C362   C398    1.488   .     S
C362   C364    1.414   .     A
C363   C365    1.427   .     A
C363   C369    1.423   .     A
C364   C366    1.427   .     A
C364   C370    1.426   .     A
C365   C367    1.408   .     A
C365   C978    1.399   .     S
C366   C368    1.408   .     A
C366   C977    1.399   1_554 S
C369   C401    1.486   .     S
C369   C955    1.393   .     S
C370   C405    1.485   .     S
C370   C956    1.390   1_554 S
N383   Zn393   2.009   .     S
N384   Zn394   2.009   .     S
O385   Zn393   1.996   .     S
O386   Zn394   1.996   .     S
O387   Zn393   1.997   .     S
O388   Zn394   1.997   .     S
O389   Zn393   2.012   .     S
O390   Zn394   2.012   .     S
O391   Zn393   2.008   .     S
O392   Zn394   2.008   .     S
C395   H396    1.085   .     S
C395   O397    1.221   .     D
C398   H399    1.085   .     S
C398   O400    1.219   .     D
C401   O402    1.223   .     D
C401   O403    1.399   .     S
O403   H404    1.014   .     S
C405   O406    1.223   .     D
C405   O407    1.398   .     S
O407   H272    1.014   1_655 S
C409   O456    1.282   .     A
C409   O453    1.282   .     A
C409   C418    1.416   .     S
C410   O455    1.282   .     A
C410   O454    1.282   .     A
C410   C417    1.417   .     S
C411   C436    1.394   .     A
C411   H441    1.086   .     S
C411   C1049   1.393   1_554 S
C412   H442    1.086   .     S
C412   C435    1.392   .     A
C412   C1050   1.390   .     S
C413   H443    1.084   .     S
C413   C418    1.396   .     A
C413   C551    1.368   1_455 S
C414   C417    1.396   .     A
C414   H444    1.084   .     S
C414   C484    1.370   .     S
C415   C417    1.397   .     A
C415   H445    1.084   .     S
C415   C481    1.368   .     S
C416   H446    1.084   .     S
C416   C418    1.397   .     A
C416   C550    1.370   1_455 S
C419   N452    1.366   .     A
C419   H447    1.082   .     S
C420   H448    1.082   .     S
C420   N451    1.366   .     A
C420   C13     1.416   1_565 S
C421   H449    1.082   .     S
C421   N452    1.366   .     A
C422   H450    1.082   .     S
C422   N451    1.366   .     A
C422   C11     1.416   1_565 S
C423   O460    1.284   .     A
C423   O457    1.283   .     A
C423   C428    1.428   .     S
C424   O459    1.283   .     A
C424   C427    1.426   .     S
C424   O458    1.282   .     A
C425   C427    1.384   .     A
C425   H439    1.087   .     S
C425   C435    1.376   .     A
C426   H440    1.087   .     S
C426   C436    1.378   .     A
C426   C428    1.385   .     A
C427   C429    1.406   .     A
C428   C430    1.409   .     A
C429   C431    1.415   .     A
C429   C463    1.489   .     S
C430   C466    1.488   .     S
C430   C432    1.414   .     A
C431   C433    1.427   .     A
C431   C437    1.423   .     A
C432   C434    1.427   .     A
C432   C438    1.426   .     A
C433   C435    1.408   .     A
C433   C1046   1.399   .     S
C434   C436    1.408   .     A
C434   C1045   1.399   1_554 S
C437   C469    1.486   .     S
C437   C1023   1.393   .     S
C438   C473    1.485   .     S
C438   C1024   1.390   1_554 S
N451   Zn461   2.009   .     S
N452   Zn462   2.009   .     S
O453   Zn461   1.996   .     S
O454   Zn462   1.996   .     S
O455   Zn461   1.997   .     S
O456   Zn462   1.997   .     S
O457   Zn461   2.012   .     S
O458   Zn462   2.012   .     S
O459   Zn461   2.008   .     S
O460   Zn462   2.008   .     S
C463   H464    1.085   .     S
C463   O465    1.221   .     D
C466   H467    1.085   .     S
C466   O468    1.219   .     D
C469   O470    1.223   .     D
C469   O471    1.399   .     S
O471   H472    1.014   .     S
C473   O474    1.223   .     D
C473   O475    1.398   .     S
O475   H544    1.014   .     S
H476   O611    1.014   1_455 S
C477   O524    1.282   .     A
C477   O521    1.282   .     A
C477   C486    1.416   .     S
C478   O523    1.282   .     A
C478   O522    1.282   .     A
C478   C485    1.417   .     S
C479   C504    1.394   .     A
C479   H509    1.086   .     S
C479   C1117   1.393   1_554 S
C480   H510    1.086   .     S
C480   C503    1.392   .     A
C480   C1118   1.390   .     S
C481   H511    1.084   .     S
C481   C486    1.396   .     A
C482   C485    1.396   .     A
C482   H512    1.084   .     S
C482   C552    1.370   .     S
C483   C485    1.397   .     A
C483   H513    1.084   .     S
C483   C549    1.368   .     S
C484   H514    1.084   .     S
C484   C486    1.397   .     A
C487   N520    1.366   .     A
C487   H515    1.082   .     S
C488   H516    1.082   .     S
C488   N519    1.366   .     A
C488   C81     1.416   1_565 S
C489   H517    1.082   .     S
C489   N520    1.366   .     A
C490   H518    1.082   .     S
C490   N519    1.366   .     A
C490   C79     1.416   1_565 S
C491   O528    1.284   .     A
C491   O525    1.283   .     A
C491   C496    1.428   .     S
C492   O527    1.283   .     A
C492   C495    1.426   .     S
C492   O526    1.282   .     A
C493   C495    1.384   .     A
C493   H507    1.087   .     S
C493   C503    1.376   .     A
C494   H508    1.087   .     S
C494   C504    1.378   .     A
C494   C496    1.385   .     A
C495   C497    1.406   .     A
C496   C498    1.409   .     A
C497   C499    1.415   .     A
C497   C531    1.489   .     S
C498   C534    1.488   .     S
C498   C500    1.414   .     A
C499   C501    1.427   .     A
C499   C505    1.423   .     A
C500   C502    1.427   .     A
C500   C506    1.426   .     A
C501   C503    1.408   .     A
C501   C1114   1.399   .     S
C502   C504    1.408   .     A
C502   C1113   1.399   1_554 S
C505   C537    1.486   .     S
C505   C1091   1.393   .     S
C506   C541    1.485   .     S
C506   C1092   1.390   1_554 S
N519   Zn529   2.009   .     S
N520   Zn530   2.009   .     S
O521   Zn529   1.996   .     S
O522   Zn530   1.996   .     S
O523   Zn529   1.997   .     S
O524   Zn530   1.997   .     S
O525   Zn529   2.012   .     S
O526   Zn530   2.012   .     S
O527   Zn529   2.008   .     S
O528   Zn530   2.008   .     S
C531   H532    1.085   .     S
C531   O533    1.221   .     D
C534   H535    1.085   .     S
C534   O536    1.219   .     D
C537   O538    1.223   .     D
C537   O539    1.399   .     S
O539   H540    1.014   .     S
C541   O542    1.223   .     D
C541   O543    1.398   .     S
O543   H612    1.014   .     S
C545   O592    1.282   .     A
C545   O589    1.282   .     A
C545   C554    1.416   .     S
C546   O591    1.282   .     A
C546   O590    1.282   .     A
C546   C553    1.417   .     S
C547   C572    1.394   .     A
C547   H577    1.086   .     S
C547   C1185   1.393   1_554 S
C548   H578    1.086   .     S
C548   C571    1.392   .     A
C548   C1186   1.390   .     S
C549   H579    1.084   .     S
C549   C554    1.396   .     A
C550   C553    1.396   .     A
C550   H580    1.084   .     S
C550   C416    1.370   1_655 S
C551   C553    1.397   .     A
C551   H581    1.084   .     S
C551   C413    1.368   1_655 S
C552   H582    1.084   .     S
C552   C554    1.397   .     A
C555   N588    1.366   .     A
C555   H583    1.082   .     S
C556   H584    1.082   .     S
C556   N587    1.366   .     A
C556   C149    1.416   1_565 S
C557   H585    1.082   .     S
C557   N588    1.366   .     A
C558   H586    1.082   .     S
C558   N587    1.366   .     A
C558   C147    1.416   1_565 S
C559   O596    1.284   .     A
C559   O593    1.283   .     A
C559   C564    1.428   .     S
C560   O595    1.283   .     A
C560   C563    1.426   .     S
C560   O594    1.282   .     A
C561   C563    1.384   .     A
C561   H575    1.087   .     S
C561   C571    1.376   .     A
C562   H576    1.087   .     S
C562   C572    1.378   .     A
C562   C564    1.385   .     A
C563   C565    1.406   .     A
C564   C566    1.409   .     A
C565   C567    1.415   .     A
C565   C599    1.489   .     S
C566   C602    1.488   .     S
C566   C568    1.414   .     A
C567   C569    1.427   .     A
C567   C573    1.423   .     A
C568   C570    1.427   .     A
C568   C574    1.426   .     A
C569   C571    1.408   .     A
C569   C1182   1.399   .     S
C570   C572    1.408   .     A
C570   C1181   1.399   1_554 S
C573   C605    1.486   .     S
C573   C1159   1.393   .     S
C574   C609    1.485   .     S
C574   C1160   1.390   1_554 S
N587   Zn597   2.009   .     S
N588   Zn598   2.009   .     S
O589   Zn597   1.996   .     S
O590   Zn598   1.996   .     S
O591   Zn597   1.997   .     S
O592   Zn598   1.997   .     S
O593   Zn597   2.012   .     S
O594   Zn598   2.012   .     S
O595   Zn597   2.008   .     S
O596   Zn598   2.008   .     S
C599   H600    1.085   .     S
C599   O601    1.221   .     D
C602   H603    1.085   .     S
C602   O604    1.219   .     D
C605   O606    1.223   .     D
C605   O607    1.399   .     S
O607   H608    1.014   .     S
C609   O610    1.223   .     D
C609   O611    1.398   .     S
O611   H476    1.014   1_655 S
C613   O660    1.282   .     A
C613   O657    1.282   .     A
C613   C622    1.416   .     S
C614   O659    1.282   .     A
C614   O658    1.282   .     A
C614   C621    1.417   .     S
C615   C640    1.394   .     A
C615   H645    1.086   .     S
C616   H646    1.086   .     S
C616   C639    1.392   .     A
C616   C30     1.390   1_556 S
C617   H647    1.084   .     S
C617   C622    1.396   .     A
C617   C755    1.368   1_455 S
C618   C621    1.396   .     A
C618   H648    1.084   .     S
C618   C688    1.370   .     S
C619   C621    1.397   .     A
C619   H649    1.084   .     S
C619   C685    1.368   .     S
C620   H650    1.084   .     S
C620   C622    1.397   .     A
C620   C754    1.370   1_455 S
C623   N656    1.366   .     A
C623   H651    1.082   .     S
C623   C1034   1.416   1_545 S
C624   H652    1.082   .     S
C624   N655    1.366   .     A
C624   C829    1.416   .     S
C625   H653    1.082   .     S
C625   N656    1.366   .     A
C625   C1032   1.416   1_545 S
C626   H654    1.082   .     S
C626   N655    1.366   .     A
C626   C827    1.416   .     S
C627   O664    1.284   .     A
C627   O661    1.283   .     A
C627   C632    1.428   .     S
C628   O663    1.283   .     A
C628   C631    1.426   .     S
C628   O662    1.282   .     A
C629   C631    1.384   .     A
C629   H643    1.087   .     S
C629   C639    1.376   .     A
C630   H644    1.087   .     S
C630   C640    1.378   .     A
C630   C632    1.385   .     A
C631   C633    1.406   .     A
C632   C634    1.409   .     A
C633   C635    1.415   .     A
C633   C667    1.489   .     S
C634   C670    1.488   .     S
C634   C636    1.414   .     A
C635   C637    1.427   .     A
C635   C641    1.423   .     A
C636   C638    1.427   .     A
C636   C642    1.426   .     A
C637   C639    1.408   .     A
C637   C26     1.399   1_556 S
C638   C640    1.408   .     A
C641   C673    1.486   .     S
C641   C3      1.393   1_556 S
C642   C677    1.485   .     S
N655   Zn665   2.009   .     S
N656   Zn666   2.009   .     S
O657   Zn665   1.996   .     S
O658   Zn666   1.996   .     S
O659   Zn665   1.997   .     S
O660   Zn666   1.997   .     S
O661   Zn665   2.012   .     S
O662   Zn666   2.012   .     S
O663   Zn665   2.008   .     S
O664   Zn666   2.008   .     S
C667   H668    1.085   .     S
C667   O669    1.221   .     D
C670   H671    1.085   .     S
C670   O672    1.219   .     D
C673   O674    1.223   .     D
C673   O675    1.399   .     S
O675   H676    1.014   .     S
C677   O678    1.223   .     D
C677   O679    1.398   .     S
O679   H748    1.014   .     S
H680   O815    1.014   1_455 S
C681   O728    1.282   .     A
C681   O725    1.282   .     A
C681   C690    1.416   .     S
C682   O727    1.282   .     A
C682   O726    1.282   .     A
C682   C689    1.417   .     S
C683   C708    1.394   .     A
C683   H713    1.086   .     S
C684   H714    1.086   .     S
C684   C707    1.392   .     A
C684   C98     1.390   1_556 S
C685   H715    1.084   .     S
C685   C690    1.396   .     A
C686   C689    1.396   .     A
C686   H716    1.084   .     S
C686   C756    1.370   .     S
C687   C689    1.397   .     A
C687   H717    1.084   .     S
C687   C753    1.368   .     S
C688   H718    1.084   .     S
C688   C690    1.397   .     A
C691   N724    1.366   .     A
C691   H719    1.082   .     S
C691   C1102   1.416   1_545 S
C692   H720    1.082   .     S
C692   N723    1.366   .     A
C692   C897    1.416   .     S
C693   H721    1.082   .     S
C693   N724    1.366   .     A
C693   C1100   1.416   1_545 S
C694   H722    1.082   .     S
C694   N723    1.366   .     A
C694   C895    1.416   .     S
C695   O732    1.284   .     A
C695   O729    1.283   .     A
C695   C700    1.428   .     S
C696   O731    1.283   .     A
C696   C699    1.426   .     S
C696   O730    1.282   .     A
C697   C699    1.384   .     A
C697   H711    1.087   .     S
C697   C707    1.376   .     A
C698   H712    1.087   .     S
C698   C708    1.378   .     A
C698   C700    1.385   .     A
C699   C701    1.406   .     A
C700   C702    1.409   .     A
C701   C703    1.415   .     A
C701   C735    1.489   .     S
C702   C738    1.488   .     S
C702   C704    1.414   .     A
C703   C705    1.427   .     A
C703   C709    1.423   .     A
C704   C706    1.427   .     A
C704   C710    1.426   .     A
C705   C707    1.408   .     A
C705   C94     1.399   1_556 S
C706   C708    1.408   .     A
C709   C741    1.486   .     S
C709   C71     1.393   1_556 S
C710   C745    1.485   .     S
N723   Zn733   2.009   .     S
N724   Zn734   2.009   .     S
O725   Zn733   1.996   .     S
O726   Zn734   1.996   .     S
O727   Zn733   1.997   .     S
O728   Zn734   1.997   .     S
O729   Zn733   2.012   .     S
O730   Zn734   2.012   .     S
O731   Zn733   2.008   .     S
O732   Zn734   2.008   .     S
C735   H736    1.085   .     S
C735   O737    1.221   .     D
C738   H739    1.085   .     S
C738   O740    1.219   .     D
C741   O742    1.223   .     D
C741   O743    1.399   .     S
O743   H744    1.014   .     S
C745   O746    1.223   .     D
C745   O747    1.398   .     S
O747   H816    1.014   .     S
C749   O796    1.282   .     A
C749   O793    1.282   .     A
C749   C758    1.416   .     S
C750   O795    1.282   .     A
C750   O794    1.282   .     A
C750   C757    1.417   .     S
C751   C776    1.394   .     A
C751   H781    1.086   .     S
C752   H782    1.086   .     S
C752   C775    1.392   .     A
C752   C166    1.390   1_556 S
C753   H783    1.084   .     S
C753   C758    1.396   .     A
C754   C757    1.396   .     A
C754   H784    1.084   .     S
C754   C620    1.370   1_655 S
C755   C757    1.397   .     A
C755   H785    1.084   .     S
C755   C617    1.368   1_655 S
C756   H786    1.084   .     S
C756   C758    1.397   .     A
C759   N792    1.366   .     A
C759   H787    1.082   .     S
C759   C1170   1.416   1_545 S
C760   H788    1.082   .     S
C760   N791    1.366   .     A
C760   C965    1.416   .     S
C761   H789    1.082   .     S
C761   N792    1.366   .     A
C761   C1168   1.416   1_545 S
C762   H790    1.082   .     S
C762   N791    1.366   .     A
C762   C963    1.416   .     S
C763   O800    1.284   .     A
C763   O797    1.283   .     A
C763   C768    1.428   .     S
C764   O799    1.283   .     A
C764   C767    1.426   .     S
C764   O798    1.282   .     A
C765   C767    1.384   .     A
C765   H779    1.087   .     S
C765   C775    1.376   .     A
C766   H780    1.087   .     S
C766   C776    1.378   .     A
C766   C768    1.385   .     A
C767   C769    1.406   .     A
C768   C770    1.409   .     A
C769   C771    1.415   .     A
C769   C803    1.489   .     S
C770   C806    1.488   .     S
C770   C772    1.414   .     A
C771   C773    1.427   .     A
C771   C777    1.423   .     A
C772   C774    1.427   .     A
C772   C778    1.426   .     A
C773   C775    1.408   .     A
C773   C162    1.399   1_556 S
C774   C776    1.408   .     A
C777   C809    1.486   .     S
C777   C139    1.393   1_556 S
C778   C813    1.485   .     S
N791   Zn801   2.009   .     S
N792   Zn802   2.009   .     S
O793   Zn801   1.996   .     S
O794   Zn802   1.996   .     S
O795   Zn801   1.997   .     S
O796   Zn802   1.997   .     S
O797   Zn801   2.012   .     S
O798   Zn802   2.012   .     S
O799   Zn801   2.008   .     S
O800   Zn802   2.008   .     S
C803   H804    1.085   .     S
C803   O805    1.221   .     D
C806   H807    1.085   .     S
C806   O808    1.219   .     D
C809   O810    1.223   .     D
C809   O811    1.399   .     S
O811   H812    1.014   .     S
C813   O814    1.223   .     D
C813   O815    1.398   .     S
O815   H680    1.014   1_655 S
C817   O864    1.282   .     A
C817   O861    1.282   .     A
C817   C826    1.416   .     S
C818   O863    1.282   .     A
C818   O862    1.282   .     A
C818   C825    1.417   .     S
C819   C844    1.394   .     A
C819   H849    1.086   .     S
C820   H850    1.086   .     S
C820   C843    1.392   .     A
C820   C234    1.390   1_556 S
C821   H851    1.084   .     S
C821   C826    1.396   .     A
C821   C959    1.368   1_455 S
C822   C825    1.396   .     A
C822   H852    1.084   .     S
C822   C892    1.370   .     S
C823   C825    1.397   .     A
C823   H853    1.084   .     S
C823   C889    1.368   .     S
C824   H854    1.084   .     S
C824   C826    1.397   .     A
C824   C958    1.370   1_455 S
C827   N860    1.366   .     A
C827   H855    1.082   .     S
C828   H856    1.082   .     S
C828   N859    1.366   .     A
C828   C1033   1.416   .     S
C829   H857    1.082   .     S
C829   N860    1.366   .     A
C830   H858    1.082   .     S
C830   N859    1.366   .     A
C830   C1031   1.416   .     S
C831   O868    1.284   .     A
C831   O865    1.283   .     A
C831   C836    1.428   .     S
C832   O867    1.283   .     A
C832   C835    1.426   .     S
C832   O866    1.282   .     A
C833   C835    1.384   .     A
C833   H847    1.087   .     S
C833   C843    1.376   .     A
C834   H848    1.087   .     S
C834   C844    1.378   .     A
C834   C836    1.385   .     A
C835   C837    1.406   .     A
C836   C838    1.409   .     A
C837   C839    1.415   .     A
C837   C871    1.489   .     S
C838   C874    1.488   .     S
C838   C840    1.414   .     A
C839   C841    1.427   .     A
C839   C845    1.423   .     A
C840   C842    1.427   .     A
C840   C846    1.426   .     A
C841   C843    1.408   .     A
C841   C230    1.399   1_556 S
C842   C844    1.408   .     A
C845   C877    1.486   .     S
C845   C207    1.393   1_556 S
C846   C881    1.485   .     S
N859   Zn869   2.009   .     S
N860   Zn870   2.009   .     S
O861   Zn869   1.996   .     S
O862   Zn870   1.996   .     S
O863   Zn869   1.997   .     S
O864   Zn870   1.997   .     S
O865   Zn869   2.012   .     S
O866   Zn870   2.012   .     S
O867   Zn869   2.008   .     S
O868   Zn870   2.008   .     S
C871   H872    1.085   .     S
C871   O873    1.221   .     D
C874   H875    1.085   .     S
C874   O876    1.219   .     D
C877   O878    1.223   .     D
C877   O879    1.399   .     S
O879   H880    1.014   .     S
C881   O882    1.223   .     D
C881   O883    1.398   .     S
O883   H952    1.014   .     S
H884   O1019   1.014   1_455 S
C885   O932    1.282   .     A
C885   O929    1.282   .     A
C885   C894    1.416   .     S
C886   O931    1.282   .     A
C886   O930    1.282   .     A
C886   C893    1.417   .     S
C887   C912    1.394   .     A
C887   H917    1.086   .     S
C888   H918    1.086   .     S
C888   C911    1.392   .     A
C888   C302    1.390   1_556 S
C889   H919    1.084   .     S
C889   C894    1.396   .     A
C890   C893    1.396   .     A
C890   H920    1.084   .     S
C890   C960    1.370   .     S
C891   C893    1.397   .     A
C891   H921    1.084   .     S
C891   C957    1.368   .     S
C892   H922    1.084   .     S
C892   C894    1.397   .     A
C895   N928    1.366   .     A
C895   H923    1.082   .     S
C896   H924    1.082   .     S
C896   N927    1.366   .     A
C896   C1101   1.416   .     S
C897   H925    1.082   .     S
C897   N928    1.366   .     A
C898   H926    1.082   .     S
C898   N927    1.366   .     A
C898   C1099   1.416   .     S
C899   O936    1.284   .     A
C899   O933    1.283   .     A
C899   C904    1.428   .     S
C900   O935    1.283   .     A
C900   C903    1.426   .     S
C900   O934    1.282   .     A
C901   C903    1.384   .     A
C901   H915    1.087   .     S
C901   C911    1.376   .     A
C902   H916    1.087   .     S
C902   C912    1.378   .     A
C902   C904    1.385   .     A
C903   C905    1.406   .     A
C904   C906    1.409   .     A
C905   C907    1.415   .     A
C905   C939    1.489   .     S
C906   C942    1.488   .     S
C906   C908    1.414   .     A
C907   C909    1.427   .     A
C907   C913    1.423   .     A
C908   C910    1.427   .     A
C908   C914    1.426   .     A
C909   C911    1.408   .     A
C909   C298    1.399   1_556 S
C910   C912    1.408   .     A
C913   C945    1.486   .     S
C913   C275    1.393   1_556 S
C914   C949    1.485   .     S
N927   Zn937   2.009   .     S
N928   Zn938   2.009   .     S
O929   Zn937   1.996   .     S
O930   Zn938   1.996   .     S
O931   Zn937   1.997   .     S
O932   Zn938   1.997   .     S
O933   Zn937   2.012   .     S
O934   Zn938   2.012   .     S
O935   Zn937   2.008   .     S
O936   Zn938   2.008   .     S
C939   H940    1.085   .     S
C939   O941    1.221   .     D
C942   H943    1.085   .     S
C942   O944    1.219   .     D
C945   O946    1.223   .     D
C945   O947    1.399   .     S
O947   H948    1.014   .     S
C949   O950    1.223   .     D
C949   O951    1.398   .     S
O951   H1020   1.014   .     S
C953   O1000   1.282   .     A
C953   O997    1.282   .     A
C953   C962    1.416   .     S
C954   O999    1.282   .     A
C954   O998    1.282   .     A
C954   C961    1.417   .     S
C955   C980    1.394   .     A
C955   H985    1.086   .     S
C956   H986    1.086   .     S
C956   C979    1.392   .     A
C956   C370    1.390   1_556 S
C957   H987    1.084   .     S
C957   C962    1.396   .     A
C958   C961    1.396   .     A
C958   H988    1.084   .     S
C958   C824    1.370   1_655 S
C959   C961    1.397   .     A
C959   H989    1.084   .     S
C959   C821    1.368   1_655 S
C960   H990    1.084   .     S
C960   C962    1.397   .     A
C963   N996    1.366   .     A
C963   H991    1.082   .     S
C964   H992    1.082   .     S
C964   N995    1.366   .     A
C964   C1169   1.416   .     S
C965   H993    1.082   .     S
C965   N996    1.366   .     A
C966   H994    1.082   .     S
C966   N995    1.366   .     A
C966   C1167   1.416   .     S
C967   O1004   1.284   .     A
C967   O1001   1.283   .     A
C967   C972    1.428   .     S
C968   O1003   1.283   .     A
C968   C971    1.426   .     S
C968   O1002   1.282   .     A
C969   C971    1.384   .     A
C969   H983    1.087   .     S
C969   C979    1.376   .     A
C970   H984    1.087   .     S
C970   C980    1.378   .     A
C970   C972    1.385   .     A
C971   C973    1.406   .     A
C972   C974    1.409   .     A
C973   C975    1.415   .     A
C973   C1007   1.489   .     S
C974   C1010   1.488   .     S
C974   C976    1.414   .     A
C975   C977    1.427   .     A
C975   C981    1.423   .     A
C976   C978    1.427   .     A
C976   C982    1.426   .     A
C977   C979    1.408   .     A
C977   C366    1.399   1_556 S
C978   C980    1.408   .     A
C981   C1013   1.486   .     S
C981   C343    1.393   1_556 S
C982   C1017   1.485   .     S
N995   Zn1005  2.009   .     S
N996   Zn1006  2.009   .     S
O997   Zn1005  1.996   .     S
O998   Zn1006  1.996   .     S
O999   Zn1005  1.997   .     S
O1000  Zn1006  1.997   .     S
O1001  Zn1005  2.012   .     S
O1002  Zn1006  2.012   .     S
O1003  Zn1005  2.008   .     S
O1004  Zn1006  2.008   .     S
C1007  H1008   1.085   .     S
C1007  O1009   1.221   .     D
C1010  H1011   1.085   .     S
C1010  O1012   1.219   .     D
C1013  O1014   1.223   .     D
C1013  O1015   1.399   .     S
O1015  H1016   1.014   .     S
C1017  O1018   1.223   .     D
C1017  O1019   1.398   .     S
O1019  H884    1.014   1_655 S
C1021  O1068   1.282   .     A
C1021  O1065   1.282   .     A
C1021  C1030   1.416   .     S
C1022  O1067   1.282   .     A
C1022  O1066   1.282   .     A
C1022  C1029   1.417   .     S
C1023  C1048   1.394   .     A
C1023  H1053   1.086   .     S
C1024  H1054   1.086   .     S
C1024  C1047   1.392   .     A
C1024  C438    1.390   1_556 S
C1025  H1055   1.084   .     S
C1025  C1030   1.396   .     A
C1025  C1163   1.368   1_455 S
C1026  C1029   1.396   .     A
C1026  H1056   1.084   .     S
C1026  C1096   1.370   .     S
C1027  C1029   1.397   .     A
C1027  H1057   1.084   .     S
C1027  C1093   1.368   .     S
C1028  H1058   1.084   .     S
C1028  C1030   1.397   .     A
C1028  C1162   1.370   1_455 S
C1031  N1064   1.366   .     A
C1031  H1059   1.082   .     S
C1032  H1060   1.082   .     S
C1032  N1063   1.366   .     A
C1032  C625    1.416   1_565 S
C1033  H1061   1.082   .     S
C1033  N1064   1.366   .     A
C1034  H1062   1.082   .     S
C1034  N1063   1.366   .     A
C1034  C623    1.416   1_565 S
C1035  O1072   1.284   .     A
C1035  O1069   1.283   .     A
C1035  C1040   1.428   .     S
C1036  O1071   1.283   .     A
C1036  C1039   1.426   .     S
C1036  O1070   1.282   .     A
C1037  C1039   1.384   .     A
C1037  H1051   1.087   .     S
C1037  C1047   1.376   .     A
C1038  H1052   1.087   .     S
C1038  C1048   1.378   .     A
C1038  C1040   1.385   .     A
C1039  C1041   1.406   .     A
C1040  C1042   1.409   .     A
C1041  C1043   1.415   .     A
C1041  C1075   1.489   .     S
C1042  C1078   1.488   .     S
C1042  C1044   1.414   .     A
C1043  C1045   1.427   .     A
C1043  C1049   1.423   .     A
C1044  C1046   1.427   .     A
C1044  C1050   1.426   .     A
C1045  C1047   1.408   .     A
C1045  C434    1.399   1_556 S
C1046  C1048   1.408   .     A
C1049  C1081   1.486   .     S
C1049  C411    1.393   1_556 S
C1050  C1085   1.485   .     S
N1063  Zn1073  2.009   .     S
N1064  Zn1074  2.009   .     S
O1065  Zn1073  1.996   .     S
O1066  Zn1074  1.996   .     S
O1067  Zn1073  1.997   .     S
O1068  Zn1074  1.997   .     S
O1069  Zn1073  2.012   .     S
O1070  Zn1074  2.012   .     S
O1071  Zn1073  2.008   .     S
O1072  Zn1074  2.008   .     S
C1075  H1076   1.085   .     S
C1075  O1077   1.221   .     D
C1078  H1079   1.085   .     S
C1078  O1080   1.219   .     D
C1081  O1082   1.223   .     D
C1081  O1083   1.399   .     S
O1083  H1084   1.014   .     S
C1085  O1086   1.223   .     D
C1085  O1087   1.398   .     S
O1087  H1156   1.014   .     S
H1088  O1223   1.014   1_455 S
C1089  O1136   1.282   .     A
C1089  O1133   1.282   .     A
C1089  C1098   1.416   .     S
C1090  O1135   1.282   .     A
C1090  O1134   1.282   .     A
C1090  C1097   1.417   .     S
C1091  C1116   1.394   .     A
C1091  H1121   1.086   .     S
C1092  H1122   1.086   .     S
C1092  C1115   1.392   .     A
C1092  C506    1.390   1_556 S
C1093  H1123   1.084   .     S
C1093  C1098   1.396   .     A
C1094  C1097   1.396   .     A
C1094  H1124   1.084   .     S
C1094  C1164   1.370   .     S
C1095  C1097   1.397   .     A
C1095  H1125   1.084   .     S
C1095  C1161   1.368   .     S
C1096  H1126   1.084   .     S
C1096  C1098   1.397   .     A
C1099  N1132   1.366   .     A
C1099  H1127   1.082   .     S
C1100  H1128   1.082   .     S
C1100  N1131   1.366   .     A
C1100  C693    1.416   1_565 S
C1101  H1129   1.082   .     S
C1101  N1132   1.366   .     A
C1102  H1130   1.082   .     S
C1102  N1131   1.366   .     A
C1102  C691    1.416   1_565 S
C1103  O1140   1.284   .     A
C1103  O1137   1.283   .     A
C1103  C1108   1.428   .     S
C1104  O1139   1.283   .     A
C1104  C1107   1.426   .     S
C1104  O1138   1.282   .     A
C1105  C1107   1.384   .     A
C1105  H1119   1.087   .     S
C1105  C1115   1.376   .     A
C1106  H1120   1.087   .     S
C1106  C1116   1.378   .     A
C1106  C1108   1.385   .     A
C1107  C1109   1.406   .     A
C1108  C1110   1.409   .     A
C1109  C1111   1.415   .     A
C1109  C1143   1.489   .     S
C1110  C1146   1.488   .     S
C1110  C1112   1.414   .     A
C1111  C1113   1.427   .     A
C1111  C1117   1.423   .     A
C1112  C1114   1.427   .     A
C1112  C1118   1.426   .     A
C1113  C1115   1.408   .     A
C1113  C502    1.399   1_556 S
C1114  C1116   1.408   .     A
C1117  C1149   1.486   .     S
C1117  C479    1.393   1_556 S
C1118  C1153   1.485   .     S
N1131  Zn1141  2.009   .     S
N1132  Zn1142  2.009   .     S
O1133  Zn1141  1.996   .     S
O1134  Zn1142  1.996   .     S
O1135  Zn1141  1.997   .     S
O1136  Zn1142  1.997   .     S
O1137  Zn1141  2.012   .     S
O1138  Zn1142  2.012   .     S
O1139  Zn1141  2.008   .     S
O1140  Zn1142  2.008   .     S
C1143  H1144   1.085   .     S
C1143  O1145   1.221   .     D
C1146  H1147   1.085   .     S
C1146  O1148   1.219   .     D
C1149  O1150   1.223   .     D
C1149  O1151   1.399   .     S
O1151  H1152   1.014   .     S
C1153  O1154   1.223   .     D
C1153  O1155   1.398   .     S
O1155  H1224   1.014   .     S
C1157  O1204   1.282   .     A
C1157  O1201   1.282   .     A
C1157  C1166   1.416   .     S
C1158  O1203   1.282   .     A
C1158  O1202   1.282   .     A
C1158  C1165   1.417   .     S
C1159  C1184   1.394   .     A
C1159  H1189   1.086   .     S
C1160  H1190   1.086   .     S
C1160  C1183   1.392   .     A
C1160  C574    1.390   1_556 S
C1161  H1191   1.084   .     S
C1161  C1166   1.396   .     A
C1162  C1165   1.396   .     A
C1162  H1192   1.084   .     S
C1162  C1028   1.370   1_655 S
C1163  C1165   1.397   .     A
C1163  H1193   1.084   .     S
C1163  C1025   1.368   1_655 S
C1164  H1194   1.084   .     S
C1164  C1166   1.397   .     A
C1167  N1200   1.366   .     A
C1167  H1195   1.082   .     S
C1168  H1196   1.082   .     S
C1168  N1199   1.366   .     A
C1168  C761    1.416   1_565 S
C1169  H1197   1.082   .     S
C1169  N1200   1.366   .     A
C1170  H1198   1.082   .     S
C1170  N1199   1.366   .     A
C1170  C759    1.416   1_565 S
C1171  O1208   1.284   .     A
C1171  O1205   1.283   .     A
C1171  C1176   1.428   .     S
C1172  O1207   1.283   .     A
C1172  C1175   1.426   .     S
C1172  O1206   1.282   .     A
C1173  C1175   1.384   .     A
C1173  H1187   1.087   .     S
C1173  C1183   1.376   .     A
C1174  H1188   1.087   .     S
C1174  C1184   1.378   .     A
C1174  C1176   1.385   .     A
C1175  C1177   1.406   .     A
C1176  C1178   1.409   .     A
C1177  C1179   1.415   .     A
C1177  C1211   1.489   .     S
C1178  C1214   1.488   .     S
C1178  C1180   1.414   .     A
C1179  C1181   1.427   .     A
C1179  C1185   1.423   .     A
C1180  C1182   1.427   .     A
C1180  C1186   1.426   .     A
C1181  C1183   1.408   .     A
C1181  C570    1.399   1_556 S
C1182  C1184   1.408   .     A
C1185  C1217   1.486   .     S
C1185  C547    1.393   1_556 S
C1186  C1221   1.485   .     S
N1199  Zn1209  2.009   .     S
N1200  Zn1210  2.009   .     S
O1201  Zn1209  1.996   .     S
O1202  Zn1210  1.996   .     S
O1203  Zn1209  1.997   .     S
O1204  Zn1210  1.997   .     S
O1205  Zn1209  2.012   .     S
O1206  Zn1210  2.012   .     S
O1207  Zn1209  2.008   .     S
O1208  Zn1210  2.008   .     S
C1211  H1212   1.085   .     S
C1211  O1213   1.221   .     D
C1214  H1215   1.085   .     S
C1214  O1216   1.219   .     D
C1217  O1218   1.223   .     D
C1217  O1219   1.399   .     S
O1219  H1220   1.014   .     S
C1221  O1222   1.223   .     D
C1221  O1223   1.398   .     S
O1223  H1088   1.014   1_655 S
