data_str_m2_o1_o1_pcu_sym.23
_audit_creation_date              2020-01-03
_audit_creation_method            'Materials Studio'
_symmetry_space_group_name_H-M    'P1'
_symmetry_Int_Tables_number       1
_symmetry_cell_setting            triclinic
loop_
_symmetry_equiv_pos_as_xyz
  x,y,z
_cell_length_a                    31.6041
_cell_length_b                    30.3022
_cell_length_c                    28.8149
_cell_angle_alpha                 90.0001
_cell_angle_beta                  90.0000
_cell_angle_gamma                 90.0000
loop_
_atom_site_label
_atom_site_type_symbol
_atom_site_fract_x
_atom_site_fract_y
_atom_site_fract_z
_atom_site_U_iso_or_equiv
_atom_site_adp_type
_atom_site_occupancy
C1     C     0.06123   0.19262   0.16650   0.00000  Uiso   1.00
C2     C     0.00000   0.28882   0.30854   0.00000  Uiso   1.00
C3     C     0.00000   0.28883   0.02477   0.00000  Uiso   1.00
C4     C     0.00000   0.21118   0.30854   0.00000  Uiso   1.00
C5     C     0.25000   0.46118   0.02480   0.00000  Uiso   1.00
C6     C     0.25000   0.03883   0.30857   0.00000  Uiso   1.00
C7     C     0.25000   0.03882   0.02480   0.00000  Uiso   1.00
C8     C     0.25000   0.46117   0.30857   0.00000  Uiso   1.00
C9     C     0.39046   0.14047   0.12407   0.00000  Uiso   1.00
C10    C     0.11510   0.35286   0.20812   0.00000  Uiso   1.00
C11    C     0.10954   0.35953   0.12407   0.00000  Uiso   1.00
C12    C     0.43878   0.30738   0.16650   0.00000  Uiso   1.00
C13    C     0.38491   0.14714   0.20812   0.00000  Uiso   1.00
C14    C     0.11510   0.14714   0.20812   0.00000  Uiso   1.00
C15    C     0.39046   0.35953   0.12407   0.00000  Uiso   1.00
C16    C     0.38491   0.35286   0.20812   0.00000  Uiso   1.00
C17    C     0.10954   0.14047   0.12407   0.00000  Uiso   1.00
C18    C     0.13491   0.39714   0.12522   0.00000  Uiso   1.00
C19    C     0.35954   0.10953   0.20926   0.00000  Uiso   1.00
C20    C     0.36510   0.10286   0.12522   0.00000  Uiso   1.00
C21    C     0.14046   0.39047   0.20926   0.00000  Uiso   1.00
C22    C     0.35954   0.39047   0.20926   0.00000  Uiso   1.00
C23    C     0.43878   0.19263   0.16650   0.00000  Uiso   1.00
C24    C     0.13491   0.10286   0.12522   0.00000  Uiso   1.00
C25    C     0.14046   0.10953   0.20926   0.00000  Uiso   1.00
C26    C     0.36510   0.39714   0.12522   0.00000  Uiso   1.00
C27    C     0.09654   0.33929   0.16600   0.00000  Uiso   1.00
C28    C     0.40346   0.16071   0.16600   0.00000  Uiso   1.00
C29    C     0.40346   0.33929   0.16600   0.00000  Uiso   1.00
C30    C     0.09654   0.16071   0.16600   0.00000  Uiso   1.00
C31    C     0.34654   0.08929   0.16733   0.00000  Uiso   1.00
C32    C     0.15346   0.41071   0.16733   0.00000  Uiso   1.00
C33    C     0.15346   0.08929   0.16733   0.00000  Uiso   1.00
C34    C     0.06123   0.30737   0.16650   0.00000  Uiso   1.00
C35    C     0.34654   0.41071   0.16733   0.00000  Uiso   1.00
C36    C     0.00000   0.16962   0.04936   0.00000  Uiso   1.00
C37    C     0.00000   0.33031   0.28388   0.00000  Uiso   1.00
C38    C     0.00000   0.33038   0.04936   0.00000  Uiso   1.00
C39    C     0.00000   0.16969   0.28388   0.00000  Uiso   1.00
C40    C     0.25000   0.41969   0.04945   0.00000  Uiso   1.00
C41    C     0.25000   0.08038   0.28398   0.00000  Uiso   1.00
C42    C     0.25000   0.08031   0.04945   0.00000  Uiso   1.00
C43    C     0.25000   0.41962   0.28398   0.00000  Uiso   1.00
C44    C     0.39851   0.16039   0.07928   0.00000  Uiso   1.00
C45    C     0.31123   0.44262   0.16683   0.00000  Uiso   1.00
C46    C     0.11213   0.32582   0.24954   0.00000  Uiso   1.00
C47    C     0.10149   0.33961   0.07928   0.00000  Uiso   1.00
C48    C     0.38787   0.17418   0.24954   0.00000  Uiso   1.00
C49    C     0.11213   0.17418   0.24954   0.00000  Uiso   1.00
C50    C     0.39851   0.33961   0.07928   0.00000  Uiso   1.00
C51    C     0.38787   0.32582   0.24954   0.00000  Uiso   1.00
C52    C     0.10149   0.16039   0.07928   0.00000  Uiso   1.00
C53    C     0.13787   0.42418   0.08379   0.00000  Uiso   1.00
C54    C     0.35149   0.08961   0.25405   0.00000  Uiso   1.00
C55    C     0.36213   0.07582   0.08379   0.00000  Uiso   1.00
C56    C     0.18878   0.05738   0.16683   0.00000  Uiso   1.00
C57    C     0.14851   0.41039   0.25405   0.00000  Uiso   1.00
C58    C     0.35149   0.41039   0.25405   0.00000  Uiso   1.00
C59    C     0.13787   0.07582   0.08379   0.00000  Uiso   1.00
C60    C     0.14851   0.08961   0.25405   0.00000  Uiso   1.00
C61    C     0.36213   0.42418   0.08379   0.00000  Uiso   1.00
C62    C     0.18878   0.44262   0.16683   0.00000  Uiso   1.00
C63    C     0.31123   0.05738   0.16683   0.00000  Uiso   1.00
C64    C     0.00000   0.21117   0.02477   0.00000  Uiso   1.00
Cu65   Cu    0.00000   0.25000   0.21355   0.00000  Uiso   1.00
Cu66   Cu    0.00000   0.25000   0.11978   0.00000  Uiso   1.00
Cu67   Cu    0.25000   0.00000   0.21355   0.00000  Uiso   1.00
Cu68   Cu    0.25000   0.00000   0.11978   0.00000  Uiso   1.00
N69    N     0.00000   0.25000   0.28402   0.00000  Uiso   1.00
N70    N     0.25000   0.11389   0.26467   0.00000  Uiso   1.00
N71    N     0.25000   0.11375   0.06887   0.00000  Uiso   1.00
N72    N     0.25000   0.38611   0.26467   0.00000  Uiso   1.00
N73    N     0.40421   0.17646   0.04347   0.00000  Uiso   1.00
N74    N     0.11010   0.30372   0.28217   0.00000  Uiso   1.00
N75    N     0.09579   0.32354   0.04347   0.00000  Uiso   1.00
N76    N     0.38990   0.19628   0.28217   0.00000  Uiso   1.00
N77    N     0.11010   0.19628   0.28217   0.00000  Uiso   1.00
N78    N     0.40421   0.32354   0.04347   0.00000  Uiso   1.00
N79    N     0.38990   0.30372   0.28217   0.00000  Uiso   1.00
N80    N     0.00000   0.25000   0.04931   0.00000  Uiso   1.00
N81    N     0.09579   0.17646   0.04347   0.00000  Uiso   1.00
N82    N     0.13990   0.44628   0.05117   0.00000  Uiso   1.00
N83    N     0.34579   0.07354   0.28986   0.00000  Uiso   1.00
N84    N     0.36010   0.05372   0.05117   0.00000  Uiso   1.00
N85    N     0.15421   0.42646   0.28986   0.00000  Uiso   1.00
N86    N     0.34579   0.42646   0.28986   0.00000  Uiso   1.00
N87    N     0.13990   0.05372   0.05117   0.00000  Uiso   1.00
N88    N     0.15421   0.07354   0.28986   0.00000  Uiso   1.00
N89    N     0.36010   0.44628   0.05117   0.00000  Uiso   1.00
N90    N     0.25000   0.00000   0.28402   0.00000  Uiso   1.00
N91    N     0.25000   0.00000   0.04931   0.00000  Uiso   1.00
N92    N     0.00000   0.13611   0.06867   0.00000  Uiso   1.00
N93    N     0.00000   0.36375   0.26446   0.00000  Uiso   1.00
N94    N     0.00000   0.36389   0.06867   0.00000  Uiso   1.00
N95    N     0.00000   0.13625   0.26446   0.00000  Uiso   1.00
N96    N     0.25000   0.38625   0.06887   0.00000  Uiso   1.00
O97    O     0.04509   0.20491   0.20625   0.00000  Uiso   1.00
O98    O     0.20492   0.04509   0.12709   0.00000  Uiso   1.00
O99    O     0.20492   0.04509   0.20625   0.00000  Uiso   1.00
O100   O     0.29509   0.45491   0.12709   0.00000  Uiso   1.00
O101   O     0.20492   0.45491   0.12709   0.00000  Uiso   1.00
O102   O     0.29509   0.04509   0.20625   0.00000  Uiso   1.00
O103   O     0.29509   0.04509   0.12709   0.00000  Uiso   1.00
O104   O     0.20492   0.45491   0.20625   0.00000  Uiso   1.00
O105   O     0.45492   0.29509   0.12709   0.00000  Uiso   1.00
O106   O     0.45492   0.29509   0.20625   0.00000  Uiso   1.00
O107   O     0.04509   0.20491   0.12709   0.00000  Uiso   1.00
O108   O     0.45492   0.20491   0.12709   0.00000  Uiso   1.00
O109   O     0.04509   0.29509   0.20625   0.00000  Uiso   1.00
O110   O     0.04509   0.29509   0.12709   0.00000  Uiso   1.00
O111   O     0.45492   0.20491   0.20625   0.00000  Uiso   1.00
O112   O     0.29509   0.45491   0.20625   0.00000  Uiso   1.00
C113   C     0.56123   0.19262   0.16650   0.00000  Uiso   1.00
C114   C     0.50000   0.28882   0.30854   0.00000  Uiso   1.00
C115   C     0.50000   0.28883   0.02477   0.00000  Uiso   1.00
C116   C     0.50000   0.21118   0.30854   0.00000  Uiso   1.00
C117   C     0.75000   0.46118   0.02480   0.00000  Uiso   1.00
C118   C     0.75000   0.03883   0.30857   0.00000  Uiso   1.00
C119   C     0.75000   0.03882   0.02480   0.00000  Uiso   1.00
C120   C     0.75000   0.46117   0.30857   0.00000  Uiso   1.00
C121   C     0.89046   0.14047   0.12407   0.00000  Uiso   1.00
C122   C     0.61510   0.35286   0.20812   0.00000  Uiso   1.00
C123   C     0.60954   0.35953   0.12407   0.00000  Uiso   1.00
C124   C     0.93878   0.30738   0.16650   0.00000  Uiso   1.00
C125   C     0.88491   0.14714   0.20812   0.00000  Uiso   1.00
C126   C     0.61510   0.14714   0.20812   0.00000  Uiso   1.00
C127   C     0.89046   0.35953   0.12407   0.00000  Uiso   1.00
C128   C     0.88491   0.35286   0.20812   0.00000  Uiso   1.00
C129   C     0.60954   0.14047   0.12407   0.00000  Uiso   1.00
C130   C     0.63491   0.39714   0.12522   0.00000  Uiso   1.00
C131   C     0.85954   0.10953   0.20926   0.00000  Uiso   1.00
C132   C     0.86510   0.10286   0.12522   0.00000  Uiso   1.00
C133   C     0.64046   0.39047   0.20926   0.00000  Uiso   1.00
C134   C     0.85954   0.39047   0.20926   0.00000  Uiso   1.00
C135   C     0.93878   0.19263   0.16650   0.00000  Uiso   1.00
C136   C     0.63491   0.10286   0.12522   0.00000  Uiso   1.00
C137   C     0.64046   0.10953   0.20926   0.00000  Uiso   1.00
C138   C     0.86510   0.39714   0.12522   0.00000  Uiso   1.00
C139   C     0.59654   0.33929   0.16600   0.00000  Uiso   1.00
C140   C     0.90346   0.16071   0.16600   0.00000  Uiso   1.00
C141   C     0.90346   0.33929   0.16600   0.00000  Uiso   1.00
C142   C     0.59654   0.16071   0.16600   0.00000  Uiso   1.00
C143   C     0.84654   0.08929   0.16733   0.00000  Uiso   1.00
C144   C     0.65346   0.41071   0.16733   0.00000  Uiso   1.00
C145   C     0.65346   0.08929   0.16733   0.00000  Uiso   1.00
C146   C     0.56123   0.30737   0.16650   0.00000  Uiso   1.00
C147   C     0.84654   0.41071   0.16733   0.00000  Uiso   1.00
C148   C     0.50000   0.16962   0.04936   0.00000  Uiso   1.00
C149   C     0.50000   0.33031   0.28388   0.00000  Uiso   1.00
C150   C     0.50000   0.33038   0.04936   0.00000  Uiso   1.00
C151   C     0.50000   0.16969   0.28388   0.00000  Uiso   1.00
C152   C     0.75000   0.41969   0.04945   0.00000  Uiso   1.00
C153   C     0.75000   0.08038   0.28398   0.00000  Uiso   1.00
C154   C     0.75000   0.08031   0.04945   0.00000  Uiso   1.00
C155   C     0.75000   0.41962   0.28398   0.00000  Uiso   1.00
C156   C     0.89851   0.16039   0.07928   0.00000  Uiso   1.00
C157   C     0.81123   0.44262   0.16683   0.00000  Uiso   1.00
C158   C     0.61213   0.32582   0.24954   0.00000  Uiso   1.00
C159   C     0.60149   0.33961   0.07928   0.00000  Uiso   1.00
C160   C     0.88787   0.17418   0.24954   0.00000  Uiso   1.00
C161   C     0.61213   0.17418   0.24954   0.00000  Uiso   1.00
C162   C     0.89851   0.33961   0.07928   0.00000  Uiso   1.00
C163   C     0.88787   0.32582   0.24954   0.00000  Uiso   1.00
C164   C     0.60149   0.16039   0.07928   0.00000  Uiso   1.00
C165   C     0.63787   0.42418   0.08379   0.00000  Uiso   1.00
C166   C     0.85149   0.08961   0.25405   0.00000  Uiso   1.00
C167   C     0.86213   0.07582   0.08379   0.00000  Uiso   1.00
C168   C     0.68878   0.05738   0.16683   0.00000  Uiso   1.00
C169   C     0.64851   0.41039   0.25405   0.00000  Uiso   1.00
C170   C     0.85149   0.41039   0.25405   0.00000  Uiso   1.00
C171   C     0.63787   0.07582   0.08379   0.00000  Uiso   1.00
C172   C     0.64851   0.08961   0.25405   0.00000  Uiso   1.00
C173   C     0.86213   0.42418   0.08379   0.00000  Uiso   1.00
C174   C     0.68878   0.44262   0.16683   0.00000  Uiso   1.00
C175   C     0.81123   0.05738   0.16683   0.00000  Uiso   1.00
C176   C     0.50000   0.21117   0.02477   0.00000  Uiso   1.00
Cu177  Cu    0.50000   0.25000   0.21355   0.00000  Uiso   1.00
Cu178  Cu    0.50000   0.25000   0.11978   0.00000  Uiso   1.00
Cu179  Cu    0.75000   0.00000   0.21355   0.00000  Uiso   1.00
Cu180  Cu    0.75000   0.00000   0.11978   0.00000  Uiso   1.00
N181   N     0.50000   0.25000   0.28402   0.00000  Uiso   1.00
N182   N     0.75000   0.11389   0.26467   0.00000  Uiso   1.00
N183   N     0.75000   0.11375   0.06887   0.00000  Uiso   1.00
N184   N     0.75000   0.38611   0.26467   0.00000  Uiso   1.00
N185   N     0.90421   0.17646   0.04347   0.00000  Uiso   1.00
N186   N     0.61010   0.30372   0.28217   0.00000  Uiso   1.00
N187   N     0.59579   0.32354   0.04347   0.00000  Uiso   1.00
N188   N     0.88990   0.19628   0.28217   0.00000  Uiso   1.00
N189   N     0.61010   0.19628   0.28217   0.00000  Uiso   1.00
N190   N     0.90421   0.32354   0.04347   0.00000  Uiso   1.00
N191   N     0.88990   0.30372   0.28217   0.00000  Uiso   1.00
N192   N     0.50000   0.25000   0.04931   0.00000  Uiso   1.00
N193   N     0.59579   0.17646   0.04347   0.00000  Uiso   1.00
N194   N     0.63990   0.44628   0.05117   0.00000  Uiso   1.00
N195   N     0.84579   0.07354   0.28986   0.00000  Uiso   1.00
N196   N     0.86010   0.05372   0.05117   0.00000  Uiso   1.00
N197   N     0.65421   0.42646   0.28986   0.00000  Uiso   1.00
N198   N     0.84579   0.42646   0.28986   0.00000  Uiso   1.00
N199   N     0.63990   0.05372   0.05117   0.00000  Uiso   1.00
N200   N     0.65421   0.07354   0.28986   0.00000  Uiso   1.00
N201   N     0.86010   0.44628   0.05117   0.00000  Uiso   1.00
N202   N     0.75000   0.00000   0.28402   0.00000  Uiso   1.00
N203   N     0.75000   0.00000   0.04931   0.00000  Uiso   1.00
N204   N     0.50000   0.13611   0.06867   0.00000  Uiso   1.00
N205   N     0.50000   0.36375   0.26446   0.00000  Uiso   1.00
N206   N     0.50000   0.36389   0.06867   0.00000  Uiso   1.00
N207   N     0.50000   0.13625   0.26446   0.00000  Uiso   1.00
N208   N     0.75000   0.38625   0.06887   0.00000  Uiso   1.00
O209   O     0.54509   0.20491   0.20625   0.00000  Uiso   1.00
O210   O     0.70492   0.04509   0.12709   0.00000  Uiso   1.00
O211   O     0.70492   0.04509   0.20625   0.00000  Uiso   1.00
O212   O     0.79509   0.45491   0.12709   0.00000  Uiso   1.00
O213   O     0.70492   0.45491   0.12709   0.00000  Uiso   1.00
O214   O     0.79509   0.04509   0.20625   0.00000  Uiso   1.00
O215   O     0.79509   0.04509   0.12709   0.00000  Uiso   1.00
O216   O     0.70492   0.45491   0.20625   0.00000  Uiso   1.00
O217   O     0.95492   0.29509   0.12709   0.00000  Uiso   1.00
O218   O     0.95492   0.29509   0.20625   0.00000  Uiso   1.00
O219   O     0.54509   0.20491   0.12709   0.00000  Uiso   1.00
O220   O     0.95492   0.20491   0.12709   0.00000  Uiso   1.00
O221   O     0.54509   0.29509   0.20625   0.00000  Uiso   1.00
O222   O     0.54509   0.29509   0.12709   0.00000  Uiso   1.00
O223   O     0.95492   0.20491   0.20625   0.00000  Uiso   1.00
O224   O     0.79509   0.45491   0.20625   0.00000  Uiso   1.00
C225   C     0.06123   0.69262   0.16650   0.00000  Uiso   1.00
C226   C     0.00000   0.78882   0.30854   0.00000  Uiso   1.00
C227   C     0.00000   0.78883   0.02477   0.00000  Uiso   1.00
C228   C     0.00000   0.71118   0.30854   0.00000  Uiso   1.00
C229   C     0.25000   0.96118   0.02480   0.00000  Uiso   1.00
C230   C     0.25000   0.53883   0.30857   0.00000  Uiso   1.00
C231   C     0.25000   0.53882   0.02480   0.00000  Uiso   1.00
C232   C     0.25000   0.96117   0.30857   0.00000  Uiso   1.00
C233   C     0.39046   0.64047   0.12407   0.00000  Uiso   1.00
C234   C     0.11510   0.85286   0.20812   0.00000  Uiso   1.00
C235   C     0.10954   0.85953   0.12407   0.00000  Uiso   1.00
C236   C     0.43878   0.80738   0.16650   0.00000  Uiso   1.00
C237   C     0.38491   0.64714   0.20812   0.00000  Uiso   1.00
C238   C     0.11510   0.64714   0.20812   0.00000  Uiso   1.00
C239   C     0.39046   0.85953   0.12407   0.00000  Uiso   1.00
C240   C     0.38491   0.85286   0.20812   0.00000  Uiso   1.00
C241   C     0.10954   0.64047   0.12407   0.00000  Uiso   1.00
C242   C     0.13491   0.89714   0.12522   0.00000  Uiso   1.00
C243   C     0.35954   0.60953   0.20926   0.00000  Uiso   1.00
C244   C     0.36510   0.60286   0.12522   0.00000  Uiso   1.00
C245   C     0.14046   0.89047   0.20926   0.00000  Uiso   1.00
C246   C     0.35954   0.89047   0.20926   0.00000  Uiso   1.00
C247   C     0.43878   0.69263   0.16650   0.00000  Uiso   1.00
C248   C     0.13491   0.60286   0.12522   0.00000  Uiso   1.00
C249   C     0.14046   0.60953   0.20926   0.00000  Uiso   1.00
C250   C     0.36510   0.89714   0.12522   0.00000  Uiso   1.00
C251   C     0.09654   0.83929   0.16600   0.00000  Uiso   1.00
C252   C     0.40346   0.66071   0.16600   0.00000  Uiso   1.00
C253   C     0.40346   0.83929   0.16600   0.00000  Uiso   1.00
C254   C     0.09654   0.66071   0.16600   0.00000  Uiso   1.00
C255   C     0.34654   0.58929   0.16733   0.00000  Uiso   1.00
C256   C     0.15346   0.91071   0.16733   0.00000  Uiso   1.00
C257   C     0.15346   0.58929   0.16733   0.00000  Uiso   1.00
C258   C     0.06123   0.80737   0.16650   0.00000  Uiso   1.00
C259   C     0.34654   0.91071   0.16733   0.00000  Uiso   1.00
C260   C     0.00000   0.66962   0.04936   0.00000  Uiso   1.00
C261   C     0.00000   0.83031   0.28388   0.00000  Uiso   1.00
C262   C     0.00000   0.83038   0.04936   0.00000  Uiso   1.00
C263   C     0.00000   0.66969   0.28388   0.00000  Uiso   1.00
C264   C     0.25000   0.91969   0.04945   0.00000  Uiso   1.00
C265   C     0.25000   0.58038   0.28398   0.00000  Uiso   1.00
C266   C     0.25000   0.58031   0.04945   0.00000  Uiso   1.00
C267   C     0.25000   0.91962   0.28398   0.00000  Uiso   1.00
C268   C     0.39851   0.66039   0.07928   0.00000  Uiso   1.00
C269   C     0.31123   0.94262   0.16683   0.00000  Uiso   1.00
C270   C     0.11213   0.82582   0.24954   0.00000  Uiso   1.00
C271   C     0.10149   0.83961   0.07928   0.00000  Uiso   1.00
C272   C     0.38787   0.67418   0.24954   0.00000  Uiso   1.00
C273   C     0.11213   0.67418   0.24954   0.00000  Uiso   1.00
C274   C     0.39851   0.83961   0.07928   0.00000  Uiso   1.00
C275   C     0.38787   0.82582   0.24954   0.00000  Uiso   1.00
C276   C     0.10149   0.66039   0.07928   0.00000  Uiso   1.00
C277   C     0.13787   0.92418   0.08379   0.00000  Uiso   1.00
C278   C     0.35149   0.58961   0.25405   0.00000  Uiso   1.00
C279   C     0.36213   0.57582   0.08379   0.00000  Uiso   1.00
C280   C     0.18878   0.55738   0.16683   0.00000  Uiso   1.00
C281   C     0.14851   0.91039   0.25405   0.00000  Uiso   1.00
C282   C     0.35149   0.91039   0.25405   0.00000  Uiso   1.00
C283   C     0.13787   0.57582   0.08379   0.00000  Uiso   1.00
C284   C     0.14851   0.58961   0.25405   0.00000  Uiso   1.00
C285   C     0.36213   0.92418   0.08379   0.00000  Uiso   1.00
C286   C     0.18878   0.94262   0.16683   0.00000  Uiso   1.00
C287   C     0.31123   0.55738   0.16683   0.00000  Uiso   1.00
C288   C     0.00000   0.71117   0.02477   0.00000  Uiso   1.00
Cu289  Cu    0.00000   0.75000   0.21355   0.00000  Uiso   1.00
Cu290  Cu    0.00000   0.75000   0.11978   0.00000  Uiso   1.00
Cu291  Cu    0.25000   0.50000   0.21355   0.00000  Uiso   1.00
Cu292  Cu    0.25000   0.50000   0.11978   0.00000  Uiso   1.00
N293   N     0.00000   0.75000   0.28402   0.00000  Uiso   1.00
N294   N     0.25000   0.61389   0.26467   0.00000  Uiso   1.00
N295   N     0.25000   0.61375   0.06887   0.00000  Uiso   1.00
N296   N     0.25000   0.88611   0.26467   0.00000  Uiso   1.00
N297   N     0.40421   0.67646   0.04347   0.00000  Uiso   1.00
N298   N     0.11010   0.80372   0.28217   0.00000  Uiso   1.00
N299   N     0.09579   0.82354   0.04347   0.00000  Uiso   1.00
N300   N     0.38990   0.69628   0.28217   0.00000  Uiso   1.00
N301   N     0.11010   0.69628   0.28217   0.00000  Uiso   1.00
N302   N     0.40421   0.82354   0.04347   0.00000  Uiso   1.00
N303   N     0.38990   0.80372   0.28217   0.00000  Uiso   1.00
N304   N     0.00000   0.75000   0.04931   0.00000  Uiso   1.00
N305   N     0.09579   0.67646   0.04347   0.00000  Uiso   1.00
N306   N     0.13990   0.94628   0.05117   0.00000  Uiso   1.00
N307   N     0.34579   0.57354   0.28986   0.00000  Uiso   1.00
N308   N     0.36010   0.55372   0.05117   0.00000  Uiso   1.00
N309   N     0.15421   0.92646   0.28986   0.00000  Uiso   1.00
N310   N     0.34579   0.92646   0.28986   0.00000  Uiso   1.00
N311   N     0.13990   0.55372   0.05117   0.00000  Uiso   1.00
N312   N     0.15421   0.57354   0.28986   0.00000  Uiso   1.00
N313   N     0.36010   0.94628   0.05117   0.00000  Uiso   1.00
N314   N     0.25000   0.50000   0.28402   0.00000  Uiso   1.00
N315   N     0.25000   0.50000   0.04931   0.00000  Uiso   1.00
N316   N     0.00000   0.63611   0.06867   0.00000  Uiso   1.00
N317   N     0.00000   0.86375   0.26446   0.00000  Uiso   1.00
N318   N     0.00000   0.86389   0.06867   0.00000  Uiso   1.00
N319   N     0.00000   0.63625   0.26446   0.00000  Uiso   1.00
N320   N     0.25000   0.88625   0.06887   0.00000  Uiso   1.00
O321   O     0.04509   0.70491   0.20625   0.00000  Uiso   1.00
O322   O     0.20492   0.54509   0.12709   0.00000  Uiso   1.00
O323   O     0.20492   0.54509   0.20625   0.00000  Uiso   1.00
O324   O     0.29509   0.95491   0.12709   0.00000  Uiso   1.00
O325   O     0.20492   0.95491   0.12709   0.00000  Uiso   1.00
O326   O     0.29509   0.54509   0.20625   0.00000  Uiso   1.00
O327   O     0.29509   0.54509   0.12709   0.00000  Uiso   1.00
O328   O     0.20492   0.95491   0.20625   0.00000  Uiso   1.00
O329   O     0.45492   0.79509   0.12709   0.00000  Uiso   1.00
O330   O     0.45492   0.79509   0.20625   0.00000  Uiso   1.00
O331   O     0.04509   0.70491   0.12709   0.00000  Uiso   1.00
O332   O     0.45492   0.70491   0.12709   0.00000  Uiso   1.00
O333   O     0.04509   0.79509   0.20625   0.00000  Uiso   1.00
O334   O     0.04509   0.79509   0.12709   0.00000  Uiso   1.00
O335   O     0.45492   0.70491   0.20625   0.00000  Uiso   1.00
O336   O     0.29509   0.95491   0.20625   0.00000  Uiso   1.00
C337   C     0.56123   0.69262   0.16650   0.00000  Uiso   1.00
C338   C     0.50000   0.78882   0.30854   0.00000  Uiso   1.00
C339   C     0.50000   0.78883   0.02477   0.00000  Uiso   1.00
C340   C     0.50000   0.71118   0.30854   0.00000  Uiso   1.00
C341   C     0.75000   0.96118   0.02480   0.00000  Uiso   1.00
C342   C     0.75000   0.53883   0.30857   0.00000  Uiso   1.00
C343   C     0.75000   0.53882   0.02480   0.00000  Uiso   1.00
C344   C     0.75000   0.96117   0.30857   0.00000  Uiso   1.00
C345   C     0.89046   0.64047   0.12407   0.00000  Uiso   1.00
C346   C     0.61510   0.85286   0.20812   0.00000  Uiso   1.00
C347   C     0.60954   0.85953   0.12407   0.00000  Uiso   1.00
C348   C     0.93878   0.80738   0.16650   0.00000  Uiso   1.00
C349   C     0.88491   0.64714   0.20812   0.00000  Uiso   1.00
C350   C     0.61510   0.64714   0.20812   0.00000  Uiso   1.00
C351   C     0.89046   0.85953   0.12407   0.00000  Uiso   1.00
C352   C     0.88491   0.85286   0.20812   0.00000  Uiso   1.00
C353   C     0.60954   0.64047   0.12407   0.00000  Uiso   1.00
C354   C     0.63491   0.89714   0.12522   0.00000  Uiso   1.00
C355   C     0.85954   0.60953   0.20926   0.00000  Uiso   1.00
C356   C     0.86510   0.60286   0.12522   0.00000  Uiso   1.00
C357   C     0.64046   0.89047   0.20926   0.00000  Uiso   1.00
C358   C     0.85954   0.89047   0.20926   0.00000  Uiso   1.00
C359   C     0.93878   0.69263   0.16650   0.00000  Uiso   1.00
C360   C     0.63491   0.60286   0.12522   0.00000  Uiso   1.00
C361   C     0.64046   0.60953   0.20926   0.00000  Uiso   1.00
C362   C     0.86510   0.89714   0.12522   0.00000  Uiso   1.00
C363   C     0.59654   0.83929   0.16600   0.00000  Uiso   1.00
C364   C     0.90346   0.66071   0.16600   0.00000  Uiso   1.00
C365   C     0.90346   0.83929   0.16600   0.00000  Uiso   1.00
C366   C     0.59654   0.66071   0.16600   0.00000  Uiso   1.00
C367   C     0.84654   0.58929   0.16733   0.00000  Uiso   1.00
C368   C     0.65346   0.91071   0.16733   0.00000  Uiso   1.00
C369   C     0.65346   0.58929   0.16733   0.00000  Uiso   1.00
C370   C     0.56123   0.80737   0.16650   0.00000  Uiso   1.00
C371   C     0.84654   0.91071   0.16733   0.00000  Uiso   1.00
C372   C     0.50000   0.66962   0.04936   0.00000  Uiso   1.00
C373   C     0.50000   0.83031   0.28388   0.00000  Uiso   1.00
C374   C     0.50000   0.83038   0.04936   0.00000  Uiso   1.00
C375   C     0.50000   0.66969   0.28388   0.00000  Uiso   1.00
C376   C     0.75000   0.91969   0.04945   0.00000  Uiso   1.00
C377   C     0.75000   0.58038   0.28398   0.00000  Uiso   1.00
C378   C     0.75000   0.58031   0.04945   0.00000  Uiso   1.00
C379   C     0.75000   0.91962   0.28398   0.00000  Uiso   1.00
C380   C     0.89851   0.66039   0.07928   0.00000  Uiso   1.00
C381   C     0.81123   0.94262   0.16683   0.00000  Uiso   1.00
C382   C     0.61213   0.82582   0.24954   0.00000  Uiso   1.00
C383   C     0.60149   0.83961   0.07928   0.00000  Uiso   1.00
C384   C     0.88787   0.67418   0.24954   0.00000  Uiso   1.00
C385   C     0.61213   0.67418   0.24954   0.00000  Uiso   1.00
C386   C     0.89851   0.83961   0.07928   0.00000  Uiso   1.00
C387   C     0.88787   0.82582   0.24954   0.00000  Uiso   1.00
C388   C     0.60149   0.66039   0.07928   0.00000  Uiso   1.00
C389   C     0.63787   0.92418   0.08379   0.00000  Uiso   1.00
C390   C     0.85149   0.58961   0.25405   0.00000  Uiso   1.00
C391   C     0.86213   0.57582   0.08379   0.00000  Uiso   1.00
C392   C     0.68878   0.55738   0.16683   0.00000  Uiso   1.00
C393   C     0.64851   0.91039   0.25405   0.00000  Uiso   1.00
C394   C     0.85149   0.91039   0.25405   0.00000  Uiso   1.00
C395   C     0.63787   0.57582   0.08379   0.00000  Uiso   1.00
C396   C     0.64851   0.58961   0.25405   0.00000  Uiso   1.00
C397   C     0.86213   0.92418   0.08379   0.00000  Uiso   1.00
C398   C     0.68878   0.94262   0.16683   0.00000  Uiso   1.00
C399   C     0.81123   0.55738   0.16683   0.00000  Uiso   1.00
C400   C     0.50000   0.71117   0.02477   0.00000  Uiso   1.00
Cu401  Cu    0.50000   0.75000   0.21355   0.00000  Uiso   1.00
Cu402  Cu    0.50000   0.75000   0.11978   0.00000  Uiso   1.00
Cu403  Cu    0.75000   0.50000   0.21355   0.00000  Uiso   1.00
Cu404  Cu    0.75000   0.50000   0.11978   0.00000  Uiso   1.00
N405   N     0.50000   0.75000   0.28402   0.00000  Uiso   1.00
N406   N     0.75000   0.61389   0.26467   0.00000  Uiso   1.00
N407   N     0.75000   0.61375   0.06887   0.00000  Uiso   1.00
N408   N     0.75000   0.88611   0.26467   0.00000  Uiso   1.00
N409   N     0.90421   0.67646   0.04347   0.00000  Uiso   1.00
N410   N     0.61010   0.80372   0.28217   0.00000  Uiso   1.00
N411   N     0.59579   0.82354   0.04347   0.00000  Uiso   1.00
N412   N     0.88990   0.69628   0.28217   0.00000  Uiso   1.00
N413   N     0.61010   0.69628   0.28217   0.00000  Uiso   1.00
N414   N     0.90421   0.82354   0.04347   0.00000  Uiso   1.00
N415   N     0.88990   0.80372   0.28217   0.00000  Uiso   1.00
N416   N     0.50000   0.75000   0.04931   0.00000  Uiso   1.00
N417   N     0.59579   0.67646   0.04347   0.00000  Uiso   1.00
N418   N     0.63990   0.94628   0.05117   0.00000  Uiso   1.00
N419   N     0.84579   0.57354   0.28986   0.00000  Uiso   1.00
N420   N     0.86010   0.55372   0.05117   0.00000  Uiso   1.00
N421   N     0.65421   0.92646   0.28986   0.00000  Uiso   1.00
N422   N     0.84579   0.92646   0.28986   0.00000  Uiso   1.00
N423   N     0.63990   0.55372   0.05117   0.00000  Uiso   1.00
N424   N     0.65421   0.57354   0.28986   0.00000  Uiso   1.00
N425   N     0.86010   0.94628   0.05117   0.00000  Uiso   1.00
N426   N     0.75000   0.50000   0.28402   0.00000  Uiso   1.00
N427   N     0.75000   0.50000   0.04931   0.00000  Uiso   1.00
N428   N     0.50000   0.63611   0.06867   0.00000  Uiso   1.00
N429   N     0.50000   0.86375   0.26446   0.00000  Uiso   1.00
N430   N     0.50000   0.86389   0.06867   0.00000  Uiso   1.00
N431   N     0.50000   0.63625   0.26446   0.00000  Uiso   1.00
N432   N     0.75000   0.88625   0.06887   0.00000  Uiso   1.00
O433   O     0.54509   0.70491   0.20625   0.00000  Uiso   1.00
O434   O     0.70492   0.54509   0.12709   0.00000  Uiso   1.00
O435   O     0.70492   0.54509   0.20625   0.00000  Uiso   1.00
O436   O     0.79509   0.95491   0.12709   0.00000  Uiso   1.00
O437   O     0.70492   0.95491   0.12709   0.00000  Uiso   1.00
O438   O     0.79509   0.54509   0.20625   0.00000  Uiso   1.00
O439   O     0.79509   0.54509   0.12709   0.00000  Uiso   1.00
O440   O     0.70492   0.95491   0.20625   0.00000  Uiso   1.00
O441   O     0.95492   0.79509   0.12709   0.00000  Uiso   1.00
O442   O     0.95492   0.79509   0.20625   0.00000  Uiso   1.00
O443   O     0.54509   0.70491   0.12709   0.00000  Uiso   1.00
O444   O     0.95492   0.70491   0.12709   0.00000  Uiso   1.00
O445   O     0.54509   0.79509   0.20625   0.00000  Uiso   1.00
O446   O     0.54509   0.79509   0.12709   0.00000  Uiso   1.00
O447   O     0.95492   0.70491   0.20625   0.00000  Uiso   1.00
O448   O     0.79509   0.95491   0.20625   0.00000  Uiso   1.00
C449   C     0.06123   0.19262   0.49983   0.00000  Uiso   1.00
C450   C     0.00000   0.28882   0.64187   0.00000  Uiso   1.00
C451   C     0.00000   0.28883   0.35810   0.00000  Uiso   1.00
C452   C     0.00000   0.21118   0.64187   0.00000  Uiso   1.00
C453   C     0.25000   0.46118   0.35813   0.00000  Uiso   1.00
C454   C     0.25000   0.03883   0.64190   0.00000  Uiso   1.00
C455   C     0.25000   0.03882   0.35813   0.00000  Uiso   1.00
C456   C     0.25000   0.46117   0.64190   0.00000  Uiso   1.00
C457   C     0.39046   0.14047   0.45740   0.00000  Uiso   1.00
C458   C     0.11510   0.35286   0.54145   0.00000  Uiso   1.00
C459   C     0.10954   0.35953   0.45740   0.00000  Uiso   1.00
C460   C     0.43878   0.30738   0.49983   0.00000  Uiso   1.00
C461   C     0.38491   0.14714   0.54145   0.00000  Uiso   1.00
C462   C     0.11510   0.14714   0.54145   0.00000  Uiso   1.00
C463   C     0.39046   0.35953   0.45740   0.00000  Uiso   1.00
C464   C     0.38491   0.35286   0.54145   0.00000  Uiso   1.00
C465   C     0.10954   0.14047   0.45740   0.00000  Uiso   1.00
C466   C     0.13491   0.39714   0.45855   0.00000  Uiso   1.00
C467   C     0.35954   0.10953   0.54260   0.00000  Uiso   1.00
C468   C     0.36510   0.10286   0.45855   0.00000  Uiso   1.00
C469   C     0.14046   0.39047   0.54260   0.00000  Uiso   1.00
C470   C     0.35954   0.39047   0.54260   0.00000  Uiso   1.00
C471   C     0.43878   0.19263   0.49983   0.00000  Uiso   1.00
C472   C     0.13491   0.10286   0.45855   0.00000  Uiso   1.00
C473   C     0.14046   0.10953   0.54260   0.00000  Uiso   1.00
C474   C     0.36510   0.39714   0.45855   0.00000  Uiso   1.00
C475   C     0.09654   0.33929   0.49934   0.00000  Uiso   1.00
C476   C     0.40346   0.16071   0.49934   0.00000  Uiso   1.00
C477   C     0.40346   0.33929   0.49934   0.00000  Uiso   1.00
C478   C     0.09654   0.16071   0.49934   0.00000  Uiso   1.00
C479   C     0.34654   0.08929   0.50067   0.00000  Uiso   1.00
C480   C     0.15346   0.41071   0.50067   0.00000  Uiso   1.00
C481   C     0.15346   0.08929   0.50067   0.00000  Uiso   1.00
C482   C     0.06123   0.30737   0.49983   0.00000  Uiso   1.00
C483   C     0.34654   0.41071   0.50067   0.00000  Uiso   1.00
C484   C     0.00000   0.16962   0.38269   0.00000  Uiso   1.00
C485   C     0.00000   0.33031   0.61721   0.00000  Uiso   1.00
C486   C     0.00000   0.33038   0.38269   0.00000  Uiso   1.00
C487   C     0.00000   0.16969   0.61721   0.00000  Uiso   1.00
C488   C     0.25000   0.41969   0.38279   0.00000  Uiso   1.00
C489   C     0.25000   0.08038   0.61731   0.00000  Uiso   1.00
C490   C     0.25000   0.08031   0.38279   0.00000  Uiso   1.00
C491   C     0.25000   0.41962   0.61731   0.00000  Uiso   1.00
C492   C     0.39851   0.16039   0.41262   0.00000  Uiso   1.00
C493   C     0.31123   0.44262   0.50017   0.00000  Uiso   1.00
C494   C     0.11213   0.32582   0.58288   0.00000  Uiso   1.00
C495   C     0.10149   0.33961   0.41262   0.00000  Uiso   1.00
C496   C     0.38787   0.17418   0.58288   0.00000  Uiso   1.00
C497   C     0.11213   0.17418   0.58288   0.00000  Uiso   1.00
C498   C     0.39851   0.33961   0.41262   0.00000  Uiso   1.00
C499   C     0.38787   0.32582   0.58288   0.00000  Uiso   1.00
C500   C     0.10149   0.16039   0.41262   0.00000  Uiso   1.00
C501   C     0.13787   0.42418   0.41712   0.00000  Uiso   1.00
C502   C     0.35149   0.08961   0.58738   0.00000  Uiso   1.00
C503   C     0.36213   0.07582   0.41712   0.00000  Uiso   1.00
C504   C     0.18878   0.05738   0.50017   0.00000  Uiso   1.00
C505   C     0.14851   0.41039   0.58738   0.00000  Uiso   1.00
C506   C     0.35149   0.41039   0.58738   0.00000  Uiso   1.00
C507   C     0.13787   0.07582   0.41712   0.00000  Uiso   1.00
C508   C     0.14851   0.08961   0.58738   0.00000  Uiso   1.00
C509   C     0.36213   0.42418   0.41712   0.00000  Uiso   1.00
C510   C     0.18878   0.44262   0.50017   0.00000  Uiso   1.00
C511   C     0.31123   0.05738   0.50017   0.00000  Uiso   1.00
C512   C     0.00000   0.21117   0.35810   0.00000  Uiso   1.00
Cu513  Cu    0.00000   0.25000   0.54689   0.00000  Uiso   1.00
Cu514  Cu    0.00000   0.25000   0.45311   0.00000  Uiso   1.00
Cu515  Cu    0.25000   0.00000   0.54689   0.00000  Uiso   1.00
Cu516  Cu    0.25000   0.00000   0.45311   0.00000  Uiso   1.00
N517   N     0.00000   0.25000   0.61736   0.00000  Uiso   1.00
N518   N     0.25000   0.11389   0.59800   0.00000  Uiso   1.00
N519   N     0.25000   0.11375   0.40221   0.00000  Uiso   1.00
N520   N     0.25000   0.38611   0.59800   0.00000  Uiso   1.00
N521   N     0.40421   0.17646   0.37680   0.00000  Uiso   1.00
N522   N     0.11010   0.30372   0.61550   0.00000  Uiso   1.00
N523   N     0.09579   0.32354   0.37680   0.00000  Uiso   1.00
N524   N     0.38990   0.19628   0.61550   0.00000  Uiso   1.00
N525   N     0.11010   0.19628   0.61550   0.00000  Uiso   1.00
N526   N     0.40421   0.32354   0.37680   0.00000  Uiso   1.00
N527   N     0.38990   0.30372   0.61550   0.00000  Uiso   1.00
N528   N     0.00000   0.25000   0.38264   0.00000  Uiso   1.00
N529   N     0.09579   0.17646   0.37680   0.00000  Uiso   1.00
N530   N     0.13990   0.44628   0.38450   0.00000  Uiso   1.00
N531   N     0.34579   0.07354   0.62320   0.00000  Uiso   1.00
N532   N     0.36010   0.05372   0.38450   0.00000  Uiso   1.00
N533   N     0.15421   0.42646   0.62320   0.00000  Uiso   1.00
N534   N     0.34579   0.42646   0.62320   0.00000  Uiso   1.00
N535   N     0.13990   0.05372   0.38450   0.00000  Uiso   1.00
N536   N     0.15421   0.07354   0.62320   0.00000  Uiso   1.00
N537   N     0.36010   0.44628   0.38450   0.00000  Uiso   1.00
N538   N     0.25000   0.00000   0.61736   0.00000  Uiso   1.00
N539   N     0.25000   0.00000   0.38264   0.00000  Uiso   1.00
N540   N     0.00000   0.13611   0.40200   0.00000  Uiso   1.00
N541   N     0.00000   0.36375   0.59779   0.00000  Uiso   1.00
N542   N     0.00000   0.36389   0.40200   0.00000  Uiso   1.00
N543   N     0.00000   0.13625   0.59779   0.00000  Uiso   1.00
N544   N     0.25000   0.38625   0.40221   0.00000  Uiso   1.00
O545   O     0.04509   0.20491   0.53958   0.00000  Uiso   1.00
O546   O     0.20492   0.04509   0.46042   0.00000  Uiso   1.00
O547   O     0.20492   0.04509   0.53958   0.00000  Uiso   1.00
O548   O     0.29509   0.45491   0.46042   0.00000  Uiso   1.00
O549   O     0.20492   0.45491   0.46042   0.00000  Uiso   1.00
O550   O     0.29509   0.04509   0.53958   0.00000  Uiso   1.00
O551   O     0.29509   0.04509   0.46042   0.00000  Uiso   1.00
O552   O     0.20492   0.45491   0.53958   0.00000  Uiso   1.00
O553   O     0.45492   0.29509   0.46042   0.00000  Uiso   1.00
O554   O     0.45492   0.29509   0.53958   0.00000  Uiso   1.00
O555   O     0.04509   0.20491   0.46042   0.00000  Uiso   1.00
O556   O     0.45492   0.20491   0.46042   0.00000  Uiso   1.00
O557   O     0.04509   0.29509   0.53958   0.00000  Uiso   1.00
O558   O     0.04509   0.29509   0.46042   0.00000  Uiso   1.00
O559   O     0.45492   0.20491   0.53958   0.00000  Uiso   1.00
O560   O     0.29509   0.45491   0.53958   0.00000  Uiso   1.00
C561   C     0.56123   0.19262   0.49983   0.00000  Uiso   1.00
C562   C     0.50000   0.28882   0.64187   0.00000  Uiso   1.00
C563   C     0.50000   0.28883   0.35810   0.00000  Uiso   1.00
C564   C     0.50000   0.21118   0.64187   0.00000  Uiso   1.00
C565   C     0.75000   0.46118   0.35813   0.00000  Uiso   1.00
C566   C     0.75000   0.03883   0.64190   0.00000  Uiso   1.00
C567   C     0.75000   0.03882   0.35813   0.00000  Uiso   1.00
C568   C     0.75000   0.46117   0.64190   0.00000  Uiso   1.00
C569   C     0.89046   0.14047   0.45740   0.00000  Uiso   1.00
C570   C     0.61510   0.35286   0.54145   0.00000  Uiso   1.00
C571   C     0.60954   0.35953   0.45740   0.00000  Uiso   1.00
C572   C     0.93878   0.30738   0.49983   0.00000  Uiso   1.00
C573   C     0.88491   0.14714   0.54145   0.00000  Uiso   1.00
C574   C     0.61510   0.14714   0.54145   0.00000  Uiso   1.00
C575   C     0.89046   0.35953   0.45740   0.00000  Uiso   1.00
C576   C     0.88491   0.35286   0.54145   0.00000  Uiso   1.00
C577   C     0.60954   0.14047   0.45740   0.00000  Uiso   1.00
C578   C     0.63491   0.39714   0.45855   0.00000  Uiso   1.00
C579   C     0.85954   0.10953   0.54260   0.00000  Uiso   1.00
C580   C     0.86510   0.10286   0.45855   0.00000  Uiso   1.00
C581   C     0.64046   0.39047   0.54260   0.00000  Uiso   1.00
C582   C     0.85954   0.39047   0.54260   0.00000  Uiso   1.00
C583   C     0.93878   0.19263   0.49983   0.00000  Uiso   1.00
C584   C     0.63491   0.10286   0.45855   0.00000  Uiso   1.00
C585   C     0.64046   0.10953   0.54260   0.00000  Uiso   1.00
C586   C     0.86510   0.39714   0.45855   0.00000  Uiso   1.00
C587   C     0.59654   0.33929   0.49934   0.00000  Uiso   1.00
C588   C     0.90346   0.16071   0.49934   0.00000  Uiso   1.00
C589   C     0.90346   0.33929   0.49934   0.00000  Uiso   1.00
C590   C     0.59654   0.16071   0.49934   0.00000  Uiso   1.00
C591   C     0.84654   0.08929   0.50067   0.00000  Uiso   1.00
C592   C     0.65346   0.41071   0.50067   0.00000  Uiso   1.00
C593   C     0.65346   0.08929   0.50067   0.00000  Uiso   1.00
C594   C     0.56123   0.30737   0.49983   0.00000  Uiso   1.00
C595   C     0.84654   0.41071   0.50067   0.00000  Uiso   1.00
C596   C     0.50000   0.16962   0.38269   0.00000  Uiso   1.00
C597   C     0.50000   0.33031   0.61721   0.00000  Uiso   1.00
C598   C     0.50000   0.33038   0.38269   0.00000  Uiso   1.00
C599   C     0.50000   0.16969   0.61721   0.00000  Uiso   1.00
C600   C     0.75000   0.41969   0.38279   0.00000  Uiso   1.00
C601   C     0.75000   0.08038   0.61731   0.00000  Uiso   1.00
C602   C     0.75000   0.08031   0.38279   0.00000  Uiso   1.00
C603   C     0.75000   0.41962   0.61731   0.00000  Uiso   1.00
C604   C     0.89851   0.16039   0.41262   0.00000  Uiso   1.00
C605   C     0.81123   0.44262   0.50017   0.00000  Uiso   1.00
C606   C     0.61213   0.32582   0.58288   0.00000  Uiso   1.00
C607   C     0.60149   0.33961   0.41262   0.00000  Uiso   1.00
C608   C     0.88787   0.17418   0.58288   0.00000  Uiso   1.00
C609   C     0.61213   0.17418   0.58288   0.00000  Uiso   1.00
C610   C     0.89851   0.33961   0.41262   0.00000  Uiso   1.00
C611   C     0.88787   0.32582   0.58288   0.00000  Uiso   1.00
C612   C     0.60149   0.16039   0.41262   0.00000  Uiso   1.00
C613   C     0.63787   0.42418   0.41712   0.00000  Uiso   1.00
C614   C     0.85149   0.08961   0.58738   0.00000  Uiso   1.00
C615   C     0.86213   0.07582   0.41712   0.00000  Uiso   1.00
C616   C     0.68878   0.05738   0.50017   0.00000  Uiso   1.00
C617   C     0.64851   0.41039   0.58738   0.00000  Uiso   1.00
C618   C     0.85149   0.41039   0.58738   0.00000  Uiso   1.00
C619   C     0.63787   0.07582   0.41712   0.00000  Uiso   1.00
C620   C     0.64851   0.08961   0.58738   0.00000  Uiso   1.00
C621   C     0.86213   0.42418   0.41712   0.00000  Uiso   1.00
C622   C     0.68878   0.44262   0.50017   0.00000  Uiso   1.00
C623   C     0.81123   0.05738   0.50017   0.00000  Uiso   1.00
C624   C     0.50000   0.21117   0.35810   0.00000  Uiso   1.00
Cu625  Cu    0.50000   0.25000   0.54689   0.00000  Uiso   1.00
Cu626  Cu    0.50000   0.25000   0.45311   0.00000  Uiso   1.00
Cu627  Cu    0.75000   0.00000   0.54689   0.00000  Uiso   1.00
Cu628  Cu    0.75000   0.00000   0.45311   0.00000  Uiso   1.00
N629   N     0.50000   0.25000   0.61736   0.00000  Uiso   1.00
N630   N     0.75000   0.11389   0.59800   0.00000  Uiso   1.00
N631   N     0.75000   0.11375   0.40221   0.00000  Uiso   1.00
N632   N     0.75000   0.38611   0.59800   0.00000  Uiso   1.00
N633   N     0.90421   0.17646   0.37680   0.00000  Uiso   1.00
N634   N     0.61010   0.30372   0.61550   0.00000  Uiso   1.00
N635   N     0.59579   0.32354   0.37680   0.00000  Uiso   1.00
N636   N     0.88990   0.19628   0.61550   0.00000  Uiso   1.00
N637   N     0.61010   0.19628   0.61550   0.00000  Uiso   1.00
N638   N     0.90421   0.32354   0.37680   0.00000  Uiso   1.00
N639   N     0.88990   0.30372   0.61550   0.00000  Uiso   1.00
N640   N     0.50000   0.25000   0.38264   0.00000  Uiso   1.00
N641   N     0.59579   0.17646   0.37680   0.00000  Uiso   1.00
N642   N     0.63990   0.44628   0.38450   0.00000  Uiso   1.00
N643   N     0.84579   0.07354   0.62320   0.00000  Uiso   1.00
N644   N     0.86010   0.05372   0.38450   0.00000  Uiso   1.00
N645   N     0.65421   0.42646   0.62320   0.00000  Uiso   1.00
N646   N     0.84579   0.42646   0.62320   0.00000  Uiso   1.00
N647   N     0.63990   0.05372   0.38450   0.00000  Uiso   1.00
N648   N     0.65421   0.07354   0.62320   0.00000  Uiso   1.00
N649   N     0.86010   0.44628   0.38450   0.00000  Uiso   1.00
N650   N     0.75000   0.00000   0.61736   0.00000  Uiso   1.00
N651   N     0.75000   0.00000   0.38264   0.00000  Uiso   1.00
N652   N     0.50000   0.13611   0.40200   0.00000  Uiso   1.00
N653   N     0.50000   0.36375   0.59779   0.00000  Uiso   1.00
N654   N     0.50000   0.36389   0.40200   0.00000  Uiso   1.00
N655   N     0.50000   0.13625   0.59779   0.00000  Uiso   1.00
N656   N     0.75000   0.38625   0.40221   0.00000  Uiso   1.00
O657   O     0.54509   0.20491   0.53958   0.00000  Uiso   1.00
O658   O     0.70492   0.04509   0.46042   0.00000  Uiso   1.00
O659   O     0.70492   0.04509   0.53958   0.00000  Uiso   1.00
O660   O     0.79509   0.45491   0.46042   0.00000  Uiso   1.00
O661   O     0.70492   0.45491   0.46042   0.00000  Uiso   1.00
O662   O     0.79509   0.04509   0.53958   0.00000  Uiso   1.00
O663   O     0.79509   0.04509   0.46042   0.00000  Uiso   1.00
O664   O     0.70492   0.45491   0.53958   0.00000  Uiso   1.00
O665   O     0.95492   0.29509   0.46042   0.00000  Uiso   1.00
O666   O     0.95492   0.29509   0.53958   0.00000  Uiso   1.00
O667   O     0.54509   0.20491   0.46042   0.00000  Uiso   1.00
O668   O     0.95492   0.20491   0.46042   0.00000  Uiso   1.00
O669   O     0.54509   0.29509   0.53958   0.00000  Uiso   1.00
O670   O     0.54509   0.29509   0.46042   0.00000  Uiso   1.00
O671   O     0.95492   0.20491   0.53958   0.00000  Uiso   1.00
O672   O     0.79509   0.45491   0.53958   0.00000  Uiso   1.00
C673   C     0.06123   0.69262   0.49983   0.00000  Uiso   1.00
C674   C     0.00000   0.78882   0.64187   0.00000  Uiso   1.00
C675   C     0.00000   0.78883   0.35810   0.00000  Uiso   1.00
C676   C     0.00000   0.71118   0.64187   0.00000  Uiso   1.00
C677   C     0.25000   0.96118   0.35813   0.00000  Uiso   1.00
C678   C     0.25000   0.53883   0.64190   0.00000  Uiso   1.00
C679   C     0.25000   0.53882   0.35813   0.00000  Uiso   1.00
C680   C     0.25000   0.96117   0.64190   0.00000  Uiso   1.00
C681   C     0.39046   0.64047   0.45740   0.00000  Uiso   1.00
C682   C     0.11510   0.85286   0.54145   0.00000  Uiso   1.00
C683   C     0.10954   0.85953   0.45740   0.00000  Uiso   1.00
C684   C     0.43878   0.80738   0.49983   0.00000  Uiso   1.00
C685   C     0.38491   0.64714   0.54145   0.00000  Uiso   1.00
C686   C     0.11510   0.64714   0.54145   0.00000  Uiso   1.00
C687   C     0.39046   0.85953   0.45740   0.00000  Uiso   1.00
C688   C     0.38491   0.85286   0.54145   0.00000  Uiso   1.00
C689   C     0.10954   0.64047   0.45740   0.00000  Uiso   1.00
C690   C     0.13491   0.89714   0.45855   0.00000  Uiso   1.00
C691   C     0.35954   0.60953   0.54260   0.00000  Uiso   1.00
C692   C     0.36510   0.60286   0.45855   0.00000  Uiso   1.00
C693   C     0.14046   0.89047   0.54260   0.00000  Uiso   1.00
C694   C     0.35954   0.89047   0.54260   0.00000  Uiso   1.00
C695   C     0.43878   0.69263   0.49983   0.00000  Uiso   1.00
C696   C     0.13491   0.60286   0.45855   0.00000  Uiso   1.00
C697   C     0.14046   0.60953   0.54260   0.00000  Uiso   1.00
C698   C     0.36510   0.89714   0.45855   0.00000  Uiso   1.00
C699   C     0.09654   0.83929   0.49934   0.00000  Uiso   1.00
C700   C     0.40346   0.66071   0.49934   0.00000  Uiso   1.00
C701   C     0.40346   0.83929   0.49934   0.00000  Uiso   1.00
C702   C     0.09654   0.66071   0.49934   0.00000  Uiso   1.00
C703   C     0.34654   0.58929   0.50067   0.00000  Uiso   1.00
C704   C     0.15346   0.91071   0.50067   0.00000  Uiso   1.00
C705   C     0.15346   0.58929   0.50067   0.00000  Uiso   1.00
C706   C     0.06123   0.80737   0.49983   0.00000  Uiso   1.00
C707   C     0.34654   0.91071   0.50067   0.00000  Uiso   1.00
C708   C     0.00000   0.66962   0.38269   0.00000  Uiso   1.00
C709   C     0.00000   0.83031   0.61721   0.00000  Uiso   1.00
C710   C     0.00000   0.83038   0.38269   0.00000  Uiso   1.00
C711   C     0.00000   0.66969   0.61721   0.00000  Uiso   1.00
C712   C     0.25000   0.91969   0.38279   0.00000  Uiso   1.00
C713   C     0.25000   0.58038   0.61731   0.00000  Uiso   1.00
C714   C     0.25000   0.58031   0.38279   0.00000  Uiso   1.00
C715   C     0.25000   0.91962   0.61731   0.00000  Uiso   1.00
C716   C     0.39851   0.66039   0.41262   0.00000  Uiso   1.00
C717   C     0.31123   0.94262   0.50017   0.00000  Uiso   1.00
C718   C     0.11213   0.82582   0.58288   0.00000  Uiso   1.00
C719   C     0.10149   0.83961   0.41262   0.00000  Uiso   1.00
C720   C     0.38787   0.67418   0.58288   0.00000  Uiso   1.00
C721   C     0.11213   0.67418   0.58288   0.00000  Uiso   1.00
C722   C     0.39851   0.83961   0.41262   0.00000  Uiso   1.00
C723   C     0.38787   0.82582   0.58288   0.00000  Uiso   1.00
C724   C     0.10149   0.66039   0.41262   0.00000  Uiso   1.00
C725   C     0.13787   0.92418   0.41712   0.00000  Uiso   1.00
C726   C     0.35149   0.58961   0.58738   0.00000  Uiso   1.00
C727   C     0.36213   0.57582   0.41712   0.00000  Uiso   1.00
C728   C     0.18878   0.55738   0.50017   0.00000  Uiso   1.00
C729   C     0.14851   0.91039   0.58738   0.00000  Uiso   1.00
C730   C     0.35149   0.91039   0.58738   0.00000  Uiso   1.00
C731   C     0.13787   0.57582   0.41712   0.00000  Uiso   1.00
C732   C     0.14851   0.58961   0.58738   0.00000  Uiso   1.00
C733   C     0.36213   0.92418   0.41712   0.00000  Uiso   1.00
C734   C     0.18878   0.94262   0.50017   0.00000  Uiso   1.00
C735   C     0.31123   0.55738   0.50017   0.00000  Uiso   1.00
C736   C     0.00000   0.71117   0.35810   0.00000  Uiso   1.00
Cu737  Cu    0.00000   0.75000   0.54689   0.00000  Uiso   1.00
Cu738  Cu    0.00000   0.75000   0.45311   0.00000  Uiso   1.00
Cu739  Cu    0.25000   0.50000   0.54689   0.00000  Uiso   1.00
Cu740  Cu    0.25000   0.50000   0.45311   0.00000  Uiso   1.00
N741   N     0.00000   0.75000   0.61736   0.00000  Uiso   1.00
N742   N     0.25000   0.61389   0.59800   0.00000  Uiso   1.00
N743   N     0.25000   0.61375   0.40221   0.00000  Uiso   1.00
N744   N     0.25000   0.88611   0.59800   0.00000  Uiso   1.00
N745   N     0.40421   0.67646   0.37680   0.00000  Uiso   1.00
N746   N     0.11010   0.80372   0.61550   0.00000  Uiso   1.00
N747   N     0.09579   0.82354   0.37680   0.00000  Uiso   1.00
N748   N     0.38990   0.69628   0.61550   0.00000  Uiso   1.00
N749   N     0.11010   0.69628   0.61550   0.00000  Uiso   1.00
N750   N     0.40421   0.82354   0.37680   0.00000  Uiso   1.00
N751   N     0.38990   0.80372   0.61550   0.00000  Uiso   1.00
N752   N     0.00000   0.75000   0.38264   0.00000  Uiso   1.00
N753   N     0.09579   0.67646   0.37680   0.00000  Uiso   1.00
N754   N     0.13990   0.94628   0.38450   0.00000  Uiso   1.00
N755   N     0.34579   0.57354   0.62320   0.00000  Uiso   1.00
N756   N     0.36010   0.55372   0.38450   0.00000  Uiso   1.00
N757   N     0.15421   0.92646   0.62320   0.00000  Uiso   1.00
N758   N     0.34579   0.92646   0.62320   0.00000  Uiso   1.00
N759   N     0.13990   0.55372   0.38450   0.00000  Uiso   1.00
N760   N     0.15421   0.57354   0.62320   0.00000  Uiso   1.00
N761   N     0.36010   0.94628   0.38450   0.00000  Uiso   1.00
N762   N     0.25000   0.50000   0.61736   0.00000  Uiso   1.00
N763   N     0.25000   0.50000   0.38264   0.00000  Uiso   1.00
N764   N     0.00000   0.63611   0.40200   0.00000  Uiso   1.00
N765   N     0.00000   0.86375   0.59779   0.00000  Uiso   1.00
N766   N     0.00000   0.86389   0.40200   0.00000  Uiso   1.00
N767   N     0.00000   0.63625   0.59779   0.00000  Uiso   1.00
N768   N     0.25000   0.88625   0.40221   0.00000  Uiso   1.00
O769   O     0.04509   0.70491   0.53958   0.00000  Uiso   1.00
O770   O     0.20492   0.54509   0.46042   0.00000  Uiso   1.00
O771   O     0.20492   0.54509   0.53958   0.00000  Uiso   1.00
O772   O     0.29509   0.95491   0.46042   0.00000  Uiso   1.00
O773   O     0.20492   0.95491   0.46042   0.00000  Uiso   1.00
O774   O     0.29509   0.54509   0.53958   0.00000  Uiso   1.00
O775   O     0.29509   0.54509   0.46042   0.00000  Uiso   1.00
O776   O     0.20492   0.95491   0.53958   0.00000  Uiso   1.00
O777   O     0.45492   0.79509   0.46042   0.00000  Uiso   1.00
O778   O     0.45492   0.79509   0.53958   0.00000  Uiso   1.00
O779   O     0.04509   0.70491   0.46042   0.00000  Uiso   1.00
O780   O     0.45492   0.70491   0.46042   0.00000  Uiso   1.00
O781   O     0.04509   0.79509   0.53958   0.00000  Uiso   1.00
O782   O     0.04509   0.79509   0.46042   0.00000  Uiso   1.00
O783   O     0.45492   0.70491   0.53958   0.00000  Uiso   1.00
O784   O     0.29509   0.95491   0.53958   0.00000  Uiso   1.00
C785   C     0.56123   0.69262   0.49983   0.00000  Uiso   1.00
C786   C     0.50000   0.78882   0.64187   0.00000  Uiso   1.00
C787   C     0.50000   0.78883   0.35810   0.00000  Uiso   1.00
C788   C     0.50000   0.71118   0.64187   0.00000  Uiso   1.00
C789   C     0.75000   0.96118   0.35813   0.00000  Uiso   1.00
C790   C     0.75000   0.53883   0.64190   0.00000  Uiso   1.00
C791   C     0.75000   0.53882   0.35813   0.00000  Uiso   1.00
C792   C     0.75000   0.96117   0.64190   0.00000  Uiso   1.00
C793   C     0.89046   0.64047   0.45740   0.00000  Uiso   1.00
C794   C     0.61510   0.85286   0.54145   0.00000  Uiso   1.00
C795   C     0.60954   0.85953   0.45740   0.00000  Uiso   1.00
C796   C     0.93878   0.80738   0.49983   0.00000  Uiso   1.00
C797   C     0.88491   0.64714   0.54145   0.00000  Uiso   1.00
C798   C     0.61510   0.64714   0.54145   0.00000  Uiso   1.00
C799   C     0.89046   0.85953   0.45740   0.00000  Uiso   1.00
C800   C     0.88491   0.85286   0.54145   0.00000  Uiso   1.00
C801   C     0.60954   0.64047   0.45740   0.00000  Uiso   1.00
C802   C     0.63491   0.89714   0.45855   0.00000  Uiso   1.00
C803   C     0.85954   0.60953   0.54260   0.00000  Uiso   1.00
C804   C     0.86510   0.60286   0.45855   0.00000  Uiso   1.00
C805   C     0.64046   0.89047   0.54260   0.00000  Uiso   1.00
C806   C     0.85954   0.89047   0.54260   0.00000  Uiso   1.00
C807   C     0.93878   0.69263   0.49983   0.00000  Uiso   1.00
C808   C     0.63491   0.60286   0.45855   0.00000  Uiso   1.00
C809   C     0.64046   0.60953   0.54260   0.00000  Uiso   1.00
C810   C     0.86510   0.89714   0.45855   0.00000  Uiso   1.00
C811   C     0.59654   0.83929   0.49934   0.00000  Uiso   1.00
C812   C     0.90346   0.66071   0.49934   0.00000  Uiso   1.00
C813   C     0.90346   0.83929   0.49934   0.00000  Uiso   1.00
C814   C     0.59654   0.66071   0.49934   0.00000  Uiso   1.00
C815   C     0.84654   0.58929   0.50067   0.00000  Uiso   1.00
C816   C     0.65346   0.91071   0.50067   0.00000  Uiso   1.00
C817   C     0.65346   0.58929   0.50067   0.00000  Uiso   1.00
C818   C     0.56123   0.80737   0.49983   0.00000  Uiso   1.00
C819   C     0.84654   0.91071   0.50067   0.00000  Uiso   1.00
C820   C     0.50000   0.66962   0.38269   0.00000  Uiso   1.00
C821   C     0.50000   0.83031   0.61721   0.00000  Uiso   1.00
C822   C     0.50000   0.83038   0.38269   0.00000  Uiso   1.00
C823   C     0.50000   0.66969   0.61721   0.00000  Uiso   1.00
C824   C     0.75000   0.91969   0.38279   0.00000  Uiso   1.00
C825   C     0.75000   0.58038   0.61731   0.00000  Uiso   1.00
C826   C     0.75000   0.58031   0.38279   0.00000  Uiso   1.00
C827   C     0.75000   0.91962   0.61731   0.00000  Uiso   1.00
C828   C     0.89851   0.66039   0.41262   0.00000  Uiso   1.00
C829   C     0.81123   0.94262   0.50017   0.00000  Uiso   1.00
C830   C     0.61213   0.82582   0.58288   0.00000  Uiso   1.00
C831   C     0.60149   0.83961   0.41262   0.00000  Uiso   1.00
C832   C     0.88787   0.67418   0.58288   0.00000  Uiso   1.00
C833   C     0.61213   0.67418   0.58288   0.00000  Uiso   1.00
C834   C     0.89851   0.83961   0.41262   0.00000  Uiso   1.00
C835   C     0.88787   0.82582   0.58288   0.00000  Uiso   1.00
C836   C     0.60149   0.66039   0.41262   0.00000  Uiso   1.00
C837   C     0.63787   0.92418   0.41712   0.00000  Uiso   1.00
C838   C     0.85149   0.58961   0.58738   0.00000  Uiso   1.00
C839   C     0.86213   0.57582   0.41712   0.00000  Uiso   1.00
C840   C     0.68878   0.55738   0.50017   0.00000  Uiso   1.00
C841   C     0.64851   0.91039   0.58738   0.00000  Uiso   1.00
C842   C     0.85149   0.91039   0.58738   0.00000  Uiso   1.00
C843   C     0.63787   0.57582   0.41712   0.00000  Uiso   1.00
C844   C     0.64851   0.58961   0.58738   0.00000  Uiso   1.00
C845   C     0.86213   0.92418   0.41712   0.00000  Uiso   1.00
C846   C     0.68878   0.94262   0.50017   0.00000  Uiso   1.00
C847   C     0.81123   0.55738   0.50017   0.00000  Uiso   1.00
C848   C     0.50000   0.71117   0.35810   0.00000  Uiso   1.00
Cu849  Cu    0.50000   0.75000   0.54689   0.00000  Uiso   1.00
Cu850  Cu    0.50000   0.75000   0.45311   0.00000  Uiso   1.00
Cu851  Cu    0.75000   0.50000   0.54689   0.00000  Uiso   1.00
Cu852  Cu    0.75000   0.50000   0.45311   0.00000  Uiso   1.00
N853   N     0.50000   0.75000   0.61736   0.00000  Uiso   1.00
N854   N     0.75000   0.61389   0.59800   0.00000  Uiso   1.00
N855   N     0.75000   0.61375   0.40221   0.00000  Uiso   1.00
N856   N     0.75000   0.88611   0.59800   0.00000  Uiso   1.00
N857   N     0.90421   0.67646   0.37680   0.00000  Uiso   1.00
N858   N     0.61010   0.80372   0.61550   0.00000  Uiso   1.00
N859   N     0.59579   0.82354   0.37680   0.00000  Uiso   1.00
N860   N     0.88990   0.69628   0.61550   0.00000  Uiso   1.00
N861   N     0.61010   0.69628   0.61550   0.00000  Uiso   1.00
N862   N     0.90421   0.82354   0.37680   0.00000  Uiso   1.00
N863   N     0.88990   0.80372   0.61550   0.00000  Uiso   1.00
N864   N     0.50000   0.75000   0.38264   0.00000  Uiso   1.00
N865   N     0.59579   0.67646   0.37680   0.00000  Uiso   1.00
N866   N     0.63990   0.94628   0.38450   0.00000  Uiso   1.00
N867   N     0.84579   0.57354   0.62320   0.00000  Uiso   1.00
N868   N     0.86010   0.55372   0.38450   0.00000  Uiso   1.00
N869   N     0.65421   0.92646   0.62320   0.00000  Uiso   1.00
N870   N     0.84579   0.92646   0.62320   0.00000  Uiso   1.00
N871   N     0.63990   0.55372   0.38450   0.00000  Uiso   1.00
N872   N     0.65421   0.57354   0.62320   0.00000  Uiso   1.00
N873   N     0.86010   0.94628   0.38450   0.00000  Uiso   1.00
N874   N     0.75000   0.50000   0.61736   0.00000  Uiso   1.00
N875   N     0.75000   0.50000   0.38264   0.00000  Uiso   1.00
N876   N     0.50000   0.63611   0.40200   0.00000  Uiso   1.00
N877   N     0.50000   0.86375   0.59779   0.00000  Uiso   1.00
N878   N     0.50000   0.86389   0.40200   0.00000  Uiso   1.00
N879   N     0.50000   0.63625   0.59779   0.00000  Uiso   1.00
N880   N     0.75000   0.88625   0.40221   0.00000  Uiso   1.00
O881   O     0.54509   0.70491   0.53958   0.00000  Uiso   1.00
O882   O     0.70492   0.54509   0.46042   0.00000  Uiso   1.00
O883   O     0.70492   0.54509   0.53958   0.00000  Uiso   1.00
O884   O     0.79509   0.95491   0.46042   0.00000  Uiso   1.00
O885   O     0.70492   0.95491   0.46042   0.00000  Uiso   1.00
O886   O     0.79509   0.54509   0.53958   0.00000  Uiso   1.00
O887   O     0.79509   0.54509   0.46042   0.00000  Uiso   1.00
O888   O     0.70492   0.95491   0.53958   0.00000  Uiso   1.00
O889   O     0.95492   0.79509   0.46042   0.00000  Uiso   1.00
O890   O     0.95492   0.79509   0.53958   0.00000  Uiso   1.00
O891   O     0.54509   0.70491   0.46042   0.00000  Uiso   1.00
O892   O     0.95492   0.70491   0.46042   0.00000  Uiso   1.00
O893   O     0.54509   0.79509   0.53958   0.00000  Uiso   1.00
O894   O     0.54509   0.79509   0.46042   0.00000  Uiso   1.00
O895   O     0.95492   0.70491   0.53958   0.00000  Uiso   1.00
O896   O     0.79509   0.95491   0.53958   0.00000  Uiso   1.00
C897   C     0.06123   0.19262   0.83317   0.00000  Uiso   1.00
C898   C     0.00000   0.28882   0.97520   0.00000  Uiso   1.00
C899   C     0.00000   0.28883   0.69143   0.00000  Uiso   1.00
C900   C     0.00000   0.21118   0.97520   0.00000  Uiso   1.00
C901   C     0.25000   0.46118   0.69146   0.00000  Uiso   1.00
C902   C     0.25000   0.03883   0.97523   0.00000  Uiso   1.00
C903   C     0.25000   0.03882   0.69146   0.00000  Uiso   1.00
C904   C     0.25000   0.46117   0.97523   0.00000  Uiso   1.00
C905   C     0.39046   0.14047   0.79074   0.00000  Uiso   1.00
C906   C     0.11510   0.35286   0.87478   0.00000  Uiso   1.00
C907   C     0.10954   0.35953   0.79074   0.00000  Uiso   1.00
C908   C     0.43878   0.30738   0.83317   0.00000  Uiso   1.00
C909   C     0.38491   0.14714   0.87478   0.00000  Uiso   1.00
C910   C     0.11510   0.14714   0.87478   0.00000  Uiso   1.00
C911   C     0.39046   0.35953   0.79074   0.00000  Uiso   1.00
C912   C     0.38491   0.35286   0.87478   0.00000  Uiso   1.00
C913   C     0.10954   0.14047   0.79074   0.00000  Uiso   1.00
C914   C     0.13491   0.39714   0.79189   0.00000  Uiso   1.00
C915   C     0.35954   0.10953   0.87593   0.00000  Uiso   1.00
C916   C     0.36510   0.10286   0.79189   0.00000  Uiso   1.00
C917   C     0.14046   0.39047   0.87593   0.00000  Uiso   1.00
C918   C     0.35954   0.39047   0.87593   0.00000  Uiso   1.00
C919   C     0.43878   0.19263   0.83317   0.00000  Uiso   1.00
C920   C     0.13491   0.10286   0.79189   0.00000  Uiso   1.00
C921   C     0.14046   0.10953   0.87593   0.00000  Uiso   1.00
C922   C     0.36510   0.39714   0.79189   0.00000  Uiso   1.00
C923   C     0.09654   0.33929   0.83267   0.00000  Uiso   1.00
C924   C     0.40346   0.16071   0.83267   0.00000  Uiso   1.00
C925   C     0.40346   0.33929   0.83267   0.00000  Uiso   1.00
C926   C     0.09654   0.16071   0.83267   0.00000  Uiso   1.00
C927   C     0.34654   0.08929   0.83400   0.00000  Uiso   1.00
C928   C     0.15346   0.41071   0.83400   0.00000  Uiso   1.00
C929   C     0.15346   0.08929   0.83400   0.00000  Uiso   1.00
C930   C     0.06123   0.30737   0.83317   0.00000  Uiso   1.00
C931   C     0.34654   0.41071   0.83400   0.00000  Uiso   1.00
C932   C     0.00000   0.16962   0.71602   0.00000  Uiso   1.00
C933   C     0.00000   0.33031   0.95055   0.00000  Uiso   1.00
C934   C     0.00000   0.33038   0.71602   0.00000  Uiso   1.00
C935   C     0.00000   0.16969   0.95055   0.00000  Uiso   1.00
C936   C     0.25000   0.41969   0.71612   0.00000  Uiso   1.00
C937   C     0.25000   0.08038   0.95064   0.00000  Uiso   1.00
C938   C     0.25000   0.08031   0.71612   0.00000  Uiso   1.00
C939   C     0.25000   0.41962   0.95064   0.00000  Uiso   1.00
C940   C     0.39851   0.16039   0.74595   0.00000  Uiso   1.00
C941   C     0.31123   0.44262   0.83350   0.00000  Uiso   1.00
C942   C     0.11213   0.32582   0.91621   0.00000  Uiso   1.00
C943   C     0.10149   0.33961   0.74595   0.00000  Uiso   1.00
C944   C     0.38787   0.17418   0.91621   0.00000  Uiso   1.00
C945   C     0.11213   0.17418   0.91621   0.00000  Uiso   1.00
C946   C     0.39851   0.33961   0.74595   0.00000  Uiso   1.00
C947   C     0.38787   0.32582   0.91621   0.00000  Uiso   1.00
C948   C     0.10149   0.16039   0.74595   0.00000  Uiso   1.00
C949   C     0.13787   0.42418   0.75046   0.00000  Uiso   1.00
C950   C     0.35149   0.08961   0.92072   0.00000  Uiso   1.00
C951   C     0.36213   0.07582   0.75046   0.00000  Uiso   1.00
C952   C     0.18878   0.05738   0.83350   0.00000  Uiso   1.00
C953   C     0.14851   0.41039   0.92072   0.00000  Uiso   1.00
C954   C     0.35149   0.41039   0.92072   0.00000  Uiso   1.00
C955   C     0.13787   0.07582   0.75046   0.00000  Uiso   1.00
C956   C     0.14851   0.08961   0.92072   0.00000  Uiso   1.00
C957   C     0.36213   0.42418   0.75046   0.00000  Uiso   1.00
C958   C     0.18878   0.44262   0.83350   0.00000  Uiso   1.00
C959   C     0.31123   0.05738   0.83350   0.00000  Uiso   1.00
C960   C     0.00000   0.21117   0.69143   0.00000  Uiso   1.00
Cu961  Cu    0.00000   0.25000   0.88022   0.00000  Uiso   1.00
Cu962  Cu    0.00000   0.25000   0.78645   0.00000  Uiso   1.00
Cu963  Cu    0.25000   0.00000   0.88022   0.00000  Uiso   1.00
Cu964  Cu    0.25000   0.00000   0.78645   0.00000  Uiso   1.00
N965   N     0.00000   0.25000   0.95069   0.00000  Uiso   1.00
N966   N     0.25000   0.11389   0.93133   0.00000  Uiso   1.00
N967   N     0.25000   0.11375   0.73554   0.00000  Uiso   1.00
N968   N     0.25000   0.38611   0.93133   0.00000  Uiso   1.00
N969   N     0.40421   0.17646   0.71014   0.00000  Uiso   1.00
N970   N     0.11010   0.30372   0.94883   0.00000  Uiso   1.00
N971   N     0.09579   0.32354   0.71014   0.00000  Uiso   1.00
N972   N     0.38990   0.19628   0.94883   0.00000  Uiso   1.00
N973   N     0.11010   0.19628   0.94883   0.00000  Uiso   1.00
N974   N     0.40421   0.32354   0.71014   0.00000  Uiso   1.00
N975   N     0.38990   0.30372   0.94883   0.00000  Uiso   1.00
N976   N     0.00000   0.25000   0.71598   0.00000  Uiso   1.00
N977   N     0.09579   0.17646   0.71014   0.00000  Uiso   1.00
N978   N     0.13990   0.44628   0.71783   0.00000  Uiso   1.00
N979   N     0.34579   0.07354   0.95653   0.00000  Uiso   1.00
N980   N     0.36010   0.05372   0.71783   0.00000  Uiso   1.00
N981   N     0.15421   0.42646   0.95653   0.00000  Uiso   1.00
N982   N     0.34579   0.42646   0.95653   0.00000  Uiso   1.00
N983   N     0.13990   0.05372   0.71783   0.00000  Uiso   1.00
N984   N     0.15421   0.07354   0.95653   0.00000  Uiso   1.00
N985   N     0.36010   0.44628   0.71783   0.00000  Uiso   1.00
N986   N     0.25000   0.00000   0.95069   0.00000  Uiso   1.00
N987   N     0.25000   0.00000   0.71598   0.00000  Uiso   1.00
N988   N     0.00000   0.13611   0.73533   0.00000  Uiso   1.00
N989   N     0.00000   0.36375   0.93113   0.00000  Uiso   1.00
N990   N     0.00000   0.36389   0.73533   0.00000  Uiso   1.00
N991   N     0.00000   0.13625   0.93113   0.00000  Uiso   1.00
N992   N     0.25000   0.38625   0.73554   0.00000  Uiso   1.00
O993   O     0.04509   0.20491   0.87291   0.00000  Uiso   1.00
O994   O     0.20492   0.04509   0.79375   0.00000  Uiso   1.00
O995   O     0.20492   0.04509   0.87291   0.00000  Uiso   1.00
O996   O     0.29509   0.45491   0.79375   0.00000  Uiso   1.00
O997   O     0.20492   0.45491   0.79375   0.00000  Uiso   1.00
O998   O     0.29509   0.04509   0.87291   0.00000  Uiso   1.00
O999   O     0.29509   0.04509   0.79375   0.00000  Uiso   1.00
O1000  O     0.20492   0.45491   0.87291   0.00000  Uiso   1.00
O1001  O     0.45492   0.29509   0.79375   0.00000  Uiso   1.00
O1002  O     0.45492   0.29509   0.87291   0.00000  Uiso   1.00
O1003  O     0.04509   0.20491   0.79375   0.00000  Uiso   1.00
O1004  O     0.45492   0.20491   0.79375   0.00000  Uiso   1.00
O1005  O     0.04509   0.29509   0.87291   0.00000  Uiso   1.00
O1006  O     0.04509   0.29509   0.79375   0.00000  Uiso   1.00
O1007  O     0.45492   0.20491   0.87291   0.00000  Uiso   1.00
O1008  O     0.29509   0.45491   0.87291   0.00000  Uiso   1.00
C1009  C     0.56123   0.19262   0.83317   0.00000  Uiso   1.00
C1010  C     0.50000   0.28882   0.97520   0.00000  Uiso   1.00
C1011  C     0.50000   0.28883   0.69143   0.00000  Uiso   1.00
C1012  C     0.50000   0.21118   0.97520   0.00000  Uiso   1.00
C1013  C     0.75000   0.46118   0.69146   0.00000  Uiso   1.00
C1014  C     0.75000   0.03883   0.97523   0.00000  Uiso   1.00
C1015  C     0.75000   0.03882   0.69146   0.00000  Uiso   1.00
C1016  C     0.75000   0.46117   0.97523   0.00000  Uiso   1.00
C1017  C     0.89046   0.14047   0.79074   0.00000  Uiso   1.00
C1018  C     0.61510   0.35286   0.87478   0.00000  Uiso   1.00
C1019  C     0.60954   0.35953   0.79074   0.00000  Uiso   1.00
C1020  C     0.93878   0.30738   0.83317   0.00000  Uiso   1.00
C1021  C     0.88491   0.14714   0.87478   0.00000  Uiso   1.00
C1022  C     0.61510   0.14714   0.87478   0.00000  Uiso   1.00
C1023  C     0.89046   0.35953   0.79074   0.00000  Uiso   1.00
C1024  C     0.88491   0.35286   0.87478   0.00000  Uiso   1.00
C1025  C     0.60954   0.14047   0.79074   0.00000  Uiso   1.00
C1026  C     0.63491   0.39714   0.79189   0.00000  Uiso   1.00
C1027  C     0.85954   0.10953   0.87593   0.00000  Uiso   1.00
C1028  C     0.86510   0.10286   0.79189   0.00000  Uiso   1.00
C1029  C     0.64046   0.39047   0.87593   0.00000  Uiso   1.00
C1030  C     0.85954   0.39047   0.87593   0.00000  Uiso   1.00
C1031  C     0.93878   0.19263   0.83317   0.00000  Uiso   1.00
C1032  C     0.63491   0.10286   0.79189   0.00000  Uiso   1.00
C1033  C     0.64046   0.10953   0.87593   0.00000  Uiso   1.00
C1034  C     0.86510   0.39714   0.79189   0.00000  Uiso   1.00
C1035  C     0.59654   0.33929   0.83267   0.00000  Uiso   1.00
C1036  C     0.90346   0.16071   0.83267   0.00000  Uiso   1.00
C1037  C     0.90346   0.33929   0.83267   0.00000  Uiso   1.00
C1038  C     0.59654   0.16071   0.83267   0.00000  Uiso   1.00
C1039  C     0.84654   0.08929   0.83400   0.00000  Uiso   1.00
C1040  C     0.65346   0.41071   0.83400   0.00000  Uiso   1.00
C1041  C     0.65346   0.08929   0.83400   0.00000  Uiso   1.00
C1042  C     0.56123   0.30737   0.83317   0.00000  Uiso   1.00
C1043  C     0.84654   0.41071   0.83400   0.00000  Uiso   1.00
C1044  C     0.50000   0.16962   0.71602   0.00000  Uiso   1.00
C1045  C     0.50000   0.33031   0.95055   0.00000  Uiso   1.00
C1046  C     0.50000   0.33038   0.71602   0.00000  Uiso   1.00
C1047  C     0.50000   0.16969   0.95055   0.00000  Uiso   1.00
C1048  C     0.75000   0.41969   0.71612   0.00000  Uiso   1.00
C1049  C     0.75000   0.08038   0.95064   0.00000  Uiso   1.00
C1050  C     0.75000   0.08031   0.71612   0.00000  Uiso   1.00
C1051  C     0.75000   0.41962   0.95064   0.00000  Uiso   1.00
C1052  C     0.89851   0.16039   0.74595   0.00000  Uiso   1.00
C1053  C     0.81123   0.44262   0.83350   0.00000  Uiso   1.00
C1054  C     0.61213   0.32582   0.91621   0.00000  Uiso   1.00
C1055  C     0.60149   0.33961   0.74595   0.00000  Uiso   1.00
C1056  C     0.88787   0.17418   0.91621   0.00000  Uiso   1.00
C1057  C     0.61213   0.17418   0.91621   0.00000  Uiso   1.00
C1058  C     0.89851   0.33961   0.74595   0.00000  Uiso   1.00
C1059  C     0.88787   0.32582   0.91621   0.00000  Uiso   1.00
C1060  C     0.60149   0.16039   0.74595   0.00000  Uiso   1.00
C1061  C     0.63787   0.42418   0.75046   0.00000  Uiso   1.00
C1062  C     0.85149   0.08961   0.92072   0.00000  Uiso   1.00
C1063  C     0.86213   0.07582   0.75046   0.00000  Uiso   1.00
C1064  C     0.68878   0.05738   0.83350   0.00000  Uiso   1.00
C1065  C     0.64851   0.41039   0.92072   0.00000  Uiso   1.00
C1066  C     0.85149   0.41039   0.92072   0.00000  Uiso   1.00
C1067  C     0.63787   0.07582   0.75046   0.00000  Uiso   1.00
C1068  C     0.64851   0.08961   0.92072   0.00000  Uiso   1.00
C1069  C     0.86213   0.42418   0.75046   0.00000  Uiso   1.00
C1070  C     0.68878   0.44262   0.83350   0.00000  Uiso   1.00
C1071  C     0.81123   0.05738   0.83350   0.00000  Uiso   1.00
C1072  C     0.50000   0.21117   0.69143   0.00000  Uiso   1.00
Cu1073 Cu    0.50000   0.25000   0.88022   0.00000  Uiso   1.00
Cu1074 Cu    0.50000   0.25000   0.78645   0.00000  Uiso   1.00
Cu1075 Cu    0.75000   0.00000   0.88022   0.00000  Uiso   1.00
Cu1076 Cu    0.75000   0.00000   0.78645   0.00000  Uiso   1.00
N1077  N     0.50000   0.25000   0.95069   0.00000  Uiso   1.00
N1078  N     0.75000   0.11389   0.93133   0.00000  Uiso   1.00
N1079  N     0.75000   0.11375   0.73554   0.00000  Uiso   1.00
N1080  N     0.75000   0.38611   0.93133   0.00000  Uiso   1.00
N1081  N     0.90421   0.17646   0.71014   0.00000  Uiso   1.00
N1082  N     0.61010   0.30372   0.94883   0.00000  Uiso   1.00
N1083  N     0.59579   0.32354   0.71014   0.00000  Uiso   1.00
N1084  N     0.88990   0.19628   0.94883   0.00000  Uiso   1.00
N1085  N     0.61010   0.19628   0.94883   0.00000  Uiso   1.00
N1086  N     0.90421   0.32354   0.71014   0.00000  Uiso   1.00
N1087  N     0.88990   0.30372   0.94883   0.00000  Uiso   1.00
N1088  N     0.50000   0.25000   0.71598   0.00000  Uiso   1.00
N1089  N     0.59579   0.17646   0.71014   0.00000  Uiso   1.00
N1090  N     0.63990   0.44628   0.71783   0.00000  Uiso   1.00
N1091  N     0.84579   0.07354   0.95653   0.00000  Uiso   1.00
N1092  N     0.86010   0.05372   0.71783   0.00000  Uiso   1.00
N1093  N     0.65421   0.42646   0.95653   0.00000  Uiso   1.00
N1094  N     0.84579   0.42646   0.95653   0.00000  Uiso   1.00
N1095  N     0.63990   0.05372   0.71783   0.00000  Uiso   1.00
N1096  N     0.65421   0.07354   0.95653   0.00000  Uiso   1.00
N1097  N     0.86010   0.44628   0.71783   0.00000  Uiso   1.00
N1098  N     0.75000   0.00000   0.95069   0.00000  Uiso   1.00
N1099  N     0.75000   0.00000   0.71598   0.00000  Uiso   1.00
N1100  N     0.50000   0.13611   0.73533   0.00000  Uiso   1.00
N1101  N     0.50000   0.36375   0.93113   0.00000  Uiso   1.00
N1102  N     0.50000   0.36389   0.73533   0.00000  Uiso   1.00
N1103  N     0.50000   0.13625   0.93113   0.00000  Uiso   1.00
N1104  N     0.75000   0.38625   0.73554   0.00000  Uiso   1.00
O1105  O     0.54509   0.20491   0.87291   0.00000  Uiso   1.00
O1106  O     0.70492   0.04509   0.79375   0.00000  Uiso   1.00
O1107  O     0.70492   0.04509   0.87291   0.00000  Uiso   1.00
O1108  O     0.79509   0.45491   0.79375   0.00000  Uiso   1.00
O1109  O     0.70492   0.45491   0.79375   0.00000  Uiso   1.00
O1110  O     0.79509   0.04509   0.87291   0.00000  Uiso   1.00
O1111  O     0.79509   0.04509   0.79375   0.00000  Uiso   1.00
O1112  O     0.70492   0.45491   0.87291   0.00000  Uiso   1.00
O1113  O     0.95492   0.29509   0.79375   0.00000  Uiso   1.00
O1114  O     0.95492   0.29509   0.87291   0.00000  Uiso   1.00
O1115  O     0.54509   0.20491   0.79375   0.00000  Uiso   1.00
O1116  O     0.95492   0.20491   0.79375   0.00000  Uiso   1.00
O1117  O     0.54509   0.29509   0.87291   0.00000  Uiso   1.00
O1118  O     0.54509   0.29509   0.79375   0.00000  Uiso   1.00
O1119  O     0.95492   0.20491   0.87291   0.00000  Uiso   1.00
O1120  O     0.79509   0.45491   0.87291   0.00000  Uiso   1.00
C1121  C     0.06123   0.69262   0.83317   0.00000  Uiso   1.00
C1122  C     0.00000   0.78882   0.97520   0.00000  Uiso   1.00
C1123  C     0.00000   0.78883   0.69143   0.00000  Uiso   1.00
C1124  C     0.00000   0.71118   0.97520   0.00000  Uiso   1.00
C1125  C     0.25000   0.96118   0.69146   0.00000  Uiso   1.00
C1126  C     0.25000   0.53883   0.97523   0.00000  Uiso   1.00
C1127  C     0.25000   0.53882   0.69146   0.00000  Uiso   1.00
C1128  C     0.25000   0.96117   0.97523   0.00000  Uiso   1.00
C1129  C     0.39046   0.64047   0.79074   0.00000  Uiso   1.00
C1130  C     0.11510   0.85286   0.87478   0.00000  Uiso   1.00
C1131  C     0.10954   0.85953   0.79074   0.00000  Uiso   1.00
C1132  C     0.43878   0.80738   0.83317   0.00000  Uiso   1.00
C1133  C     0.38491   0.64714   0.87478   0.00000  Uiso   1.00
C1134  C     0.11510   0.64714   0.87478   0.00000  Uiso   1.00
C1135  C     0.39046   0.85953   0.79074   0.00000  Uiso   1.00
C1136  C     0.38491   0.85286   0.87478   0.00000  Uiso   1.00
C1137  C     0.10954   0.64047   0.79074   0.00000  Uiso   1.00
C1138  C     0.13491   0.89714   0.79189   0.00000  Uiso   1.00
C1139  C     0.35954   0.60953   0.87593   0.00000  Uiso   1.00
C1140  C     0.36510   0.60286   0.79189   0.00000  Uiso   1.00
C1141  C     0.14046   0.89047   0.87593   0.00000  Uiso   1.00
C1142  C     0.35954   0.89047   0.87593   0.00000  Uiso   1.00
C1143  C     0.43878   0.69263   0.83317   0.00000  Uiso   1.00
C1144  C     0.13491   0.60286   0.79189   0.00000  Uiso   1.00
C1145  C     0.14046   0.60953   0.87593   0.00000  Uiso   1.00
C1146  C     0.36510   0.89714   0.79189   0.00000  Uiso   1.00
C1147  C     0.09654   0.83929   0.83267   0.00000  Uiso   1.00
C1148  C     0.40346   0.66071   0.83267   0.00000  Uiso   1.00
C1149  C     0.40346   0.83929   0.83267   0.00000  Uiso   1.00
C1150  C     0.09654   0.66071   0.83267   0.00000  Uiso   1.00
C1151  C     0.34654   0.58929   0.83400   0.00000  Uiso   1.00
C1152  C     0.15346   0.91071   0.83400   0.00000  Uiso   1.00
C1153  C     0.15346   0.58929   0.83400   0.00000  Uiso   1.00
C1154  C     0.06123   0.80737   0.83317   0.00000  Uiso   1.00
C1155  C     0.34654   0.91071   0.83400   0.00000  Uiso   1.00
C1156  C     0.00000   0.66962   0.71602   0.00000  Uiso   1.00
C1157  C     0.00000   0.83031   0.95055   0.00000  Uiso   1.00
C1158  C     0.00000   0.83038   0.71602   0.00000  Uiso   1.00
C1159  C     0.00000   0.66969   0.95055   0.00000  Uiso   1.00
C1160  C     0.25000   0.91969   0.71612   0.00000  Uiso   1.00
C1161  C     0.25000   0.58038   0.95064   0.00000  Uiso   1.00
C1162  C     0.25000   0.58031   0.71612   0.00000  Uiso   1.00
C1163  C     0.25000   0.91962   0.95064   0.00000  Uiso   1.00
C1164  C     0.39851   0.66039   0.74595   0.00000  Uiso   1.00
C1165  C     0.31123   0.94262   0.83350   0.00000  Uiso   1.00
C1166  C     0.11213   0.82582   0.91621   0.00000  Uiso   1.00
C1167  C     0.10149   0.83961   0.74595   0.00000  Uiso   1.00
C1168  C     0.38787   0.67418   0.91621   0.00000  Uiso   1.00
C1169  C     0.11213   0.67418   0.91621   0.00000  Uiso   1.00
C1170  C     0.39851   0.83961   0.74595   0.00000  Uiso   1.00
C1171  C     0.38787   0.82582   0.91621   0.00000  Uiso   1.00
C1172  C     0.10149   0.66039   0.74595   0.00000  Uiso   1.00
C1173  C     0.13787   0.92418   0.75046   0.00000  Uiso   1.00
C1174  C     0.35149   0.58961   0.92072   0.00000  Uiso   1.00
C1175  C     0.36213   0.57582   0.75046   0.00000  Uiso   1.00
C1176  C     0.18878   0.55738   0.83350   0.00000  Uiso   1.00
C1177  C     0.14851   0.91039   0.92072   0.00000  Uiso   1.00
C1178  C     0.35149   0.91039   0.92072   0.00000  Uiso   1.00
C1179  C     0.13787   0.57582   0.75046   0.00000  Uiso   1.00
C1180  C     0.14851   0.58961   0.92072   0.00000  Uiso   1.00
C1181  C     0.36213   0.92418   0.75046   0.00000  Uiso   1.00
C1182  C     0.18878   0.94262   0.83350   0.00000  Uiso   1.00
C1183  C     0.31123   0.55738   0.83350   0.00000  Uiso   1.00
C1184  C     0.00000   0.71117   0.69143   0.00000  Uiso   1.00
Cu1185 Cu    0.00000   0.75000   0.88022   0.00000  Uiso   1.00
Cu1186 Cu    0.00000   0.75000   0.78645   0.00000  Uiso   1.00
Cu1187 Cu    0.25000   0.50000   0.88022   0.00000  Uiso   1.00
Cu1188 Cu    0.25000   0.50000   0.78645   0.00000  Uiso   1.00
N1189  N     0.00000   0.75000   0.95069   0.00000  Uiso   1.00
N1190  N     0.25000   0.61389   0.93133   0.00000  Uiso   1.00
N1191  N     0.25000   0.61375   0.73554   0.00000  Uiso   1.00
N1192  N     0.25000   0.88611   0.93133   0.00000  Uiso   1.00
N1193  N     0.40421   0.67646   0.71014   0.00000  Uiso   1.00
N1194  N     0.11010   0.80372   0.94883   0.00000  Uiso   1.00
N1195  N     0.09579   0.82354   0.71014   0.00000  Uiso   1.00
N1196  N     0.38990   0.69628   0.94883   0.00000  Uiso   1.00
N1197  N     0.11010   0.69628   0.94883   0.00000  Uiso   1.00
N1198  N     0.40421   0.82354   0.71014   0.00000  Uiso   1.00
N1199  N     0.38990   0.80372   0.94883   0.00000  Uiso   1.00
N1200  N     0.00000   0.75000   0.71598   0.00000  Uiso   1.00
N1201  N     0.09579   0.67646   0.71014   0.00000  Uiso   1.00
N1202  N     0.13990   0.94628   0.71783   0.00000  Uiso   1.00
N1203  N     0.34579   0.57354   0.95653   0.00000  Uiso   1.00
N1204  N     0.36010   0.55372   0.71783   0.00000  Uiso   1.00
N1205  N     0.15421   0.92646   0.95653   0.00000  Uiso   1.00
N1206  N     0.34579   0.92646   0.95653   0.00000  Uiso   1.00
N1207  N     0.13990   0.55372   0.71783   0.00000  Uiso   1.00
N1208  N     0.15421   0.57354   0.95653   0.00000  Uiso   1.00
N1209  N     0.36010   0.94628   0.71783   0.00000  Uiso   1.00
N1210  N     0.25000   0.50000   0.95069   0.00000  Uiso   1.00
N1211  N     0.25000   0.50000   0.71598   0.00000  Uiso   1.00
N1212  N     0.00000   0.63611   0.73533   0.00000  Uiso   1.00
N1213  N     0.00000   0.86375   0.93113   0.00000  Uiso   1.00
N1214  N     0.00000   0.86389   0.73533   0.00000  Uiso   1.00
N1215  N     0.00000   0.63625   0.93113   0.00000  Uiso   1.00
N1216  N     0.25000   0.88625   0.73554   0.00000  Uiso   1.00
O1217  O     0.04509   0.70491   0.87291   0.00000  Uiso   1.00
O1218  O     0.20492   0.54509   0.79375   0.00000  Uiso   1.00
O1219  O     0.20492   0.54509   0.87291   0.00000  Uiso   1.00
O1220  O     0.29509   0.95491   0.79375   0.00000  Uiso   1.00
O1221  O     0.20492   0.95491   0.79375   0.00000  Uiso   1.00
O1222  O     0.29509   0.54509   0.87291   0.00000  Uiso   1.00
O1223  O     0.29509   0.54509   0.79375   0.00000  Uiso   1.00
O1224  O     0.20492   0.95491   0.87291   0.00000  Uiso   1.00
O1225  O     0.45492   0.79509   0.79375   0.00000  Uiso   1.00
O1226  O     0.45492   0.79509   0.87291   0.00000  Uiso   1.00
O1227  O     0.04509   0.70491   0.79375   0.00000  Uiso   1.00
O1228  O     0.45492   0.70491   0.79375   0.00000  Uiso   1.00
O1229  O     0.04509   0.79509   0.87291   0.00000  Uiso   1.00
O1230  O     0.04509   0.79509   0.79375   0.00000  Uiso   1.00
O1231  O     0.45492   0.70491   0.87291   0.00000  Uiso   1.00
O1232  O     0.29509   0.95491   0.87291   0.00000  Uiso   1.00
C1233  C     0.56123   0.69262   0.83317   0.00000  Uiso   1.00
C1234  C     0.50000   0.78882   0.97520   0.00000  Uiso   1.00
C1235  C     0.50000   0.78883   0.69143   0.00000  Uiso   1.00
C1236  C     0.50000   0.71118   0.97520   0.00000  Uiso   1.00
C1237  C     0.75000   0.96118   0.69146   0.00000  Uiso   1.00
C1238  C     0.75000   0.53883   0.97523   0.00000  Uiso   1.00
C1239  C     0.75000   0.53882   0.69146   0.00000  Uiso   1.00
C1240  C     0.75000   0.96117   0.97523   0.00000  Uiso   1.00
C1241  C     0.89046   0.64047   0.79074   0.00000  Uiso   1.00
C1242  C     0.61510   0.85286   0.87478   0.00000  Uiso   1.00
C1243  C     0.60954   0.85953   0.79074   0.00000  Uiso   1.00
C1244  C     0.93878   0.80738   0.83317   0.00000  Uiso   1.00
C1245  C     0.88491   0.64714   0.87478   0.00000  Uiso   1.00
C1246  C     0.61510   0.64714   0.87478   0.00000  Uiso   1.00
C1247  C     0.89046   0.85953   0.79074   0.00000  Uiso   1.00
C1248  C     0.88491   0.85286   0.87478   0.00000  Uiso   1.00
C1249  C     0.60954   0.64047   0.79074   0.00000  Uiso   1.00
C1250  C     0.63491   0.89714   0.79189   0.00000  Uiso   1.00
C1251  C     0.85954   0.60953   0.87593   0.00000  Uiso   1.00
C1252  C     0.86510   0.60286   0.79189   0.00000  Uiso   1.00
C1253  C     0.64046   0.89047   0.87593   0.00000  Uiso   1.00
C1254  C     0.85954   0.89047   0.87593   0.00000  Uiso   1.00
C1255  C     0.93878   0.69263   0.83317   0.00000  Uiso   1.00
C1256  C     0.63491   0.60286   0.79189   0.00000  Uiso   1.00
C1257  C     0.64046   0.60953   0.87593   0.00000  Uiso   1.00
C1258  C     0.86510   0.89714   0.79189   0.00000  Uiso   1.00
C1259  C     0.59654   0.83929   0.83267   0.00000  Uiso   1.00
C1260  C     0.90346   0.66071   0.83267   0.00000  Uiso   1.00
C1261  C     0.90346   0.83929   0.83267   0.00000  Uiso   1.00
C1262  C     0.59654   0.66071   0.83267   0.00000  Uiso   1.00
C1263  C     0.84654   0.58929   0.83400   0.00000  Uiso   1.00
C1264  C     0.65346   0.91071   0.83400   0.00000  Uiso   1.00
C1265  C     0.65346   0.58929   0.83400   0.00000  Uiso   1.00
C1266  C     0.56123   0.80737   0.83317   0.00000  Uiso   1.00
C1267  C     0.84654   0.91071   0.83400   0.00000  Uiso   1.00
C1268  C     0.50000   0.66962   0.71602   0.00000  Uiso   1.00
C1269  C     0.50000   0.83031   0.95055   0.00000  Uiso   1.00
C1270  C     0.50000   0.83038   0.71602   0.00000  Uiso   1.00
C1271  C     0.50000   0.66969   0.95055   0.00000  Uiso   1.00
C1272  C     0.75000   0.91969   0.71612   0.00000  Uiso   1.00
C1273  C     0.75000   0.58038   0.95064   0.00000  Uiso   1.00
C1274  C     0.75000   0.58031   0.71612   0.00000  Uiso   1.00
C1275  C     0.75000   0.91962   0.95064   0.00000  Uiso   1.00
C1276  C     0.89851   0.66039   0.74595   0.00000  Uiso   1.00
C1277  C     0.81123   0.94262   0.83350   0.00000  Uiso   1.00
C1278  C     0.61213   0.82582   0.91621   0.00000  Uiso   1.00
C1279  C     0.60149   0.83961   0.74595   0.00000  Uiso   1.00
C1280  C     0.88787   0.67418   0.91621   0.00000  Uiso   1.00
C1281  C     0.61213   0.67418   0.91621   0.00000  Uiso   1.00
C1282  C     0.89851   0.83961   0.74595   0.00000  Uiso   1.00
C1283  C     0.88787   0.82582   0.91621   0.00000  Uiso   1.00
C1284  C     0.60149   0.66039   0.74595   0.00000  Uiso   1.00
C1285  C     0.63787   0.92418   0.75046   0.00000  Uiso   1.00
C1286  C     0.85149   0.58961   0.92072   0.00000  Uiso   1.00
C1287  C     0.86213   0.57582   0.75046   0.00000  Uiso   1.00
C1288  C     0.68878   0.55738   0.83350   0.00000  Uiso   1.00
C1289  C     0.64851   0.91039   0.92072   0.00000  Uiso   1.00
C1290  C     0.85149   0.91039   0.92072   0.00000  Uiso   1.00
C1291  C     0.63787   0.57582   0.75046   0.00000  Uiso   1.00
C1292  C     0.64851   0.58961   0.92072   0.00000  Uiso   1.00
C1293  C     0.86213   0.92418   0.75046   0.00000  Uiso   1.00
C1294  C     0.68878   0.94262   0.83350   0.00000  Uiso   1.00
C1295  C     0.81123   0.55738   0.83350   0.00000  Uiso   1.00
C1296  C     0.50000   0.71117   0.69143   0.00000  Uiso   1.00
Cu1297 Cu    0.50000   0.75000   0.88022   0.00000  Uiso   1.00
Cu1298 Cu    0.50000   0.75000   0.78645   0.00000  Uiso   1.00
Cu1299 Cu    0.75000   0.50000   0.88022   0.00000  Uiso   1.00
Cu1300 Cu    0.75000   0.50000   0.78645   0.00000  Uiso   1.00
N1301  N     0.50000   0.75000   0.95069   0.00000  Uiso   1.00
N1302  N     0.75000   0.61389   0.93133   0.00000  Uiso   1.00
N1303  N     0.75000   0.61375   0.73554   0.00000  Uiso   1.00
N1304  N     0.75000   0.88611   0.93133   0.00000  Uiso   1.00
N1305  N     0.90421   0.67646   0.71014   0.00000  Uiso   1.00
N1306  N     0.61010   0.80372   0.94883   0.00000  Uiso   1.00
N1307  N     0.59579   0.82354   0.71014   0.00000  Uiso   1.00
N1308  N     0.88990   0.69628   0.94883   0.00000  Uiso   1.00
N1309  N     0.61010   0.69628   0.94883   0.00000  Uiso   1.00
N1310  N     0.90421   0.82354   0.71014   0.00000  Uiso   1.00
N1311  N     0.88990   0.80372   0.94883   0.00000  Uiso   1.00
N1312  N     0.50000   0.75000   0.71598   0.00000  Uiso   1.00
N1313  N     0.59579   0.67646   0.71014   0.00000  Uiso   1.00
N1314  N     0.63990   0.94628   0.71783   0.00000  Uiso   1.00
N1315  N     0.84579   0.57354   0.95653   0.00000  Uiso   1.00
N1316  N     0.86010   0.55372   0.71783   0.00000  Uiso   1.00
N1317  N     0.65421   0.92646   0.95653   0.00000  Uiso   1.00
N1318  N     0.84579   0.92646   0.95653   0.00000  Uiso   1.00
N1319  N     0.63990   0.55372   0.71783   0.00000  Uiso   1.00
N1320  N     0.65421   0.57354   0.95653   0.00000  Uiso   1.00
N1321  N     0.86010   0.94628   0.71783   0.00000  Uiso   1.00
N1322  N     0.75000   0.50000   0.95069   0.00000  Uiso   1.00
N1323  N     0.75000   0.50000   0.71598   0.00000  Uiso   1.00
N1324  N     0.50000   0.63611   0.73533   0.00000  Uiso   1.00
N1325  N     0.50000   0.86375   0.93113   0.00000  Uiso   1.00
N1326  N     0.50000   0.86389   0.73533   0.00000  Uiso   1.00
N1327  N     0.50000   0.63625   0.93113   0.00000  Uiso   1.00
N1328  N     0.75000   0.88625   0.73554   0.00000  Uiso   1.00
O1329  O     0.54509   0.70491   0.87291   0.00000  Uiso   1.00
O1330  O     0.70492   0.54509   0.79375   0.00000  Uiso   1.00
O1331  O     0.70492   0.54509   0.87291   0.00000  Uiso   1.00
O1332  O     0.79509   0.95491   0.79375   0.00000  Uiso   1.00
O1333  O     0.70492   0.95491   0.79375   0.00000  Uiso   1.00
O1334  O     0.79509   0.54509   0.87291   0.00000  Uiso   1.00
O1335  O     0.79509   0.54509   0.79375   0.00000  Uiso   1.00
O1336  O     0.70492   0.95491   0.87291   0.00000  Uiso   1.00
O1337  O     0.95492   0.79509   0.79375   0.00000  Uiso   1.00
O1338  O     0.95492   0.79509   0.87291   0.00000  Uiso   1.00
O1339  O     0.54509   0.70491   0.79375   0.00000  Uiso   1.00
O1340  O     0.95492   0.70491   0.79375   0.00000  Uiso   1.00
O1341  O     0.54509   0.79509   0.87291   0.00000  Uiso   1.00
O1342  O     0.54509   0.79509   0.79375   0.00000  Uiso   1.00
O1343  O     0.95492   0.70491   0.87291   0.00000  Uiso   1.00
O1344  O     0.79509   0.95491   0.87291   0.00000  Uiso   1.00
loop_
_geom_bond_atom_site_label_1
_geom_bond_atom_site_label_2
_geom_bond_distance
_geom_bond_site_symmetry_2
_ccdc_geom_bond_type
C1     C30     1.477   .     S
C1     O97     1.308   .     A
C1     O107    1.299   .     A
C2     C451    1.428   .     S
C2     C37     1.444   .     S
C2     N69     1.372   .     S
C3     C38     1.445   .     S
C3     C898    1.428   1_554 S
C3     N80     1.373   .     S
C4     N69     1.372   .     A
C4     C39     1.444   .     S
C4     C512    1.428   .     S
C5     C40     1.444   .     S
C5     C904    1.428   1_554 S
C5     N315    1.372   .     S
C6     C41     1.445   .     S
C6     N90     1.373   .     A
C6     C455    1.428   .     S
C7     C42     1.444   .     S
C7     N91     1.372   .     A
C7     C902    1.428   1_554 S
C8     C43     1.445   .     S
C8     C453    1.428   .     S
C8     N314    1.373   .     S
C9     C20     1.394   .     A
C9     C44     1.447   .     S
C9     C28     1.416   .     A
C10    C27     1.409   .     A
C10    C46     1.451   .     S
C10    C21     1.394   .     A
C11    C18     1.394   .     A
C11    C47     1.447   .     S
C11    C27     1.416   .     A
C12    C29     1.477   .     S
C12    O105    1.299   .     A
C12    O106    1.308   .     A
C13    C28     1.409   .     A
C13    C19     1.394   .     A
C13    C48     1.451   .     S
C14    C30     1.409   .     A
C14    C49     1.451   .     S
C14    C25     1.394   .     A
C15    C50     1.447   .     S
C15    C29     1.416   .     A
C15    C26     1.394   .     A
C16    C51     1.451   .     S
C16    C29     1.409   .     A
C16    C22     1.394   .     A
C17    C30     1.416   .     A
C17    C52     1.447   .     S
C17    C24     1.394   .     A
C18    C53     1.451   .     S
C18    C32     1.409   .     A
C19    C31     1.416   .     A
C19    C54     1.447   .     S
C20    C55     1.451   .     S
C20    C31     1.409   .     A
C21    C32     1.416   .     A
C21    C57     1.447   .     S
C22    C35     1.416   .     A
C22    C58     1.447   .     S
C23    C28     1.477   .     S
C23    O111    1.308   .     A
C23    O108    1.299   .     A
C24    C33     1.409   .     A
C24    C59     1.451   .     S
C25    C60     1.447   .     S
C25    C33     1.416   .     A
C26    C61     1.451   .     S
C26    C35     1.409   .     A
C27    C34     1.477   .     S
C31    C63     1.477   .     S
C32    C62     1.477   .     S
C33    C56     1.477   .     S
C34    O110    1.299   .     A
C34    O109    1.308   .     A
C35    C45     1.477   .     S
C36    N92     1.158   .     T
C36    C64     1.445   .     S
C37    N93     1.158   .     T
C38    N94     1.158   .     T
C39    N95     1.158   .     T
C40    N96     1.158   .     T
C41    N70     1.158   .     T
C42    N71     1.158   .     T
C43    N72     1.158   .     T
C44    N73     1.155   .     T
C45    O112    1.299   .     A
C45    O100    1.308   .     A
C46    N74     1.156   .     T
C47    N75     1.155   .     T
C48    N76     1.156   .     T
C49    N77     1.156   .     T
C50    N78     1.155   .     T
C51    N79     1.156   .     T
C52    N81     1.155   .     T
C53    N82     1.156   .     T
C54    N83     1.155   .     T
C55    N84     1.156   .     T
C56    O98     1.308   .     A
C56    O99     1.299   .     A
C57    N85     1.155   .     T
C58    N86     1.155   .     T
C59    N87     1.156   .     T
C60    N88     1.155   .     T
C61    N89     1.156   .     T
C62    O101    1.308   .     A
C62    O104    1.299   .     A
C63    O102    1.299   .     A
C63    O103    1.308   .     A
C64    C900    1.428   1_554 S
C64    N80     1.373   .     S
Cu65   O109    1.985   .     S
Cu65   O97     1.985   .     S
Cu65   N69     2.031   .     S
Cu65   Cu66    2.702   .     S
Cu65   O218    1.985   1_455 S
Cu65   O223    1.985   1_455 S
Cu66   O107    1.985   .     S
Cu66   O110    1.985   .     S
Cu66   N80     2.031   .     S
Cu66   O217    1.985   1_455 S
Cu66   O220    1.985   1_455 S
Cu67   O99     1.985   .     S
Cu67   Cu68    2.702   .     S
Cu67   N90     2.031   .     S
Cu67   O102    1.985   .     S
Cu67   O328    1.985   1_545 S
Cu67   O336    1.985   1_545 S
Cu68   N91     2.031   .     S
Cu68   O98     1.985   .     S
Cu68   O103    1.985   .     S
Cu68   O324    1.985   1_545 S
Cu68   O325    1.985   1_545 S
N90    C232    1.373   1_545 S
N91    C229    1.372   1_545 S
O100   Cu292   1.985   .     S
O101   Cu292   1.985   .     S
O104   Cu291   1.985   .     S
O105   Cu178   1.985   .     S
O106   Cu177   1.985   .     S
O108   Cu178   1.985   .     S
O111   Cu177   1.985   .     S
O112   Cu291   1.985   .     S
C113   C142    1.477   .     S
C113   O209    1.308   .     A
C113   O219    1.299   .     A
C114   C563    1.428   .     S
C114   C149    1.444   .     S
C114   N181    1.372   .     S
C115   C150    1.445   .     S
C115   C1010   1.428   1_554 S
C115   N192    1.373   .     S
C116   N181    1.372   .     A
C116   C151    1.444   .     S
C116   C624    1.428   .     S
C117   C152    1.444   .     S
C117   C1016   1.428   1_554 S
C117   N427    1.372   .     S
C118   C153    1.445   .     S
C118   N202    1.373   .     A
C118   C567    1.428   .     S
C119   C154    1.444   .     S
C119   N203    1.372   .     A
C119   C1014   1.428   1_554 S
C120   C155    1.445   .     S
C120   C565    1.428   .     S
C120   N426    1.373   .     S
C121   C132    1.394   .     A
C121   C156    1.447   .     S
C121   C140    1.416   .     A
C122   C139    1.409   .     A
C122   C158    1.451   .     S
C122   C133    1.394   .     A
C123   C130    1.394   .     A
C123   C159    1.447   .     S
C123   C139    1.416   .     A
C124   C141    1.477   .     S
C124   O217    1.299   .     A
C124   O218    1.308   .     A
C125   C140    1.409   .     A
C125   C131    1.394   .     A
C125   C160    1.451   .     S
C126   C142    1.409   .     A
C126   C161    1.451   .     S
C126   C137    1.394   .     A
C127   C162    1.447   .     S
C127   C141    1.416   .     A
C127   C138    1.394   .     A
C128   C163    1.451   .     S
C128   C141    1.409   .     A
C128   C134    1.394   .     A
C129   C142    1.416   .     A
C129   C164    1.447   .     S
C129   C136    1.394   .     A
C130   C165    1.451   .     S
C130   C144    1.409   .     A
C131   C143    1.416   .     A
C131   C166    1.447   .     S
C132   C167    1.451   .     S
C132   C143    1.409   .     A
C133   C144    1.416   .     A
C133   C169    1.447   .     S
C134   C147    1.416   .     A
C134   C170    1.447   .     S
C135   C140    1.477   .     S
C135   O223    1.308   .     A
C135   O220    1.299   .     A
C136   C145    1.409   .     A
C136   C171    1.451   .     S
C137   C172    1.447   .     S
C137   C145    1.416   .     A
C138   C173    1.451   .     S
C138   C147    1.409   .     A
C139   C146    1.477   .     S
C143   C175    1.477   .     S
C144   C174    1.477   .     S
C145   C168    1.477   .     S
C146   O222    1.299   .     A
C146   O221    1.308   .     A
C147   C157    1.477   .     S
C148   N204    1.158   .     T
C148   C176    1.445   .     S
C149   N205    1.158   .     T
C150   N206    1.158   .     T
C151   N207    1.158   .     T
C152   N208    1.158   .     T
C153   N182    1.158   .     T
C154   N183    1.158   .     T
C155   N184    1.158   .     T
C156   N185    1.155   .     T
C157   O224    1.299   .     A
C157   O212    1.308   .     A
C158   N186    1.156   .     T
C159   N187    1.155   .     T
C160   N188    1.156   .     T
C161   N189    1.156   .     T
C162   N190    1.155   .     T
C163   N191    1.156   .     T
C164   N193    1.155   .     T
C165   N194    1.156   .     T
C166   N195    1.155   .     T
C167   N196    1.156   .     T
C168   O210    1.308   .     A
C168   O211    1.299   .     A
C169   N197    1.155   .     T
C170   N198    1.155   .     T
C171   N199    1.156   .     T
C172   N200    1.155   .     T
C173   N201    1.156   .     T
C174   O213    1.308   .     A
C174   O216    1.299   .     A
C175   O214    1.299   .     A
C175   O215    1.308   .     A
C176   C1012   1.428   1_554 S
C176   N192    1.373   .     S
Cu177  O221    1.985   .     S
Cu177  O209    1.985   .     S
Cu177  N181    2.031   .     S
Cu177  Cu178   2.702   .     S
Cu178  O219    1.985   .     S
Cu178  O222    1.985   .     S
Cu178  N192    2.031   .     S
Cu179  O211    1.985   .     S
Cu179  Cu180   2.702   .     S
Cu179  N202    2.031   .     S
Cu179  O214    1.985   .     S
Cu179  O440    1.985   1_545 S
Cu179  O448    1.985   1_545 S
Cu180  N203    2.031   .     S
Cu180  O210    1.985   .     S
Cu180  O215    1.985   .     S
Cu180  O436    1.985   1_545 S
Cu180  O437    1.985   1_545 S
N202   C344    1.373   1_545 S
N203   C341    1.372   1_545 S
O212   Cu404   1.985   .     S
O213   Cu404   1.985   .     S
O216   Cu403   1.985   .     S
O217   Cu66    1.985   1_655 S
O218   Cu65    1.985   1_655 S
O220   Cu66    1.985   1_655 S
O223   Cu65    1.985   1_655 S
O224   Cu403   1.985   .     S
C225   C254    1.477   .     S
C225   O321    1.308   .     A
C225   O331    1.299   .     A
C226   C675    1.428   .     S
C226   C261    1.444   .     S
C226   N293    1.372   .     S
C227   C262    1.445   .     S
C227   C1122   1.428   1_554 S
C227   N304    1.373   .     S
C228   N293    1.372   .     A
C228   C263    1.444   .     S
C228   C736    1.428   .     S
C229   C264    1.444   .     S
C229   C1128   1.428   1_554 S
C229   N91     1.372   1_565 S
C230   C265    1.445   .     S
C230   N314    1.373   .     A
C230   C679    1.428   .     S
C231   C266    1.444   .     S
C231   N315    1.372   .     A
C231   C1126   1.428   1_554 S
C232   C267    1.445   .     S
C232   C677    1.428   .     S
C232   N90     1.373   1_565 S
C233   C244    1.394   .     A
C233   C268    1.447   .     S
C233   C252    1.416   .     A
C234   C251    1.409   .     A
C234   C270    1.451   .     S
C234   C245    1.394   .     A
C235   C242    1.394   .     A
C235   C271    1.447   .     S
C235   C251    1.416   .     A
C236   C253    1.477   .     S
C236   O329    1.299   .     A
C236   O330    1.308   .     A
C237   C252    1.409   .     A
C237   C243    1.394   .     A
C237   C272    1.451   .     S
C238   C254    1.409   .     A
C238   C273    1.451   .     S
C238   C249    1.394   .     A
C239   C274    1.447   .     S
C239   C253    1.416   .     A
C239   C250    1.394   .     A
C240   C275    1.451   .     S
C240   C253    1.409   .     A
C240   C246    1.394   .     A
C241   C254    1.416   .     A
C241   C276    1.447   .     S
C241   C248    1.394   .     A
C242   C277    1.451   .     S
C242   C256    1.409   .     A
C243   C255    1.416   .     A
C243   C278    1.447   .     S
C244   C279    1.451   .     S
C244   C255    1.409   .     A
C245   C256    1.416   .     A
C245   C281    1.447   .     S
C246   C259    1.416   .     A
C246   C282    1.447   .     S
C247   C252    1.477   .     S
C247   O335    1.308   .     A
C247   O332    1.299   .     A
C248   C257    1.409   .     A
C248   C283    1.451   .     S
C249   C284    1.447   .     S
C249   C257    1.416   .     A
C250   C285    1.451   .     S
C250   C259    1.409   .     A
C251   C258    1.477   .     S
C255   C287    1.477   .     S
C256   C286    1.477   .     S
C257   C280    1.477   .     S
C258   O334    1.299   .     A
C258   O333    1.308   .     A
C259   C269    1.477   .     S
C260   N316    1.158   .     T
C260   C288    1.445   .     S
C261   N317    1.158   .     T
C262   N318    1.158   .     T
C263   N319    1.158   .     T
C264   N320    1.158   .     T
C265   N294    1.158   .     T
C266   N295    1.158   .     T
C267   N296    1.158   .     T
C268   N297    1.155   .     T
C269   O336    1.299   .     A
C269   O324    1.308   .     A
C270   N298    1.156   .     T
C271   N299    1.155   .     T
C272   N300    1.156   .     T
C273   N301    1.156   .     T
C274   N302    1.155   .     T
C275   N303    1.156   .     T
C276   N305    1.155   .     T
C277   N306    1.156   .     T
C278   N307    1.155   .     T
C279   N308    1.156   .     T
C280   O322    1.308   .     A
C280   O323    1.299   .     A
C281   N309    1.155   .     T
C282   N310    1.155   .     T
C283   N311    1.156   .     T
C284   N312    1.155   .     T
C285   N313    1.156   .     T
C286   O325    1.308   .     A
C286   O328    1.299   .     A
C287   O326    1.299   .     A
C287   O327    1.308   .     A
C288   C1124   1.428   1_554 S
C288   N304    1.373   .     S
Cu289  O333    1.985   .     S
Cu289  O321    1.985   .     S
Cu289  N293    2.031   .     S
Cu289  Cu290   2.702   .     S
Cu289  O442    1.985   1_455 S
Cu289  O447    1.985   1_455 S
Cu290  O331    1.985   .     S
Cu290  O334    1.985   .     S
Cu290  N304    2.031   .     S
Cu290  O441    1.985   1_455 S
Cu290  O444    1.985   1_455 S
Cu291  O323    1.985   .     S
Cu291  Cu292   2.702   .     S
Cu291  N314    2.031   .     S
Cu291  O326    1.985   .     S
Cu292  N315    2.031   .     S
Cu292  O322    1.985   .     S
Cu292  O327    1.985   .     S
O324   Cu68    1.985   1_565 S
O325   Cu68    1.985   1_565 S
O328   Cu67    1.985   1_565 S
O329   Cu402   1.985   .     S
O330   Cu401   1.985   .     S
O332   Cu402   1.985   .     S
O335   Cu401   1.985   .     S
O336   Cu67    1.985   1_565 S
C337   C366    1.477   .     S
C337   O433    1.308   .     A
C337   O443    1.299   .     A
C338   C787    1.428   .     S
C338   C373    1.444   .     S
C338   N405    1.372   .     S
C339   C374    1.445   .     S
C339   C1234   1.428   1_554 S
C339   N416    1.373   .     S
C340   N405    1.372   .     A
C340   C375    1.444   .     S
C340   C848    1.428   .     S
C341   C376    1.444   .     S
C341   C1240   1.428   1_554 S
C341   N203    1.372   1_565 S
C342   C377    1.445   .     S
C342   N426    1.373   .     A
C342   C791    1.428   .     S
C343   C378    1.444   .     S
C343   N427    1.372   .     A
C343   C1238   1.428   1_554 S
C344   C379    1.445   .     S
C344   C789    1.428   .     S
C344   N202    1.373   1_565 S
C345   C356    1.394   .     A
C345   C380    1.447   .     S
C345   C364    1.416   .     A
C346   C363    1.409   .     A
C346   C382    1.451   .     S
C346   C357    1.394   .     A
C347   C354    1.394   .     A
C347   C383    1.447   .     S
C347   C363    1.416   .     A
C348   C365    1.477   .     S
C348   O441    1.299   .     A
C348   O442    1.308   .     A
C349   C364    1.409   .     A
C349   C355    1.394   .     A
C349   C384    1.451   .     S
C350   C366    1.409   .     A
C350   C385    1.451   .     S
C350   C361    1.394   .     A
C351   C386    1.447   .     S
C351   C365    1.416   .     A
C351   C362    1.394   .     A
C352   C387    1.451   .     S
C352   C365    1.409   .     A
C352   C358    1.394   .     A
C353   C366    1.416   .     A
C353   C388    1.447   .     S
C353   C360    1.394   .     A
C354   C389    1.451   .     S
C354   C368    1.409   .     A
C355   C367    1.416   .     A
C355   C390    1.447   .     S
C356   C391    1.451   .     S
C356   C367    1.409   .     A
C357   C368    1.416   .     A
C357   C393    1.447   .     S
C358   C371    1.416   .     A
C358   C394    1.447   .     S
C359   C364    1.477   .     S
C359   O447    1.308   .     A
C359   O444    1.299   .     A
C360   C369    1.409   .     A
C360   C395    1.451   .     S
C361   C396    1.447   .     S
C361   C369    1.416   .     A
C362   C397    1.451   .     S
C362   C371    1.409   .     A
C363   C370    1.477   .     S
C367   C399    1.477   .     S
C368   C398    1.477   .     S
C369   C392    1.477   .     S
C370   O446    1.299   .     A
C370   O445    1.308   .     A
C371   C381    1.477   .     S
C372   N428    1.158   .     T
C372   C400    1.445   .     S
C373   N429    1.158   .     T
C374   N430    1.158   .     T
C375   N431    1.158   .     T
C376   N432    1.158   .     T
C377   N406    1.158   .     T
C378   N407    1.158   .     T
C379   N408    1.158   .     T
C380   N409    1.155   .     T
C381   O448    1.299   .     A
C381   O436    1.308   .     A
C382   N410    1.156   .     T
C383   N411    1.155   .     T
C384   N412    1.156   .     T
C385   N413    1.156   .     T
C386   N414    1.155   .     T
C387   N415    1.156   .     T
C388   N417    1.155   .     T
C389   N418    1.156   .     T
C390   N419    1.155   .     T
C391   N420    1.156   .     T
C392   O434    1.308   .     A
C392   O435    1.299   .     A
C393   N421    1.155   .     T
C394   N422    1.155   .     T
C395   N423    1.156   .     T
C396   N424    1.155   .     T
C397   N425    1.156   .     T
C398   O437    1.308   .     A
C398   O440    1.299   .     A
C399   O438    1.299   .     A
C399   O439    1.308   .     A
C400   C1236   1.428   1_554 S
C400   N416    1.373   .     S
Cu401  O445    1.985   .     S
Cu401  O433    1.985   .     S
Cu401  N405    2.031   .     S
Cu401  Cu402   2.702   .     S
Cu402  O443    1.985   .     S
Cu402  O446    1.985   .     S
Cu402  N416    2.031   .     S
Cu403  O435    1.985   .     S
Cu403  Cu404   2.702   .     S
Cu403  N426    2.031   .     S
Cu403  O438    1.985   .     S
Cu404  N427    2.031   .     S
Cu404  O434    1.985   .     S
Cu404  O439    1.985   .     S
O436   Cu180   1.985   1_565 S
O437   Cu180   1.985   1_565 S
O440   Cu179   1.985   1_565 S
O441   Cu290   1.985   1_655 S
O442   Cu289   1.985   1_655 S
O444   Cu290   1.985   1_655 S
O447   Cu289   1.985   1_655 S
O448   Cu179   1.985   1_565 S
C449   C478    1.477   .     S
C449   O545    1.308   .     A
C449   O555    1.299   .     A
C450   C899    1.428   .     S
C450   C485    1.444   .     S
C450   N517    1.372   .     S
C451   C486    1.445   .     S
C451   N528    1.373   .     S
C452   N517    1.372   .     A
C452   C487    1.444   .     S
C452   C960    1.428   .     S
C453   C488    1.444   .     S
C453   N763    1.372   .     S
C454   C489    1.445   .     S
C454   N538    1.373   .     A
C454   C903    1.428   .     S
C455   C490    1.444   .     S
C455   N539    1.372   .     A
C456   C491    1.445   .     S
C456   C901    1.428   .     S
C456   N762    1.373   .     S
C457   C468    1.394   .     A
C457   C492    1.447   .     S
C457   C476    1.416   .     A
C458   C475    1.409   .     A
C458   C494    1.451   .     S
C458   C469    1.394   .     A
C459   C466    1.394   .     A
C459   C495    1.447   .     S
C459   C475    1.416   .     A
C460   C477    1.477   .     S
C460   O553    1.299   .     A
C460   O554    1.308   .     A
C461   C476    1.409   .     A
C461   C467    1.394   .     A
C461   C496    1.451   .     S
C462   C478    1.409   .     A
C462   C497    1.451   .     S
C462   C473    1.394   .     A
C463   C498    1.447   .     S
C463   C477    1.416   .     A
C463   C474    1.394   .     A
C464   C499    1.451   .     S
C464   C477    1.409   .     A
C464   C470    1.394   .     A
C465   C478    1.416   .     A
C465   C500    1.447   .     S
C465   C472    1.394   .     A
C466   C501    1.451   .     S
C466   C480    1.409   .     A
C467   C479    1.416   .     A
C467   C502    1.447   .     S
C468   C503    1.451   .     S
C468   C479    1.409   .     A
C469   C480    1.416   .     A
C469   C505    1.447   .     S
C470   C483    1.416   .     A
C470   C506    1.447   .     S
C471   C476    1.477   .     S
C471   O559    1.308   .     A
C471   O556    1.299   .     A
C472   C481    1.409   .     A
C472   C507    1.451   .     S
C473   C508    1.447   .     S
C473   C481    1.416   .     A
C474   C509    1.451   .     S
C474   C483    1.409   .     A
C475   C482    1.477   .     S
C479   C511    1.477   .     S
C480   C510    1.477   .     S
C481   C504    1.477   .     S
C482   O558    1.299   .     A
C482   O557    1.308   .     A
C483   C493    1.477   .     S
C484   N540    1.158   .     T
C484   C512    1.445   .     S
C485   N541    1.158   .     T
C486   N542    1.158   .     T
C487   N543    1.158   .     T
C488   N544    1.158   .     T
C489   N518    1.158   .     T
C490   N519    1.158   .     T
C491   N520    1.158   .     T
C492   N521    1.155   .     T
C493   O560    1.299   .     A
C493   O548    1.308   .     A
C494   N522    1.156   .     T
C495   N523    1.155   .     T
C496   N524    1.156   .     T
C497   N525    1.156   .     T
C498   N526    1.155   .     T
C499   N527    1.156   .     T
C500   N529    1.155   .     T
C501   N530    1.156   .     T
C502   N531    1.155   .     T
C503   N532    1.156   .     T
C504   O546    1.308   .     A
C504   O547    1.299   .     A
C505   N533    1.155   .     T
C506   N534    1.155   .     T
C507   N535    1.156   .     T
C508   N536    1.155   .     T
C509   N537    1.156   .     T
C510   O549    1.308   .     A
C510   O552    1.299   .     A
C511   O550    1.299   .     A
C511   O551    1.308   .     A
C512   N528    1.373   .     S
Cu513  O557    1.985   .     S
Cu513  O545    1.985   .     S
Cu513  N517    2.031   .     S
Cu513  Cu514   2.702   .     S
Cu513  O666    1.985   1_455 S
Cu513  O671    1.985   1_455 S
Cu514  O555    1.985   .     S
Cu514  O558    1.985   .     S
Cu514  N528    2.031   .     S
Cu514  O665    1.985   1_455 S
Cu514  O668    1.985   1_455 S
Cu515  O547    1.985   .     S
Cu515  Cu516   2.702   .     S
Cu515  N538    2.031   .     S
Cu515  O550    1.985   .     S
Cu515  O776    1.985   1_545 S
Cu515  O784    1.985   1_545 S
Cu516  N539    2.031   .     S
Cu516  O546    1.985   .     S
Cu516  O551    1.985   .     S
Cu516  O772    1.985   1_545 S
Cu516  O773    1.985   1_545 S
N538   C680    1.373   1_545 S
N539   C677    1.372   1_545 S
O548   Cu740   1.985   .     S
O549   Cu740   1.985   .     S
O552   Cu739   1.985   .     S
O553   Cu626   1.985   .     S
O554   Cu625   1.985   .     S
O556   Cu626   1.985   .     S
O559   Cu625   1.985   .     S
O560   Cu739   1.985   .     S
C561   C590    1.477   .     S
C561   O657    1.308   .     A
C561   O667    1.299   .     A
C562   C1011   1.428   .     S
C562   C597    1.444   .     S
C562   N629    1.372   .     S
C563   C598    1.445   .     S
C563   N640    1.373   .     S
C564   N629    1.372   .     A
C564   C599    1.444   .     S
C564   C1072   1.428   .     S
C565   C600    1.444   .     S
C565   N875    1.372   .     S
C566   C601    1.445   .     S
C566   N650    1.373   .     A
C566   C1015   1.428   .     S
C567   C602    1.444   .     S
C567   N651    1.372   .     A
C568   C603    1.445   .     S
C568   C1013   1.428   .     S
C568   N874    1.373   .     S
C569   C580    1.394   .     A
C569   C604    1.447   .     S
C569   C588    1.416   .     A
C570   C587    1.409   .     A
C570   C606    1.451   .     S
C570   C581    1.394   .     A
C571   C578    1.394   .     A
C571   C607    1.447   .     S
C571   C587    1.416   .     A
C572   C589    1.477   .     S
C572   O665    1.299   .     A
C572   O666    1.308   .     A
C573   C588    1.409   .     A
C573   C579    1.394   .     A
C573   C608    1.451   .     S
C574   C590    1.409   .     A
C574   C609    1.451   .     S
C574   C585    1.394   .     A
C575   C610    1.447   .     S
C575   C589    1.416   .     A
C575   C586    1.394   .     A
C576   C611    1.451   .     S
C576   C589    1.409   .     A
C576   C582    1.394   .     A
C577   C590    1.416   .     A
C577   C612    1.447   .     S
C577   C584    1.394   .     A
C578   C613    1.451   .     S
C578   C592    1.409   .     A
C579   C591    1.416   .     A
C579   C614    1.447   .     S
C580   C615    1.451   .     S
C580   C591    1.409   .     A
C581   C592    1.416   .     A
C581   C617    1.447   .     S
C582   C595    1.416   .     A
C582   C618    1.447   .     S
C583   C588    1.477   .     S
C583   O671    1.308   .     A
C583   O668    1.299   .     A
C584   C593    1.409   .     A
C584   C619    1.451   .     S
C585   C620    1.447   .     S
C585   C593    1.416   .     A
C586   C621    1.451   .     S
C586   C595    1.409   .     A
C587   C594    1.477   .     S
C591   C623    1.477   .     S
C592   C622    1.477   .     S
C593   C616    1.477   .     S
C594   O670    1.299   .     A
C594   O669    1.308   .     A
C595   C605    1.477   .     S
C596   N652    1.158   .     T
C596   C624    1.445   .     S
C597   N653    1.158   .     T
C598   N654    1.158   .     T
C599   N655    1.158   .     T
C600   N656    1.158   .     T
C601   N630    1.158   .     T
C602   N631    1.158   .     T
C603   N632    1.158   .     T
C604   N633    1.155   .     T
C605   O672    1.299   .     A
C605   O660    1.308   .     A
C606   N634    1.156   .     T
C607   N635    1.155   .     T
C608   N636    1.156   .     T
C609   N637    1.156   .     T
C610   N638    1.155   .     T
C611   N639    1.156   .     T
C612   N641    1.155   .     T
C613   N642    1.156   .     T
C614   N643    1.155   .     T
C615   N644    1.156   .     T
C616   O658    1.308   .     A
C616   O659    1.299   .     A
C617   N645    1.155   .     T
C618   N646    1.155   .     T
C619   N647    1.156   .     T
C620   N648    1.155   .     T
C621   N649    1.156   .     T
C622   O661    1.308   .     A
C622   O664    1.299   .     A
C623   O662    1.299   .     A
C623   O663    1.308   .     A
C624   N640    1.373   .     S
Cu625  O669    1.985   .     S
Cu625  O657    1.985   .     S
Cu625  N629    2.031   .     S
Cu625  Cu626   2.702   .     S
Cu626  O667    1.985   .     S
Cu626  O670    1.985   .     S
Cu626  N640    2.031   .     S
Cu627  O659    1.985   .     S
Cu627  Cu628   2.702   .     S
Cu627  N650    2.031   .     S
Cu627  O662    1.985   .     S
Cu627  O888    1.985   1_545 S
Cu627  O896    1.985   1_545 S
Cu628  N651    2.031   .     S
Cu628  O658    1.985   .     S
Cu628  O663    1.985   .     S
Cu628  O884    1.985   1_545 S
Cu628  O885    1.985   1_545 S
N650   C792    1.373   1_545 S
N651   C789    1.372   1_545 S
O660   Cu852   1.985   .     S
O661   Cu852   1.985   .     S
O664   Cu851   1.985   .     S
O665   Cu514   1.985   1_655 S
O666   Cu513   1.985   1_655 S
O668   Cu514   1.985   1_655 S
O671   Cu513   1.985   1_655 S
O672   Cu851   1.985   .     S
C673   C702    1.477   .     S
C673   O769    1.308   .     A
C673   O779    1.299   .     A
C674   C1123   1.428   .     S
C674   C709    1.444   .     S
C674   N741    1.372   .     S
C675   C710    1.445   .     S
C675   N752    1.373   .     S
C676   N741    1.372   .     A
C676   C711    1.444   .     S
C676   C1184   1.428   .     S
C677   C712    1.444   .     S
C677   N539    1.372   1_565 S
C678   C713    1.445   .     S
C678   N762    1.373   .     A
C678   C1127   1.428   .     S
C679   C714    1.444   .     S
C679   N763    1.372   .     A
C680   C715    1.445   .     S
C680   C1125   1.428   .     S
C680   N538    1.373   1_565 S
C681   C692    1.394   .     A
C681   C716    1.447   .     S
C681   C700    1.416   .     A
C682   C699    1.409   .     A
C682   C718    1.451   .     S
C682   C693    1.394   .     A
C683   C690    1.394   .     A
C683   C719    1.447   .     S
C683   C699    1.416   .     A
C684   C701    1.477   .     S
C684   O777    1.299   .     A
C684   O778    1.308   .     A
C685   C700    1.409   .     A
C685   C691    1.394   .     A
C685   C720    1.451   .     S
C686   C702    1.409   .     A
C686   C721    1.451   .     S
C686   C697    1.394   .     A
C687   C722    1.447   .     S
C687   C701    1.416   .     A
C687   C698    1.394   .     A
C688   C723    1.451   .     S
C688   C701    1.409   .     A
C688   C694    1.394   .     A
C689   C702    1.416   .     A
C689   C724    1.447   .     S
C689   C696    1.394   .     A
C690   C725    1.451   .     S
C690   C704    1.409   .     A
C691   C703    1.416   .     A
C691   C726    1.447   .     S
C692   C727    1.451   .     S
C692   C703    1.409   .     A
C693   C704    1.416   .     A
C693   C729    1.447   .     S
C694   C707    1.416   .     A
C694   C730    1.447   .     S
C695   C700    1.477   .     S
C695   O783    1.308   .     A
C695   O780    1.299   .     A
C696   C705    1.409   .     A
C696   C731    1.451   .     S
C697   C732    1.447   .     S
C697   C705    1.416   .     A
C698   C733    1.451   .     S
C698   C707    1.409   .     A
C699   C706    1.477   .     S
C703   C735    1.477   .     S
C704   C734    1.477   .     S
C705   C728    1.477   .     S
C706   O782    1.299   .     A
C706   O781    1.308   .     A
C707   C717    1.477   .     S
C708   N764    1.158   .     T
C708   C736    1.445   .     S
C709   N765    1.158   .     T
C710   N766    1.158   .     T
C711   N767    1.158   .     T
C712   N768    1.158   .     T
C713   N742    1.158   .     T
C714   N743    1.158   .     T
C715   N744    1.158   .     T
C716   N745    1.155   .     T
C717   O784    1.299   .     A
C717   O772    1.308   .     A
C718   N746    1.156   .     T
C719   N747    1.155   .     T
C720   N748    1.156   .     T
C721   N749    1.156   .     T
C722   N750    1.155   .     T
C723   N751    1.156   .     T
C724   N753    1.155   .     T
C725   N754    1.156   .     T
C726   N755    1.155   .     T
C727   N756    1.156   .     T
C728   O770    1.308   .     A
C728   O771    1.299   .     A
C729   N757    1.155   .     T
C730   N758    1.155   .     T
C731   N759    1.156   .     T
C732   N760    1.155   .     T
C733   N761    1.156   .     T
C734   O773    1.308   .     A
C734   O776    1.299   .     A
C735   O774    1.299   .     A
C735   O775    1.308   .     A
C736   N752    1.373   .     S
Cu737  O781    1.985   .     S
Cu737  O769    1.985   .     S
Cu737  N741    2.031   .     S
Cu737  Cu738   2.702   .     S
Cu737  O890    1.985   1_455 S
Cu737  O895    1.985   1_455 S
Cu738  O779    1.985   .     S
Cu738  O782    1.985   .     S
Cu738  N752    2.031   .     S
Cu738  O889    1.985   1_455 S
Cu738  O892    1.985   1_455 S
Cu739  O771    1.985   .     S
Cu739  Cu740   2.702   .     S
Cu739  N762    2.031   .     S
Cu739  O774    1.985   .     S
Cu740  N763    2.031   .     S
Cu740  O770    1.985   .     S
Cu740  O775    1.985   .     S
O772   Cu516   1.985   1_565 S
O773   Cu516   1.985   1_565 S
O776   Cu515   1.985   1_565 S
O777   Cu850   1.985   .     S
O778   Cu849   1.985   .     S
O780   Cu850   1.985   .     S
O783   Cu849   1.985   .     S
O784   Cu515   1.985   1_565 S
C785   C814    1.477   .     S
C785   O881    1.308   .     A
C785   O891    1.299   .     A
C786   C1235   1.428   .     S
C786   C821    1.444   .     S
C786   N853    1.372   .     S
C787   C822    1.445   .     S
C787   N864    1.373   .     S
C788   N853    1.372   .     A
C788   C823    1.444   .     S
C788   C1296   1.428   .     S
C789   C824    1.444   .     S
C789   N651    1.372   1_565 S
C790   C825    1.445   .     S
C790   N874    1.373   .     A
C790   C1239   1.428   .     S
C791   C826    1.444   .     S
C791   N875    1.372   .     A
C792   C827    1.445   .     S
C792   C1237   1.428   .     S
C792   N650    1.373   1_565 S
C793   C804    1.394   .     A
C793   C828    1.447   .     S
C793   C812    1.416   .     A
C794   C811    1.409   .     A
C794   C830    1.451   .     S
C794   C805    1.394   .     A
C795   C802    1.394   .     A
C795   C831    1.447   .     S
C795   C811    1.416   .     A
C796   C813    1.477   .     S
C796   O889    1.299   .     A
C796   O890    1.308   .     A
C797   C812    1.409   .     A
C797   C803    1.394   .     A
C797   C832    1.451   .     S
C798   C814    1.409   .     A
C798   C833    1.451   .     S
C798   C809    1.394   .     A
C799   C834    1.447   .     S
C799   C813    1.416   .     A
C799   C810    1.394   .     A
C800   C835    1.451   .     S
C800   C813    1.409   .     A
C800   C806    1.394   .     A
C801   C814    1.416   .     A
C801   C836    1.447   .     S
C801   C808    1.394   .     A
C802   C837    1.451   .     S
C802   C816    1.409   .     A
C803   C815    1.416   .     A
C803   C838    1.447   .     S
C804   C839    1.451   .     S
C804   C815    1.409   .     A
C805   C816    1.416   .     A
C805   C841    1.447   .     S
C806   C819    1.416   .     A
C806   C842    1.447   .     S
C807   C812    1.477   .     S
C807   O895    1.308   .     A
C807   O892    1.299   .     A
C808   C817    1.409   .     A
C808   C843    1.451   .     S
C809   C844    1.447   .     S
C809   C817    1.416   .     A
C810   C845    1.451   .     S
C810   C819    1.409   .     A
C811   C818    1.477   .     S
C815   C847    1.477   .     S
C816   C846    1.477   .     S
C817   C840    1.477   .     S
C818   O894    1.299   .     A
C818   O893    1.308   .     A
C819   C829    1.477   .     S
C820   N876    1.158   .     T
C820   C848    1.445   .     S
C821   N877    1.158   .     T
C822   N878    1.158   .     T
C823   N879    1.158   .     T
C824   N880    1.158   .     T
C825   N854    1.158   .     T
C826   N855    1.158   .     T
C827   N856    1.158   .     T
C828   N857    1.155   .     T
C829   O896    1.299   .     A
C829   O884    1.308   .     A
C830   N858    1.156   .     T
C831   N859    1.155   .     T
C832   N860    1.156   .     T
C833   N861    1.156   .     T
C834   N862    1.155   .     T
C835   N863    1.156   .     T
C836   N865    1.155   .     T
C837   N866    1.156   .     T
C838   N867    1.155   .     T
C839   N868    1.156   .     T
C840   O882    1.308   .     A
C840   O883    1.299   .     A
C841   N869    1.155   .     T
C842   N870    1.155   .     T
C843   N871    1.156   .     T
C844   N872    1.155   .     T
C845   N873    1.156   .     T
C846   O885    1.308   .     A
C846   O888    1.299   .     A
C847   O886    1.299   .     A
C847   O887    1.308   .     A
C848   N864    1.373   .     S
Cu849  O893    1.985   .     S
Cu849  O881    1.985   .     S
Cu849  N853    2.031   .     S
Cu849  Cu850   2.702   .     S
Cu850  O891    1.985   .     S
Cu850  O894    1.985   .     S
Cu850  N864    2.031   .     S
Cu851  O883    1.985   .     S
Cu851  Cu852   2.702   .     S
Cu851  N874    2.031   .     S
Cu851  O886    1.985   .     S
Cu852  N875    2.031   .     S
Cu852  O882    1.985   .     S
Cu852  O887    1.985   .     S
O884   Cu628   1.985   1_565 S
O885   Cu628   1.985   1_565 S
O888   Cu627   1.985   1_565 S
O889   Cu738   1.985   1_655 S
O890   Cu737   1.985   1_655 S
O892   Cu738   1.985   1_655 S
O895   Cu737   1.985   1_655 S
O896   Cu627   1.985   1_565 S
C897   C926    1.477   .     S
C897   O993    1.308   .     A
C897   O1003   1.299   .     A
C898   C3      1.428   1_556 S
C898   C933    1.444   .     S
C898   N965    1.372   .     S
C899   C934    1.445   .     S
C899   N976    1.373   .     S
C900   N965    1.372   .     A
C900   C935    1.444   .     S
C900   C64     1.428   1_556 S
C901   C936    1.444   .     S
C901   N1211   1.372   .     S
C902   C937    1.445   .     S
C902   N986    1.373   .     A
C902   C7      1.428   1_556 S
C903   C938    1.444   .     S
C903   N987    1.372   .     A
C904   C939    1.445   .     S
C904   C5      1.428   1_556 S
C904   N1210   1.373   .     S
C905   C916    1.394   .     A
C905   C940    1.447   .     S
C905   C924    1.416   .     A
C906   C923    1.409   .     A
C906   C942    1.451   .     S
C906   C917    1.394   .     A
C907   C914    1.394   .     A
C907   C943    1.447   .     S
C907   C923    1.416   .     A
C908   C925    1.477   .     S
C908   O1001   1.299   .     A
C908   O1002   1.308   .     A
C909   C924    1.409   .     A
C909   C915    1.394   .     A
C909   C944    1.451   .     S
C910   C926    1.409   .     A
C910   C945    1.451   .     S
C910   C921    1.394   .     A
C911   C946    1.447   .     S
C911   C925    1.416   .     A
C911   C922    1.394   .     A
C912   C947    1.451   .     S
C912   C925    1.409   .     A
C912   C918    1.394   .     A
C913   C926    1.416   .     A
C913   C948    1.447   .     S
C913   C920    1.394   .     A
C914   C949    1.451   .     S
C914   C928    1.409   .     A
C915   C927    1.416   .     A
C915   C950    1.447   .     S
C916   C951    1.451   .     S
C916   C927    1.409   .     A
C917   C928    1.416   .     A
C917   C953    1.447   .     S
C918   C931    1.416   .     A
C918   C954    1.447   .     S
C919   C924    1.477   .     S
C919   O1007   1.308   .     A
C919   O1004   1.299   .     A
C920   C929    1.409   .     A
C920   C955    1.451   .     S
C921   C956    1.447   .     S
C921   C929    1.416   .     A
C922   C957    1.451   .     S
C922   C931    1.409   .     A
C923   C930    1.477   .     S
C927   C959    1.477   .     S
C928   C958    1.477   .     S
C929   C952    1.477   .     S
C930   O1006   1.299   .     A
C930   O1005   1.308   .     A
C931   C941    1.477   .     S
C932   N988    1.158   .     T
C932   C960    1.445   .     S
C933   N989    1.158   .     T
C934   N990    1.158   .     T
C935   N991    1.158   .     T
C936   N992    1.158   .     T
C937   N966    1.158   .     T
C938   N967    1.158   .     T
C939   N968    1.158   .     T
C940   N969    1.155   .     T
C941   O1008   1.299   .     A
C941   O996    1.308   .     A
C942   N970    1.156   .     T
C943   N971    1.155   .     T
C944   N972    1.156   .     T
C945   N973    1.156   .     T
C946   N974    1.155   .     T
C947   N975    1.156   .     T
C948   N977    1.155   .     T
C949   N978    1.156   .     T
C950   N979    1.155   .     T
C951   N980    1.156   .     T
C952   O994    1.308   .     A
C952   O995    1.299   .     A
C953   N981    1.155   .     T
C954   N982    1.155   .     T
C955   N983    1.156   .     T
C956   N984    1.155   .     T
C957   N985    1.156   .     T
C958   O997    1.308   .     A
C958   O1000   1.299   .     A
C959   O998    1.299   .     A
C959   O999    1.308   .     A
C960   N976    1.373   .     S
Cu961  O1005   1.985   .     S
Cu961  O993    1.985   .     S
Cu961  N965    2.031   .     S
Cu961  Cu962   2.702   .     S
Cu961  O1114   1.985   1_455 S
Cu961  O1119   1.985   1_455 S
Cu962  O1003   1.985   .     S
Cu962  O1006   1.985   .     S
Cu962  N976    2.031   .     S
Cu962  O1113   1.985   1_455 S
Cu962  O1116   1.985   1_455 S
Cu963  O995    1.985   .     S
Cu963  Cu964   2.702   .     S
Cu963  N986    2.031   .     S
Cu963  O998    1.985   .     S
Cu963  O1224   1.985   1_545 S
Cu963  O1232   1.985   1_545 S
Cu964  N987    2.031   .     S
Cu964  O994    1.985   .     S
Cu964  O999    1.985   .     S
Cu964  O1220   1.985   1_545 S
Cu964  O1221   1.985   1_545 S
N986   C1128   1.373   1_545 S
N987   C1125   1.372   1_545 S
O996   Cu1188  1.985   .     S
O997   Cu1188  1.985   .     S
O1000  Cu1187  1.985   .     S
O1001  Cu1074  1.985   .     S
O1002  Cu1073  1.985   .     S
O1004  Cu1074  1.985   .     S
O1007  Cu1073  1.985   .     S
O1008  Cu1187  1.985   .     S
C1009  C1038   1.477   .     S
C1009  O1105   1.308   .     A
C1009  O1115   1.299   .     A
C1010  C115    1.428   1_556 S
C1010  C1045   1.444   .     S
C1010  N1077   1.372   .     S
C1011  C1046   1.445   .     S
C1011  N1088   1.373   .     S
C1012  N1077   1.372   .     A
C1012  C1047   1.444   .     S
C1012  C176    1.428   1_556 S
C1013  C1048   1.444   .     S
C1013  N1323   1.372   .     S
C1014  C1049   1.445   .     S
C1014  N1098   1.373   .     A
C1014  C119    1.428   1_556 S
C1015  C1050   1.444   .     S
C1015  N1099   1.372   .     A
C1016  C1051   1.445   .     S
C1016  C117    1.428   1_556 S
C1016  N1322   1.373   .     S
C1017  C1028   1.394   .     A
C1017  C1052   1.447   .     S
C1017  C1036   1.416   .     A
C1018  C1035   1.409   .     A
C1018  C1054   1.451   .     S
C1018  C1029   1.394   .     A
C1019  C1026   1.394   .     A
C1019  C1055   1.447   .     S
C1019  C1035   1.416   .     A
C1020  C1037   1.477   .     S
C1020  O1113   1.299   .     A
C1020  O1114   1.308   .     A
C1021  C1036   1.409   .     A
C1021  C1027   1.394   .     A
C1021  C1056   1.451   .     S
C1022  C1038   1.409   .     A
C1022  C1057   1.451   .     S
C1022  C1033   1.394   .     A
C1023  C1058   1.447   .     S
C1023  C1037   1.416   .     A
C1023  C1034   1.394   .     A
C1024  C1059   1.451   .     S
C1024  C1037   1.409   .     A
C1024  C1030   1.394   .     A
C1025  C1038   1.416   .     A
C1025  C1060   1.447   .     S
C1025  C1032   1.394   .     A
C1026  C1061   1.451   .     S
C1026  C1040   1.409   .     A
C1027  C1039   1.416   .     A
C1027  C1062   1.447   .     S
C1028  C1063   1.451   .     S
C1028  C1039   1.409   .     A
C1029  C1040   1.416   .     A
C1029  C1065   1.447   .     S
C1030  C1043   1.416   .     A
C1030  C1066   1.447   .     S
C1031  C1036   1.477   .     S
C1031  O1119   1.308   .     A
C1031  O1116   1.299   .     A
C1032  C1041   1.409   .     A
C1032  C1067   1.451   .     S
C1033  C1068   1.447   .     S
C1033  C1041   1.416   .     A
C1034  C1069   1.451   .     S
C1034  C1043   1.409   .     A
C1035  C1042   1.477   .     S
C1039  C1071   1.477   .     S
C1040  C1070   1.477   .     S
C1041  C1064   1.477   .     S
C1042  O1118   1.299   .     A
C1042  O1117   1.308   .     A
C1043  C1053   1.477   .     S
C1044  N1100   1.158   .     T
C1044  C1072   1.445   .     S
C1045  N1101   1.158   .     T
C1046  N1102   1.158   .     T
C1047  N1103   1.158   .     T
C1048  N1104   1.158   .     T
C1049  N1078   1.158   .     T
C1050  N1079   1.158   .     T
C1051  N1080   1.158   .     T
C1052  N1081   1.155   .     T
C1053  O1120   1.299   .     A
C1053  O1108   1.308   .     A
C1054  N1082   1.156   .     T
C1055  N1083   1.155   .     T
C1056  N1084   1.156   .     T
C1057  N1085   1.156   .     T
C1058  N1086   1.155   .     T
C1059  N1087   1.156   .     T
C1060  N1089   1.155   .     T
C1061  N1090   1.156   .     T
C1062  N1091   1.155   .     T
C1063  N1092   1.156   .     T
C1064  O1106   1.308   .     A
C1064  O1107   1.299   .     A
C1065  N1093   1.155   .     T
C1066  N1094   1.155   .     T
C1067  N1095   1.156   .     T
C1068  N1096   1.155   .     T
C1069  N1097   1.156   .     T
C1070  O1109   1.308   .     A
C1070  O1112   1.299   .     A
C1071  O1110   1.299   .     A
C1071  O1111   1.308   .     A
C1072  N1088   1.373   .     S
Cu1073 O1117   1.985   .     S
Cu1073 O1105   1.985   .     S
Cu1073 N1077   2.031   .     S
Cu1073 Cu1074  2.702   .     S
Cu1074 O1115   1.985   .     S
Cu1074 O1118   1.985   .     S
Cu1074 N1088   2.031   .     S
Cu1075 O1107   1.985   .     S
Cu1075 Cu1076  2.702   .     S
Cu1075 N1098   2.031   .     S
Cu1075 O1110   1.985   .     S
Cu1075 O1336   1.985   1_545 S
Cu1075 O1344   1.985   1_545 S
Cu1076 N1099   2.031   .     S
Cu1076 O1106   1.985   .     S
Cu1076 O1111   1.985   .     S
Cu1076 O1332   1.985   1_545 S
Cu1076 O1333   1.985   1_545 S
N1098  C1240   1.373   1_545 S
N1099  C1237   1.372   1_545 S
O1108  Cu1300  1.985   .     S
O1109  Cu1300  1.985   .     S
O1112  Cu1299  1.985   .     S
O1113  Cu962   1.985   1_655 S
O1114  Cu961   1.985   1_655 S
O1116  Cu962   1.985   1_655 S
O1119  Cu961   1.985   1_655 S
O1120  Cu1299  1.985   .     S
C1121  C1150   1.477   .     S
C1121  O1217   1.308   .     A
C1121  O1227   1.299   .     A
C1122  C227    1.428   1_556 S
C1122  C1157   1.444   .     S
C1122  N1189   1.372   .     S
C1123  C1158   1.445   .     S
C1123  N1200   1.373   .     S
C1124  N1189   1.372   .     A
C1124  C1159   1.444   .     S
C1124  C288    1.428   1_556 S
C1125  C1160   1.444   .     S
C1125  N987    1.372   1_565 S
C1126  C1161   1.445   .     S
C1126  N1210   1.373   .     A
C1126  C231    1.428   1_556 S
C1127  C1162   1.444   .     S
C1127  N1211   1.372   .     A
C1128  C1163   1.445   .     S
C1128  C229    1.428   1_556 S
C1128  N986    1.373   1_565 S
C1129  C1140   1.394   .     A
C1129  C1164   1.447   .     S
C1129  C1148   1.416   .     A
C1130  C1147   1.409   .     A
C1130  C1166   1.451   .     S
C1130  C1141   1.394   .     A
C1131  C1138   1.394   .     A
C1131  C1167   1.447   .     S
C1131  C1147   1.416   .     A
C1132  C1149   1.477   .     S
C1132  O1225   1.299   .     A
C1132  O1226   1.308   .     A
C1133  C1148   1.409   .     A
C1133  C1139   1.394   .     A
C1133  C1168   1.451   .     S
C1134  C1150   1.409   .     A
C1134  C1169   1.451   .     S
C1134  C1145   1.394   .     A
C1135  C1170   1.447   .     S
C1135  C1149   1.416   .     A
C1135  C1146   1.394   .     A
C1136  C1171   1.451   .     S
C1136  C1149   1.409   .     A
C1136  C1142   1.394   .     A
C1137  C1150   1.416   .     A
C1137  C1172   1.447   .     S
C1137  C1144   1.394   .     A
C1138  C1173   1.451   .     S
C1138  C1152   1.409   .     A
C1139  C1151   1.416   .     A
C1139  C1174   1.447   .     S
C1140  C1175   1.451   .     S
C1140  C1151   1.409   .     A
C1141  C1152   1.416   .     A
C1141  C1177   1.447   .     S
C1142  C1155   1.416   .     A
C1142  C1178   1.447   .     S
C1143  C1148   1.477   .     S
C1143  O1231   1.308   .     A
C1143  O1228   1.299   .     A
C1144  C1153   1.409   .     A
C1144  C1179   1.451   .     S
C1145  C1180   1.447   .     S
C1145  C1153   1.416   .     A
C1146  C1181   1.451   .     S
C1146  C1155   1.409   .     A
C1147  C1154   1.477   .     S
C1151  C1183   1.477   .     S
C1152  C1182   1.477   .     S
C1153  C1176   1.477   .     S
C1154  O1230   1.299   .     A
C1154  O1229   1.308   .     A
C1155  C1165   1.477   .     S
C1156  N1212   1.158   .     T
C1156  C1184   1.445   .     S
C1157  N1213   1.158   .     T
C1158  N1214   1.158   .     T
C1159  N1215   1.158   .     T
C1160  N1216   1.158   .     T
C1161  N1190   1.158   .     T
C1162  N1191   1.158   .     T
C1163  N1192   1.158   .     T
C1164  N1193   1.155   .     T
C1165  O1232   1.299   .     A
C1165  O1220   1.308   .     A
C1166  N1194   1.156   .     T
C1167  N1195   1.155   .     T
C1168  N1196   1.156   .     T
C1169  N1197   1.156   .     T
C1170  N1198   1.155   .     T
C1171  N1199   1.156   .     T
C1172  N1201   1.155   .     T
C1173  N1202   1.156   .     T
C1174  N1203   1.155   .     T
C1175  N1204   1.156   .     T
C1176  O1218   1.308   .     A
C1176  O1219   1.299   .     A
C1177  N1205   1.155   .     T
C1178  N1206   1.155   .     T
C1179  N1207   1.156   .     T
C1180  N1208   1.155   .     T
C1181  N1209   1.156   .     T
C1182  O1221   1.308   .     A
C1182  O1224   1.299   .     A
C1183  O1222   1.299   .     A
C1183  O1223   1.308   .     A
C1184  N1200   1.373   .     S
Cu1185 O1229   1.985   .     S
Cu1185 O1217   1.985   .     S
Cu1185 N1189   2.031   .     S
Cu1185 Cu1186  2.702   .     S
Cu1185 O1338   1.985   1_455 S
Cu1185 O1343   1.985   1_455 S
Cu1186 O1227   1.985   .     S
Cu1186 O1230   1.985   .     S
Cu1186 N1200   2.031   .     S
Cu1186 O1337   1.985   1_455 S
Cu1186 O1340   1.985   1_455 S
Cu1187 O1219   1.985   .     S
Cu1187 Cu1188  2.702   .     S
Cu1187 N1210   2.031   .     S
Cu1187 O1222   1.985   .     S
Cu1188 N1211   2.031   .     S
Cu1188 O1218   1.985   .     S
Cu1188 O1223   1.985   .     S
O1220  Cu964   1.985   1_565 S
O1221  Cu964   1.985   1_565 S
O1224  Cu963   1.985   1_565 S
O1225  Cu1298  1.985   .     S
O1226  Cu1297  1.985   .     S
O1228  Cu1298  1.985   .     S
O1231  Cu1297  1.985   .     S
O1232  Cu963   1.985   1_565 S
C1233  C1262   1.477   .     S
C1233  O1329   1.308   .     A
C1233  O1339   1.299   .     A
C1234  C339    1.428   1_556 S
C1234  C1269   1.444   .     S
C1234  N1301   1.372   .     S
C1235  C1270   1.445   .     S
C1235  N1312   1.373   .     S
C1236  N1301   1.372   .     A
C1236  C1271   1.444   .     S
C1236  C400    1.428   1_556 S
C1237  C1272   1.444   .     S
C1237  N1099   1.372   1_565 S
C1238  C1273   1.445   .     S
C1238  N1322   1.373   .     A
C1238  C343    1.428   1_556 S
C1239  C1274   1.444   .     S
C1239  N1323   1.372   .     A
C1240  C1275   1.445   .     S
C1240  C341    1.428   1_556 S
C1240  N1098   1.373   1_565 S
C1241  C1252   1.394   .     A
C1241  C1276   1.447   .     S
C1241  C1260   1.416   .     A
C1242  C1259   1.409   .     A
C1242  C1278   1.451   .     S
C1242  C1253   1.394   .     A
C1243  C1250   1.394   .     A
C1243  C1279   1.447   .     S
C1243  C1259   1.416   .     A
C1244  C1261   1.477   .     S
C1244  O1337   1.299   .     A
C1244  O1338   1.308   .     A
C1245  C1260   1.409   .     A
C1245  C1251   1.394   .     A
C1245  C1280   1.451   .     S
C1246  C1262   1.409   .     A
C1246  C1281   1.451   .     S
C1246  C1257   1.394   .     A
C1247  C1282   1.447   .     S
C1247  C1261   1.416   .     A
C1247  C1258   1.394   .     A
C1248  C1283   1.451   .     S
C1248  C1261   1.409   .     A
C1248  C1254   1.394   .     A
C1249  C1262   1.416   .     A
C1249  C1284   1.447   .     S
C1249  C1256   1.394   .     A
C1250  C1285   1.451   .     S
C1250  C1264   1.409   .     A
C1251  C1263   1.416   .     A
C1251  C1286   1.447   .     S
C1252  C1287   1.451   .     S
C1252  C1263   1.409   .     A
C1253  C1264   1.416   .     A
C1253  C1289   1.447   .     S
C1254  C1267   1.416   .     A
C1254  C1290   1.447   .     S
C1255  C1260   1.477   .     S
C1255  O1343   1.308   .     A
C1255  O1340   1.299   .     A
C1256  C1265   1.409   .     A
C1256  C1291   1.451   .     S
C1257  C1292   1.447   .     S
C1257  C1265   1.416   .     A
C1258  C1293   1.451   .     S
C1258  C1267   1.409   .     A
C1259  C1266   1.477   .     S
C1263  C1295   1.477   .     S
C1264  C1294   1.477   .     S
C1265  C1288   1.477   .     S
C1266  O1342   1.299   .     A
C1266  O1341   1.308   .     A
C1267  C1277   1.477   .     S
C1268  N1324   1.158   .     T
C1268  C1296   1.445   .     S
C1269  N1325   1.158   .     T
C1270  N1326   1.158   .     T
C1271  N1327   1.158   .     T
C1272  N1328   1.158   .     T
C1273  N1302   1.158   .     T
C1274  N1303   1.158   .     T
C1275  N1304   1.158   .     T
C1276  N1305   1.155   .     T
C1277  O1344   1.299   .     A
C1277  O1332   1.308   .     A
C1278  N1306   1.156   .     T
C1279  N1307   1.155   .     T
C1280  N1308   1.156   .     T
C1281  N1309   1.156   .     T
C1282  N1310   1.155   .     T
C1283  N1311   1.156   .     T
C1284  N1313   1.155   .     T
C1285  N1314   1.156   .     T
C1286  N1315   1.155   .     T
C1287  N1316   1.156   .     T
C1288  O1330   1.308   .     A
C1288  O1331   1.299   .     A
C1289  N1317   1.155   .     T
C1290  N1318   1.155   .     T
C1291  N1319   1.156   .     T
C1292  N1320   1.155   .     T
C1293  N1321   1.156   .     T
C1294  O1333   1.308   .     A
C1294  O1336   1.299   .     A
C1295  O1334   1.299   .     A
C1295  O1335   1.308   .     A
C1296  N1312   1.373   .     S
Cu1297 O1341   1.985   .     S
Cu1297 O1329   1.985   .     S
Cu1297 N1301   2.031   .     S
Cu1297 Cu1298  2.702   .     S
Cu1298 O1339   1.985   .     S
Cu1298 O1342   1.985   .     S
Cu1298 N1312   2.031   .     S
Cu1299 O1331   1.985   .     S
Cu1299 Cu1300  2.702   .     S
Cu1299 N1322   2.031   .     S
Cu1299 O1334   1.985   .     S
Cu1300 N1323   2.031   .     S
Cu1300 O1330   1.985   .     S
Cu1300 O1335   1.985   .     S
O1332  Cu1076  1.985   1_565 S
O1333  Cu1076  1.985   1_565 S
O1336  Cu1075  1.985   1_565 S
O1337  Cu1186  1.985   1_655 S
O1338  Cu1185  1.985   1_655 S
O1340  Cu1186  1.985   1_655 S
O1343  Cu1185  1.985   1_655 S
O1344  Cu1075  1.985   1_565 S
