data_str_m2_o1_o17_pcu_sym.196
_audit_creation_date              2020-01-03
_audit_creation_method            'Materials Studio'
_symmetry_space_group_name_H-M    'P1'
_symmetry_Int_Tables_number       1
_symmetry_cell_setting            triclinic
loop_
_symmetry_equiv_pos_as_xyz
  x,y,z
_cell_length_a                    32.4499
_cell_length_b                    29.1240
_cell_length_c                    30.0907
_cell_angle_alpha                 90.4448
_cell_angle_beta                  93.9143
_cell_angle_gamma                 90.0920
loop_
_atom_site_label
_atom_site_type_symbol
_atom_site_fract_x
_atom_site_fract_y
_atom_site_fract_z
_atom_site_U_iso_or_equiv
_atom_site_adp_type
_atom_site_occupancy
C1     C     0.08757   0.16665   0.25032   0.00000  Uiso   1.00
C2     C     0.24577   0.16669   0.24968   0.00000  Uiso   1.00
C3     C     0.09063   0.16679   0.01394   0.00000  Uiso   1.00
C4     C     0.24270   0.16654   0.48606   0.00000  Uiso   1.00
C5     C     0.02127   0.12497   0.25061   0.00000  Uiso   1.00
C6     C     0.31206   0.20837   0.24939   0.00000  Uiso   1.00
C7     C     0.31196   0.12498   0.24999   0.00000  Uiso   1.00
C8     C     0.02137   0.20835   0.25001   0.00000  Uiso   1.00
C9     C     0.29048   0.16669   0.24958   0.00000  Uiso   1.00
C10    C     0.04285   0.16665   0.25042   0.00000  Uiso   1.00
C11    C     0.13996   0.02433   0.22158   0.00000  Uiso   1.00
C12    C     0.19338   0.30901   0.27842   0.00000  Uiso   1.00
C13    C     0.19333   0.02484   0.27853   0.00000  Uiso   1.00
C14    C     0.14000   0.30849   0.22147   0.00000  Uiso   1.00
C15    C     0.16485   0.16648   0.16461   0.00000  Uiso   1.00
C16    C     0.16849   0.16685   0.33539   0.00000  Uiso   1.00
C17    C     0.20769   0.17078   0.41059   0.00000  Uiso   1.00
C18    C     0.12565   0.16255   0.08942   0.00000  Uiso   1.00
C19    C     0.17003   0.16719   0.38384   0.00000  Uiso   1.00
C20    C     0.16331   0.16615   0.11616   0.00000  Uiso   1.00
C21    C     0.13226   0.16517   0.40314   0.00000  Uiso   1.00
C22    C     0.20107   0.16817   0.09686   0.00000  Uiso   1.00
C23    C     0.13071   0.16617   0.44915   0.00000  Uiso   1.00
C24    C     0.20263   0.16716   0.05085   0.00000  Uiso   1.00
C25    C     0.16763   0.16700   0.47664   0.00000  Uiso   1.00
C26    C     0.16570   0.16634   0.02337   0.00000  Uiso   1.00
C27    C     0.20640   0.16846   0.45753   0.00000  Uiso   1.00
C28    C     0.12693   0.16487   0.04247   0.00000  Uiso   1.00
C29    C     0.09256   0.16662   0.46796   0.00000  Uiso   1.00
C30    C     0.24078   0.16671   0.03204   0.00000  Uiso   1.00
Cu31   Cu    0.16667   0.21355   0.25000   0.00000  Uiso   1.00
Cu32   Cu    0.16667   0.11978   0.25000   0.00000  Uiso   1.00
H33    H     0.10381   0.16360   0.38197   0.00000  Uiso   1.00
H34    H     0.22953   0.16973   0.11803   0.00000  Uiso   1.00
H35    H     0.06402   0.16730   0.44702   0.00000  Uiso   1.00
H36    H     0.26931   0.16603   0.05298   0.00000  Uiso   1.00
H37    H     0.06035   0.16933   0.02656   0.00000  Uiso   1.00
H38    H     0.27298   0.16401   0.47344   0.00000  Uiso   1.00
H39    H     0.03719   0.09232   0.25124   0.00000  Uiso   1.00
H40    H     0.29614   0.24102   0.24877   0.00000  Uiso   1.00
H41    H     0.29597   0.09233   0.24987   0.00000  Uiso   1.00
H42    H     0.03736   0.24100   0.25013   0.00000  Uiso   1.00
N43    N     0.16667   0.28402   0.25000   0.00000  Uiso   1.00
N44    N     0.16667   0.04931   0.25000   0.00000  Uiso   1.00
O45    O     0.10655   0.20625   0.25000   0.00000  Uiso   1.00
O46    O     0.22679   0.12709   0.25001   0.00000  Uiso   1.00
O47    O     0.22679   0.20625   0.25001   0.00000  Uiso   1.00
O48    O     0.10655   0.12709   0.25000   0.00000  Uiso   1.00
O49    O     0.16666   0.20627   0.18513   0.00000  Uiso   1.00
O50    O     0.16668   0.12707   0.31487   0.00000  Uiso   1.00
O51    O     0.16668   0.20627   0.31487   0.00000  Uiso   1.00
O52    O     0.16666   0.12707   0.18513   0.00000  Uiso   1.00
C53    C     0.24747   0.17982   0.39002   0.00000  Uiso   1.00
O54    O     0.25515   0.16089   0.35524   0.00000  Uiso   1.00
O55    O     0.27563   0.21163   0.40968   0.00000  Uiso   1.00
H56    H     0.30143   0.21475   0.39272   0.00000  Uiso   1.00
C57    C     0.08587   0.15351   0.10998   0.00000  Uiso   1.00
O58    O     0.07819   0.17244   0.14476   0.00000  Uiso   1.00
O59    O     0.05770   0.12171   0.09031   0.00000  Uiso   1.00
H60    H     0.03190   0.11860   0.10727   0.00000  Uiso   1.00
I61    I     0.09681   0.05811   0.17632   0.00000  Uiso   1.00
I62    I     0.23653   0.27522   0.32368   0.00000  Uiso   1.00
I63    I     0.23598   0.05918   0.32490   0.00000  Uiso   1.00
I64    I     0.09735   0.27416   0.17510   0.00000  Uiso   1.00
C65    C     0.42090   0.16665   0.25032   0.00000  Uiso   1.00
C66    C     0.57910   0.16669   0.24968   0.00000  Uiso   1.00
C67    C     0.42396   0.16679   0.01394   0.00000  Uiso   1.00
C68    C     0.57604   0.16654   0.48606   0.00000  Uiso   1.00
C69    C     0.35461   0.12497   0.25061   0.00000  Uiso   1.00
C70    C     0.64539   0.20837   0.24939   0.00000  Uiso   1.00
C71    C     0.64530   0.12498   0.24999   0.00000  Uiso   1.00
C72    C     0.35470   0.20835   0.25001   0.00000  Uiso   1.00
C73    C     0.62381   0.16669   0.24958   0.00000  Uiso   1.00
C74    C     0.37619   0.16665   0.25042   0.00000  Uiso   1.00
C75    C     0.47329   0.02433   0.22158   0.00000  Uiso   1.00
C76    C     0.52671   0.30901   0.27842   0.00000  Uiso   1.00
C77    C     0.52667   0.02484   0.27853   0.00000  Uiso   1.00
C78    C     0.47333   0.30849   0.22147   0.00000  Uiso   1.00
C79    C     0.49818   0.16648   0.16461   0.00000  Uiso   1.00
C80    C     0.50182   0.16685   0.33539   0.00000  Uiso   1.00
C81    C     0.54102   0.17078   0.41059   0.00000  Uiso   1.00
C82    C     0.45898   0.16255   0.08942   0.00000  Uiso   1.00
C83    C     0.50336   0.16719   0.38384   0.00000  Uiso   1.00
C84    C     0.49664   0.16615   0.11616   0.00000  Uiso   1.00
C85    C     0.46559   0.16517   0.40314   0.00000  Uiso   1.00
C86    C     0.53441   0.16817   0.09686   0.00000  Uiso   1.00
C87    C     0.46404   0.16617   0.44915   0.00000  Uiso   1.00
C88    C     0.53596   0.16716   0.05085   0.00000  Uiso   1.00
C89    C     0.50096   0.16700   0.47664   0.00000  Uiso   1.00
C90    C     0.49904   0.16634   0.02337   0.00000  Uiso   1.00
C91    C     0.53973   0.16846   0.45753   0.00000  Uiso   1.00
C92    C     0.46027   0.16487   0.04247   0.00000  Uiso   1.00
C93    C     0.42589   0.16662   0.46796   0.00000  Uiso   1.00
C94    C     0.57411   0.16671   0.03204   0.00000  Uiso   1.00
Cu95   Cu    0.50000   0.21355   0.25000   0.00000  Uiso   1.00
Cu96   Cu    0.50000   0.11978   0.25000   0.00000  Uiso   1.00
H97    H     0.43714   0.16360   0.38197   0.00000  Uiso   1.00
H98    H     0.56286   0.16973   0.11803   0.00000  Uiso   1.00
H99    H     0.39735   0.16730   0.44702   0.00000  Uiso   1.00
H100   H     0.60265   0.16603   0.05298   0.00000  Uiso   1.00
H101   H     0.39368   0.16933   0.02656   0.00000  Uiso   1.00
H102   H     0.60632   0.16401   0.47344   0.00000  Uiso   1.00
H103   H     0.37053   0.09232   0.25124   0.00000  Uiso   1.00
H104   H     0.62947   0.24102   0.24877   0.00000  Uiso   1.00
H105   H     0.62930   0.09233   0.24987   0.00000  Uiso   1.00
H106   H     0.37070   0.24100   0.25013   0.00000  Uiso   1.00
N107   N     0.50000   0.28402   0.25000   0.00000  Uiso   1.00
N108   N     0.50000   0.04931   0.25000   0.00000  Uiso   1.00
O109   O     0.43988   0.20625   0.25000   0.00000  Uiso   1.00
O110   O     0.56012   0.12709   0.25001   0.00000  Uiso   1.00
O111   O     0.56012   0.20625   0.25001   0.00000  Uiso   1.00
O112   O     0.43988   0.12709   0.25000   0.00000  Uiso   1.00
O113   O     0.49999   0.20627   0.18513   0.00000  Uiso   1.00
O114   O     0.50001   0.12707   0.31487   0.00000  Uiso   1.00
O115   O     0.50001   0.20627   0.31487   0.00000  Uiso   1.00
O116   O     0.49999   0.12707   0.18513   0.00000  Uiso   1.00
C117   C     0.58080   0.17982   0.39002   0.00000  Uiso   1.00
O118   O     0.58848   0.16089   0.35524   0.00000  Uiso   1.00
O119   O     0.60897   0.21163   0.40968   0.00000  Uiso   1.00
H120   H     0.63476   0.21475   0.39272   0.00000  Uiso   1.00
C121   C     0.41920   0.15351   0.10998   0.00000  Uiso   1.00
O122   O     0.41152   0.17244   0.14476   0.00000  Uiso   1.00
O123   O     0.39103   0.12171   0.09031   0.00000  Uiso   1.00
H124   H     0.36523   0.11860   0.10727   0.00000  Uiso   1.00
I125   I     0.43014   0.05811   0.17632   0.00000  Uiso   1.00
I126   I     0.56986   0.27522   0.32368   0.00000  Uiso   1.00
I127   I     0.56931   0.05918   0.32490   0.00000  Uiso   1.00
I128   I     0.43069   0.27416   0.17510   0.00000  Uiso   1.00
C129   C     0.75423   0.16665   0.25032   0.00000  Uiso   1.00
C130   C     0.91243   0.16669   0.24968   0.00000  Uiso   1.00
C131   C     0.75730   0.16679   0.01394   0.00000  Uiso   1.00
C132   C     0.90937   0.16654   0.48606   0.00000  Uiso   1.00
C133   C     0.68794   0.12497   0.25061   0.00000  Uiso   1.00
C134   C     0.97873   0.20837   0.24939   0.00000  Uiso   1.00
C135   C     0.97863   0.12498   0.24999   0.00000  Uiso   1.00
C136   C     0.68804   0.20835   0.25001   0.00000  Uiso   1.00
C137   C     0.95715   0.16669   0.24958   0.00000  Uiso   1.00
C138   C     0.70952   0.16665   0.25042   0.00000  Uiso   1.00
C139   C     0.80662   0.02433   0.22158   0.00000  Uiso   1.00
C140   C     0.86005   0.30901   0.27842   0.00000  Uiso   1.00
C141   C     0.86000   0.02484   0.27853   0.00000  Uiso   1.00
C142   C     0.80667   0.30849   0.22147   0.00000  Uiso   1.00
C143   C     0.83151   0.16648   0.16461   0.00000  Uiso   1.00
C144   C     0.83516   0.16685   0.33539   0.00000  Uiso   1.00
C145   C     0.87435   0.17078   0.41059   0.00000  Uiso   1.00
C146   C     0.79231   0.16255   0.08942   0.00000  Uiso   1.00
C147   C     0.83669   0.16719   0.38384   0.00000  Uiso   1.00
C148   C     0.82997   0.16615   0.11616   0.00000  Uiso   1.00
C149   C     0.79893   0.16517   0.40314   0.00000  Uiso   1.00
C150   C     0.86774   0.16817   0.09686   0.00000  Uiso   1.00
C151   C     0.79737   0.16617   0.44915   0.00000  Uiso   1.00
C152   C     0.86929   0.16716   0.05085   0.00000  Uiso   1.00
C153   C     0.83430   0.16700   0.47664   0.00000  Uiso   1.00
C154   C     0.83237   0.16634   0.02337   0.00000  Uiso   1.00
C155   C     0.87307   0.16846   0.45753   0.00000  Uiso   1.00
C156   C     0.79360   0.16487   0.04247   0.00000  Uiso   1.00
C157   C     0.75922   0.16662   0.46796   0.00000  Uiso   1.00
C158   C     0.90745   0.16671   0.03204   0.00000  Uiso   1.00
Cu159  Cu    0.83333   0.21355   0.25000   0.00000  Uiso   1.00
Cu160  Cu    0.83333   0.11978   0.25000   0.00000  Uiso   1.00
H161   H     0.77047   0.16360   0.38197   0.00000  Uiso   1.00
H162   H     0.89619   0.16973   0.11803   0.00000  Uiso   1.00
H163   H     0.73069   0.16730   0.44702   0.00000  Uiso   1.00
H164   H     0.93598   0.16603   0.05298   0.00000  Uiso   1.00
H165   H     0.72702   0.16933   0.02656   0.00000  Uiso   1.00
H166   H     0.93965   0.16401   0.47344   0.00000  Uiso   1.00
H167   H     0.70386   0.09232   0.25124   0.00000  Uiso   1.00
H168   H     0.96281   0.24102   0.24877   0.00000  Uiso   1.00
H169   H     0.96264   0.09233   0.24987   0.00000  Uiso   1.00
H170   H     0.70403   0.24100   0.25013   0.00000  Uiso   1.00
N171   N     0.83333   0.28402   0.25000   0.00000  Uiso   1.00
N172   N     0.83333   0.04931   0.25000   0.00000  Uiso   1.00
O173   O     0.77321   0.20625   0.25000   0.00000  Uiso   1.00
O174   O     0.89345   0.12709   0.25001   0.00000  Uiso   1.00
O175   O     0.89345   0.20625   0.25001   0.00000  Uiso   1.00
O176   O     0.77321   0.12709   0.25000   0.00000  Uiso   1.00
O177   O     0.83332   0.20627   0.18513   0.00000  Uiso   1.00
O178   O     0.83334   0.12707   0.31487   0.00000  Uiso   1.00
O179   O     0.83334   0.20627   0.31487   0.00000  Uiso   1.00
O180   O     0.83332   0.12707   0.18513   0.00000  Uiso   1.00
C181   C     0.91413   0.17982   0.39002   0.00000  Uiso   1.00
O182   O     0.92182   0.16089   0.35524   0.00000  Uiso   1.00
O183   O     0.94230   0.21163   0.40968   0.00000  Uiso   1.00
H184   H     0.96809   0.21475   0.39272   0.00000  Uiso   1.00
C185   C     0.75253   0.15351   0.10998   0.00000  Uiso   1.00
O186   O     0.74485   0.17244   0.14476   0.00000  Uiso   1.00
O187   O     0.72436   0.12171   0.09031   0.00000  Uiso   1.00
H188   H     0.69857   0.11860   0.10727   0.00000  Uiso   1.00
I189   I     0.76347   0.05811   0.17632   0.00000  Uiso   1.00
I190   I     0.90319   0.27522   0.32368   0.00000  Uiso   1.00
I191   I     0.90265   0.05918   0.32490   0.00000  Uiso   1.00
I192   I     0.76402   0.27416   0.17510   0.00000  Uiso   1.00
C193   C     0.08757   0.49998   0.25032   0.00000  Uiso   1.00
C194   C     0.24577   0.50002   0.24968   0.00000  Uiso   1.00
C195   C     0.09063   0.50012   0.01394   0.00000  Uiso   1.00
C196   C     0.24270   0.49988   0.48606   0.00000  Uiso   1.00
C197   C     0.02127   0.45830   0.25061   0.00000  Uiso   1.00
C198   C     0.31206   0.54170   0.24939   0.00000  Uiso   1.00
C199   C     0.31196   0.45832   0.24999   0.00000  Uiso   1.00
C200   C     0.02137   0.54168   0.25001   0.00000  Uiso   1.00
C201   C     0.29048   0.50002   0.24958   0.00000  Uiso   1.00
C202   C     0.04285   0.49998   0.25042   0.00000  Uiso   1.00
C203   C     0.13996   0.35766   0.22158   0.00000  Uiso   1.00
C204   C     0.19338   0.64234   0.27842   0.00000  Uiso   1.00
C205   C     0.19333   0.35817   0.27853   0.00000  Uiso   1.00
C206   C     0.14000   0.64183   0.22147   0.00000  Uiso   1.00
C207   C     0.16485   0.49981   0.16461   0.00000  Uiso   1.00
C208   C     0.16849   0.50019   0.33539   0.00000  Uiso   1.00
C209   C     0.20769   0.50411   0.41059   0.00000  Uiso   1.00
C210   C     0.12565   0.49589   0.08942   0.00000  Uiso   1.00
C211   C     0.17003   0.50052   0.38384   0.00000  Uiso   1.00
C212   C     0.16331   0.49948   0.11616   0.00000  Uiso   1.00
C213   C     0.13226   0.49850   0.40314   0.00000  Uiso   1.00
C214   C     0.20107   0.50150   0.09686   0.00000  Uiso   1.00
C215   C     0.13071   0.49951   0.44915   0.00000  Uiso   1.00
C216   C     0.20263   0.50049   0.05085   0.00000  Uiso   1.00
C217   C     0.16763   0.50033   0.47664   0.00000  Uiso   1.00
C218   C     0.16570   0.49967   0.02337   0.00000  Uiso   1.00
C219   C     0.20640   0.50180   0.45753   0.00000  Uiso   1.00
C220   C     0.12693   0.49820   0.04247   0.00000  Uiso   1.00
C221   C     0.09256   0.49996   0.46796   0.00000  Uiso   1.00
C222   C     0.24078   0.50004   0.03204   0.00000  Uiso   1.00
Cu223  Cu    0.16667   0.54689   0.25000   0.00000  Uiso   1.00
Cu224  Cu    0.16667   0.45311   0.25000   0.00000  Uiso   1.00
H225   H     0.10381   0.49693   0.38197   0.00000  Uiso   1.00
H226   H     0.22953   0.50307   0.11803   0.00000  Uiso   1.00
H227   H     0.06402   0.50063   0.44702   0.00000  Uiso   1.00
H228   H     0.26931   0.49937   0.05298   0.00000  Uiso   1.00
H229   H     0.06035   0.50266   0.02656   0.00000  Uiso   1.00
H230   H     0.27298   0.49734   0.47344   0.00000  Uiso   1.00
H231   H     0.03719   0.42565   0.25124   0.00000  Uiso   1.00
H232   H     0.29614   0.57435   0.24877   0.00000  Uiso   1.00
H233   H     0.29597   0.42566   0.24987   0.00000  Uiso   1.00
H234   H     0.03736   0.57434   0.25013   0.00000  Uiso   1.00
N235   N     0.16667   0.61736   0.25000   0.00000  Uiso   1.00
N236   N     0.16667   0.38264   0.25000   0.00000  Uiso   1.00
O237   O     0.10655   0.53958   0.25000   0.00000  Uiso   1.00
O238   O     0.22679   0.46042   0.25001   0.00000  Uiso   1.00
O239   O     0.22679   0.53958   0.25001   0.00000  Uiso   1.00
O240   O     0.10655   0.46042   0.25000   0.00000  Uiso   1.00
O241   O     0.16666   0.53960   0.18513   0.00000  Uiso   1.00
O242   O     0.16668   0.46040   0.31487   0.00000  Uiso   1.00
O243   O     0.16668   0.53960   0.31487   0.00000  Uiso   1.00
O244   O     0.16666   0.46040   0.18513   0.00000  Uiso   1.00
C245   C     0.24747   0.51316   0.39002   0.00000  Uiso   1.00
O246   O     0.25515   0.49423   0.35524   0.00000  Uiso   1.00
O247   O     0.27563   0.54496   0.40968   0.00000  Uiso   1.00
H248   H     0.30143   0.54808   0.39272   0.00000  Uiso   1.00
C249   C     0.08587   0.48685   0.10998   0.00000  Uiso   1.00
O250   O     0.07819   0.50577   0.14476   0.00000  Uiso   1.00
O251   O     0.05770   0.45505   0.09031   0.00000  Uiso   1.00
H252   H     0.03190   0.45193   0.10727   0.00000  Uiso   1.00
I253   I     0.09681   0.39145   0.17632   0.00000  Uiso   1.00
I254   I     0.23653   0.60855   0.32368   0.00000  Uiso   1.00
I255   I     0.23598   0.39251   0.32490   0.00000  Uiso   1.00
I256   I     0.09735   0.60749   0.17510   0.00000  Uiso   1.00
C257   C     0.42090   0.49998   0.25032   0.00000  Uiso   1.00
C258   C     0.57910   0.50002   0.24968   0.00000  Uiso   1.00
C259   C     0.42396   0.50012   0.01394   0.00000  Uiso   1.00
C260   C     0.57604   0.49988   0.48606   0.00000  Uiso   1.00
C261   C     0.35461   0.45830   0.25061   0.00000  Uiso   1.00
C262   C     0.64539   0.54170   0.24939   0.00000  Uiso   1.00
C263   C     0.64530   0.45832   0.24999   0.00000  Uiso   1.00
C264   C     0.35470   0.54168   0.25001   0.00000  Uiso   1.00
C265   C     0.62381   0.50002   0.24958   0.00000  Uiso   1.00
C266   C     0.37619   0.49998   0.25042   0.00000  Uiso   1.00
C267   C     0.47329   0.35766   0.22158   0.00000  Uiso   1.00
C268   C     0.52671   0.64234   0.27842   0.00000  Uiso   1.00
C269   C     0.52667   0.35817   0.27853   0.00000  Uiso   1.00
C270   C     0.47333   0.64183   0.22147   0.00000  Uiso   1.00
C271   C     0.49818   0.49981   0.16461   0.00000  Uiso   1.00
C272   C     0.50182   0.50019   0.33539   0.00000  Uiso   1.00
C273   C     0.54102   0.50411   0.41059   0.00000  Uiso   1.00
C274   C     0.45898   0.49589   0.08942   0.00000  Uiso   1.00
C275   C     0.50336   0.50052   0.38384   0.00000  Uiso   1.00
C276   C     0.49664   0.49948   0.11616   0.00000  Uiso   1.00
C277   C     0.46559   0.49850   0.40314   0.00000  Uiso   1.00
C278   C     0.53441   0.50150   0.09686   0.00000  Uiso   1.00
C279   C     0.46404   0.49951   0.44915   0.00000  Uiso   1.00
C280   C     0.53596   0.50049   0.05085   0.00000  Uiso   1.00
C281   C     0.50096   0.50033   0.47664   0.00000  Uiso   1.00
C282   C     0.49904   0.49967   0.02337   0.00000  Uiso   1.00
C283   C     0.53973   0.50180   0.45753   0.00000  Uiso   1.00
C284   C     0.46027   0.49820   0.04247   0.00000  Uiso   1.00
C285   C     0.42589   0.49996   0.46796   0.00000  Uiso   1.00
C286   C     0.57411   0.50004   0.03204   0.00000  Uiso   1.00
Cu287  Cu    0.50000   0.54689   0.25000   0.00000  Uiso   1.00
Cu288  Cu    0.50000   0.45311   0.25000   0.00000  Uiso   1.00
H289   H     0.43714   0.49693   0.38197   0.00000  Uiso   1.00
H290   H     0.56286   0.50307   0.11803   0.00000  Uiso   1.00
H291   H     0.39735   0.50063   0.44702   0.00000  Uiso   1.00
H292   H     0.60265   0.49937   0.05298   0.00000  Uiso   1.00
H293   H     0.39368   0.50266   0.02656   0.00000  Uiso   1.00
H294   H     0.60632   0.49734   0.47344   0.00000  Uiso   1.00
H295   H     0.37053   0.42565   0.25124   0.00000  Uiso   1.00
H296   H     0.62947   0.57435   0.24877   0.00000  Uiso   1.00
H297   H     0.62930   0.42566   0.24987   0.00000  Uiso   1.00
H298   H     0.37070   0.57434   0.25013   0.00000  Uiso   1.00
N299   N     0.50000   0.61736   0.25000   0.00000  Uiso   1.00
N300   N     0.50000   0.38264   0.25000   0.00000  Uiso   1.00
O301   O     0.43988   0.53958   0.25000   0.00000  Uiso   1.00
O302   O     0.56012   0.46042   0.25001   0.00000  Uiso   1.00
O303   O     0.56012   0.53958   0.25001   0.00000  Uiso   1.00
O304   O     0.43988   0.46042   0.25000   0.00000  Uiso   1.00
O305   O     0.49999   0.53960   0.18513   0.00000  Uiso   1.00
O306   O     0.50001   0.46040   0.31487   0.00000  Uiso   1.00
O307   O     0.50001   0.53960   0.31487   0.00000  Uiso   1.00
O308   O     0.49999   0.46040   0.18513   0.00000  Uiso   1.00
C309   C     0.58080   0.51316   0.39002   0.00000  Uiso   1.00
O310   O     0.58848   0.49423   0.35524   0.00000  Uiso   1.00
O311   O     0.60897   0.54496   0.40968   0.00000  Uiso   1.00
H312   H     0.63476   0.54808   0.39272   0.00000  Uiso   1.00
C313   C     0.41920   0.48685   0.10998   0.00000  Uiso   1.00
O314   O     0.41152   0.50577   0.14476   0.00000  Uiso   1.00
O315   O     0.39103   0.45505   0.09031   0.00000  Uiso   1.00
H316   H     0.36523   0.45193   0.10727   0.00000  Uiso   1.00
I317   I     0.43014   0.39145   0.17632   0.00000  Uiso   1.00
I318   I     0.56986   0.60855   0.32368   0.00000  Uiso   1.00
I319   I     0.56931   0.39251   0.32490   0.00000  Uiso   1.00
I320   I     0.43069   0.60749   0.17510   0.00000  Uiso   1.00
C321   C     0.75423   0.49998   0.25032   0.00000  Uiso   1.00
C322   C     0.91243   0.50002   0.24968   0.00000  Uiso   1.00
C323   C     0.75730   0.50012   0.01394   0.00000  Uiso   1.00
C324   C     0.90937   0.49988   0.48606   0.00000  Uiso   1.00
C325   C     0.68794   0.45830   0.25061   0.00000  Uiso   1.00
C326   C     0.97873   0.54170   0.24939   0.00000  Uiso   1.00
C327   C     0.97863   0.45832   0.24999   0.00000  Uiso   1.00
C328   C     0.68804   0.54168   0.25001   0.00000  Uiso   1.00
C329   C     0.95715   0.50002   0.24958   0.00000  Uiso   1.00
C330   C     0.70952   0.49998   0.25042   0.00000  Uiso   1.00
C331   C     0.80662   0.35766   0.22158   0.00000  Uiso   1.00
C332   C     0.86005   0.64234   0.27842   0.00000  Uiso   1.00
C333   C     0.86000   0.35817   0.27853   0.00000  Uiso   1.00
C334   C     0.80667   0.64183   0.22147   0.00000  Uiso   1.00
C335   C     0.83151   0.49981   0.16461   0.00000  Uiso   1.00
C336   C     0.83516   0.50019   0.33539   0.00000  Uiso   1.00
C337   C     0.87435   0.50411   0.41059   0.00000  Uiso   1.00
C338   C     0.79231   0.49589   0.08942   0.00000  Uiso   1.00
C339   C     0.83669   0.50052   0.38384   0.00000  Uiso   1.00
C340   C     0.82997   0.49948   0.11616   0.00000  Uiso   1.00
C341   C     0.79893   0.49850   0.40314   0.00000  Uiso   1.00
C342   C     0.86774   0.50150   0.09686   0.00000  Uiso   1.00
C343   C     0.79737   0.49951   0.44915   0.00000  Uiso   1.00
C344   C     0.86929   0.50049   0.05085   0.00000  Uiso   1.00
C345   C     0.83430   0.50033   0.47664   0.00000  Uiso   1.00
C346   C     0.83237   0.49967   0.02337   0.00000  Uiso   1.00
C347   C     0.87307   0.50180   0.45753   0.00000  Uiso   1.00
C348   C     0.79360   0.49820   0.04247   0.00000  Uiso   1.00
C349   C     0.75922   0.49996   0.46796   0.00000  Uiso   1.00
C350   C     0.90745   0.50004   0.03204   0.00000  Uiso   1.00
Cu351  Cu    0.83333   0.54689   0.25000   0.00000  Uiso   1.00
Cu352  Cu    0.83333   0.45311   0.25000   0.00000  Uiso   1.00
H353   H     0.77047   0.49693   0.38197   0.00000  Uiso   1.00
H354   H     0.89619   0.50307   0.11803   0.00000  Uiso   1.00
H355   H     0.73069   0.50063   0.44702   0.00000  Uiso   1.00
H356   H     0.93598   0.49937   0.05298   0.00000  Uiso   1.00
H357   H     0.72702   0.50266   0.02656   0.00000  Uiso   1.00
H358   H     0.93965   0.49734   0.47344   0.00000  Uiso   1.00
H359   H     0.70386   0.42565   0.25124   0.00000  Uiso   1.00
H360   H     0.96281   0.57435   0.24877   0.00000  Uiso   1.00
H361   H     0.96264   0.42566   0.24987   0.00000  Uiso   1.00
H362   H     0.70403   0.57434   0.25013   0.00000  Uiso   1.00
N363   N     0.83333   0.61736   0.25000   0.00000  Uiso   1.00
N364   N     0.83333   0.38264   0.25000   0.00000  Uiso   1.00
O365   O     0.77321   0.53958   0.25000   0.00000  Uiso   1.00
O366   O     0.89345   0.46042   0.25001   0.00000  Uiso   1.00
O367   O     0.89345   0.53958   0.25001   0.00000  Uiso   1.00
O368   O     0.77321   0.46042   0.25000   0.00000  Uiso   1.00
O369   O     0.83332   0.53960   0.18513   0.00000  Uiso   1.00
O370   O     0.83334   0.46040   0.31487   0.00000  Uiso   1.00
O371   O     0.83334   0.53960   0.31487   0.00000  Uiso   1.00
O372   O     0.83332   0.46040   0.18513   0.00000  Uiso   1.00
C373   C     0.91413   0.51316   0.39002   0.00000  Uiso   1.00
O374   O     0.92182   0.49423   0.35524   0.00000  Uiso   1.00
O375   O     0.94230   0.54496   0.40968   0.00000  Uiso   1.00
H376   H     0.96809   0.54808   0.39272   0.00000  Uiso   1.00
C377   C     0.75253   0.48685   0.10998   0.00000  Uiso   1.00
O378   O     0.74485   0.50577   0.14476   0.00000  Uiso   1.00
O379   O     0.72436   0.45505   0.09031   0.00000  Uiso   1.00
H380   H     0.69857   0.45193   0.10727   0.00000  Uiso   1.00
I381   I     0.76347   0.39145   0.17632   0.00000  Uiso   1.00
I382   I     0.90319   0.60855   0.32368   0.00000  Uiso   1.00
I383   I     0.90265   0.39251   0.32490   0.00000  Uiso   1.00
I384   I     0.76402   0.60749   0.17510   0.00000  Uiso   1.00
C385   C     0.08757   0.83331   0.25032   0.00000  Uiso   1.00
C386   C     0.24577   0.83335   0.24968   0.00000  Uiso   1.00
C387   C     0.09063   0.83346   0.01394   0.00000  Uiso   1.00
C388   C     0.24270   0.83321   0.48606   0.00000  Uiso   1.00
C389   C     0.02127   0.79163   0.25061   0.00000  Uiso   1.00
C390   C     0.31206   0.87503   0.24939   0.00000  Uiso   1.00
C391   C     0.31196   0.79165   0.24999   0.00000  Uiso   1.00
C392   C     0.02137   0.87502   0.25001   0.00000  Uiso   1.00
C393   C     0.29048   0.83335   0.24958   0.00000  Uiso   1.00
C394   C     0.04285   0.83331   0.25042   0.00000  Uiso   1.00
C395   C     0.13996   0.69099   0.22158   0.00000  Uiso   1.00
C396   C     0.19338   0.97567   0.27842   0.00000  Uiso   1.00
C397   C     0.19333   0.69151   0.27853   0.00000  Uiso   1.00
C398   C     0.14000   0.97516   0.22147   0.00000  Uiso   1.00
C399   C     0.16485   0.83315   0.16461   0.00000  Uiso   1.00
C400   C     0.16849   0.83352   0.33539   0.00000  Uiso   1.00
C401   C     0.20769   0.83745   0.41059   0.00000  Uiso   1.00
C402   C     0.12565   0.82922   0.08942   0.00000  Uiso   1.00
C403   C     0.17003   0.83385   0.38384   0.00000  Uiso   1.00
C404   C     0.16331   0.83281   0.11616   0.00000  Uiso   1.00
C405   C     0.13226   0.83183   0.40314   0.00000  Uiso   1.00
C406   C     0.20107   0.83483   0.09686   0.00000  Uiso   1.00
C407   C     0.13071   0.83284   0.44915   0.00000  Uiso   1.00
C408   C     0.20263   0.83383   0.05085   0.00000  Uiso   1.00
C409   C     0.16763   0.83366   0.47664   0.00000  Uiso   1.00
C410   C     0.16570   0.83300   0.02337   0.00000  Uiso   1.00
C411   C     0.20640   0.83513   0.45753   0.00000  Uiso   1.00
C412   C     0.12693   0.83154   0.04247   0.00000  Uiso   1.00
C413   C     0.09256   0.83329   0.46796   0.00000  Uiso   1.00
C414   C     0.24078   0.83338   0.03204   0.00000  Uiso   1.00
Cu415  Cu    0.16667   0.88022   0.25000   0.00000  Uiso   1.00
Cu416  Cu    0.16667   0.78645   0.25000   0.00000  Uiso   1.00
H417   H     0.10381   0.83027   0.38197   0.00000  Uiso   1.00
H418   H     0.22953   0.83640   0.11803   0.00000  Uiso   1.00
H419   H     0.06402   0.83397   0.44702   0.00000  Uiso   1.00
H420   H     0.26931   0.83270   0.05298   0.00000  Uiso   1.00
H421   H     0.06035   0.83600   0.02656   0.00000  Uiso   1.00
H422   H     0.27298   0.83067   0.47344   0.00000  Uiso   1.00
H423   H     0.03719   0.75898   0.25124   0.00000  Uiso   1.00
H424   H     0.29614   0.90768   0.24877   0.00000  Uiso   1.00
H425   H     0.29597   0.75900   0.24987   0.00000  Uiso   1.00
H426   H     0.03736   0.90767   0.25013   0.00000  Uiso   1.00
N427   N     0.16667   0.95069   0.25000   0.00000  Uiso   1.00
N428   N     0.16667   0.71598   0.25000   0.00000  Uiso   1.00
O429   O     0.10655   0.87291   0.25000   0.00000  Uiso   1.00
O430   O     0.22679   0.79375   0.25001   0.00000  Uiso   1.00
O431   O     0.22679   0.87291   0.25001   0.00000  Uiso   1.00
O432   O     0.10655   0.79375   0.25000   0.00000  Uiso   1.00
O433   O     0.16666   0.87293   0.18513   0.00000  Uiso   1.00
O434   O     0.16668   0.79373   0.31487   0.00000  Uiso   1.00
O435   O     0.16668   0.87293   0.31487   0.00000  Uiso   1.00
O436   O     0.16666   0.79373   0.18513   0.00000  Uiso   1.00
C437   C     0.24747   0.84649   0.39002   0.00000  Uiso   1.00
O438   O     0.25515   0.82756   0.35524   0.00000  Uiso   1.00
O439   O     0.27563   0.87829   0.40968   0.00000  Uiso   1.00
H440   H     0.30143   0.88142   0.39272   0.00000  Uiso   1.00
C441   C     0.08587   0.82018   0.10998   0.00000  Uiso   1.00
O442   O     0.07819   0.83911   0.14476   0.00000  Uiso   1.00
O443   O     0.05770   0.78838   0.09031   0.00000  Uiso   1.00
H444   H     0.03190   0.78527   0.10727   0.00000  Uiso   1.00
I445   I     0.09681   0.72478   0.17632   0.00000  Uiso   1.00
I446   I     0.23653   0.94189   0.32368   0.00000  Uiso   1.00
I447   I     0.23598   0.72584   0.32490   0.00000  Uiso   1.00
I448   I     0.09735   0.94082   0.17510   0.00000  Uiso   1.00
C449   C     0.42090   0.83331   0.25032   0.00000  Uiso   1.00
C450   C     0.57910   0.83335   0.24968   0.00000  Uiso   1.00
C451   C     0.42396   0.83346   0.01394   0.00000  Uiso   1.00
C452   C     0.57604   0.83321   0.48606   0.00000  Uiso   1.00
C453   C     0.35461   0.79163   0.25061   0.00000  Uiso   1.00
C454   C     0.64539   0.87503   0.24939   0.00000  Uiso   1.00
C455   C     0.64530   0.79165   0.24999   0.00000  Uiso   1.00
C456   C     0.35470   0.87502   0.25001   0.00000  Uiso   1.00
C457   C     0.62381   0.83335   0.24958   0.00000  Uiso   1.00
C458   C     0.37619   0.83331   0.25042   0.00000  Uiso   1.00
C459   C     0.47329   0.69099   0.22158   0.00000  Uiso   1.00
C460   C     0.52671   0.97567   0.27842   0.00000  Uiso   1.00
C461   C     0.52667   0.69151   0.27853   0.00000  Uiso   1.00
C462   C     0.47333   0.97516   0.22147   0.00000  Uiso   1.00
C463   C     0.49818   0.83315   0.16461   0.00000  Uiso   1.00
C464   C     0.50182   0.83352   0.33539   0.00000  Uiso   1.00
C465   C     0.54102   0.83745   0.41059   0.00000  Uiso   1.00
C466   C     0.45898   0.82922   0.08942   0.00000  Uiso   1.00
C467   C     0.50336   0.83385   0.38384   0.00000  Uiso   1.00
C468   C     0.49664   0.83281   0.11616   0.00000  Uiso   1.00
C469   C     0.46559   0.83183   0.40314   0.00000  Uiso   1.00
C470   C     0.53441   0.83483   0.09686   0.00000  Uiso   1.00
C471   C     0.46404   0.83284   0.44915   0.00000  Uiso   1.00
C472   C     0.53596   0.83383   0.05085   0.00000  Uiso   1.00
C473   C     0.50096   0.83366   0.47664   0.00000  Uiso   1.00
C474   C     0.49904   0.83300   0.02337   0.00000  Uiso   1.00
C475   C     0.53973   0.83513   0.45753   0.00000  Uiso   1.00
C476   C     0.46027   0.83154   0.04247   0.00000  Uiso   1.00
C477   C     0.42589   0.83329   0.46796   0.00000  Uiso   1.00
C478   C     0.57411   0.83338   0.03204   0.00000  Uiso   1.00
Cu479  Cu    0.50000   0.88022   0.25000   0.00000  Uiso   1.00
Cu480  Cu    0.50000   0.78645   0.25000   0.00000  Uiso   1.00
H481   H     0.43714   0.83027   0.38197   0.00000  Uiso   1.00
H482   H     0.56286   0.83640   0.11803   0.00000  Uiso   1.00
H483   H     0.39735   0.83397   0.44702   0.00000  Uiso   1.00
H484   H     0.60265   0.83270   0.05298   0.00000  Uiso   1.00
H485   H     0.39368   0.83600   0.02656   0.00000  Uiso   1.00
H486   H     0.60632   0.83067   0.47344   0.00000  Uiso   1.00
H487   H     0.37053   0.75898   0.25124   0.00000  Uiso   1.00
H488   H     0.62947   0.90768   0.24877   0.00000  Uiso   1.00
H489   H     0.62930   0.75900   0.24987   0.00000  Uiso   1.00
H490   H     0.37070   0.90767   0.25013   0.00000  Uiso   1.00
N491   N     0.50000   0.95069   0.25000   0.00000  Uiso   1.00
N492   N     0.50000   0.71598   0.25000   0.00000  Uiso   1.00
O493   O     0.43988   0.87291   0.25000   0.00000  Uiso   1.00
O494   O     0.56012   0.79375   0.25001   0.00000  Uiso   1.00
O495   O     0.56012   0.87291   0.25001   0.00000  Uiso   1.00
O496   O     0.43988   0.79375   0.25000   0.00000  Uiso   1.00
O497   O     0.49999   0.87293   0.18513   0.00000  Uiso   1.00
O498   O     0.50001   0.79373   0.31487   0.00000  Uiso   1.00
O499   O     0.50001   0.87293   0.31487   0.00000  Uiso   1.00
O500   O     0.49999   0.79373   0.18513   0.00000  Uiso   1.00
C501   C     0.58080   0.84649   0.39002   0.00000  Uiso   1.00
O502   O     0.58848   0.82756   0.35524   0.00000  Uiso   1.00
O503   O     0.60897   0.87829   0.40968   0.00000  Uiso   1.00
H504   H     0.63476   0.88142   0.39272   0.00000  Uiso   1.00
C505   C     0.41920   0.82018   0.10998   0.00000  Uiso   1.00
O506   O     0.41152   0.83911   0.14476   0.00000  Uiso   1.00
O507   O     0.39103   0.78838   0.09031   0.00000  Uiso   1.00
H508   H     0.36523   0.78527   0.10727   0.00000  Uiso   1.00
I509   I     0.43014   0.72478   0.17632   0.00000  Uiso   1.00
I510   I     0.56986   0.94189   0.32368   0.00000  Uiso   1.00
I511   I     0.56931   0.72584   0.32490   0.00000  Uiso   1.00
I512   I     0.43069   0.94082   0.17510   0.00000  Uiso   1.00
C513   C     0.75423   0.83331   0.25032   0.00000  Uiso   1.00
C514   C     0.91243   0.83335   0.24968   0.00000  Uiso   1.00
C515   C     0.75730   0.83346   0.01394   0.00000  Uiso   1.00
C516   C     0.90937   0.83321   0.48606   0.00000  Uiso   1.00
C517   C     0.68794   0.79163   0.25061   0.00000  Uiso   1.00
C518   C     0.97873   0.87503   0.24939   0.00000  Uiso   1.00
C519   C     0.97863   0.79165   0.24999   0.00000  Uiso   1.00
C520   C     0.68804   0.87502   0.25001   0.00000  Uiso   1.00
C521   C     0.95715   0.83335   0.24958   0.00000  Uiso   1.00
C522   C     0.70952   0.83331   0.25042   0.00000  Uiso   1.00
C523   C     0.80662   0.69099   0.22158   0.00000  Uiso   1.00
C524   C     0.86005   0.97567   0.27842   0.00000  Uiso   1.00
C525   C     0.86000   0.69151   0.27853   0.00000  Uiso   1.00
C526   C     0.80667   0.97516   0.22147   0.00000  Uiso   1.00
C527   C     0.83151   0.83315   0.16461   0.00000  Uiso   1.00
C528   C     0.83516   0.83352   0.33539   0.00000  Uiso   1.00
C529   C     0.87435   0.83745   0.41059   0.00000  Uiso   1.00
C530   C     0.79231   0.82922   0.08942   0.00000  Uiso   1.00
C531   C     0.83669   0.83385   0.38384   0.00000  Uiso   1.00
C532   C     0.82997   0.83281   0.11616   0.00000  Uiso   1.00
C533   C     0.79893   0.83183   0.40314   0.00000  Uiso   1.00
C534   C     0.86774   0.83483   0.09686   0.00000  Uiso   1.00
C535   C     0.79737   0.83284   0.44915   0.00000  Uiso   1.00
C536   C     0.86929   0.83383   0.05085   0.00000  Uiso   1.00
C537   C     0.83430   0.83366   0.47664   0.00000  Uiso   1.00
C538   C     0.83237   0.83300   0.02337   0.00000  Uiso   1.00
C539   C     0.87307   0.83513   0.45753   0.00000  Uiso   1.00
C540   C     0.79360   0.83154   0.04247   0.00000  Uiso   1.00
C541   C     0.75922   0.83329   0.46796   0.00000  Uiso   1.00
C542   C     0.90745   0.83338   0.03204   0.00000  Uiso   1.00
Cu543  Cu    0.83333   0.88022   0.25000   0.00000  Uiso   1.00
Cu544  Cu    0.83333   0.78645   0.25000   0.00000  Uiso   1.00
H545   H     0.77047   0.83027   0.38197   0.00000  Uiso   1.00
H546   H     0.89619   0.83640   0.11803   0.00000  Uiso   1.00
H547   H     0.73069   0.83397   0.44702   0.00000  Uiso   1.00
H548   H     0.93598   0.83270   0.05298   0.00000  Uiso   1.00
H549   H     0.72702   0.83600   0.02656   0.00000  Uiso   1.00
H550   H     0.93965   0.83067   0.47344   0.00000  Uiso   1.00
H551   H     0.70386   0.75898   0.25124   0.00000  Uiso   1.00
H552   H     0.96281   0.90768   0.24877   0.00000  Uiso   1.00
H553   H     0.96264   0.75900   0.24987   0.00000  Uiso   1.00
H554   H     0.70403   0.90767   0.25013   0.00000  Uiso   1.00
N555   N     0.83333   0.95069   0.25000   0.00000  Uiso   1.00
N556   N     0.83333   0.71598   0.25000   0.00000  Uiso   1.00
O557   O     0.77321   0.87291   0.25000   0.00000  Uiso   1.00
O558   O     0.89345   0.79375   0.25001   0.00000  Uiso   1.00
O559   O     0.89345   0.87291   0.25001   0.00000  Uiso   1.00
O560   O     0.77321   0.79375   0.25000   0.00000  Uiso   1.00
O561   O     0.83332   0.87293   0.18513   0.00000  Uiso   1.00
O562   O     0.83334   0.79373   0.31487   0.00000  Uiso   1.00
O563   O     0.83334   0.87293   0.31487   0.00000  Uiso   1.00
O564   O     0.83332   0.79373   0.18513   0.00000  Uiso   1.00
C565   C     0.91413   0.84649   0.39002   0.00000  Uiso   1.00
O566   O     0.92182   0.82756   0.35524   0.00000  Uiso   1.00
O567   O     0.94230   0.87829   0.40968   0.00000  Uiso   1.00
H568   H     0.96809   0.88142   0.39272   0.00000  Uiso   1.00
C569   C     0.75253   0.82018   0.10998   0.00000  Uiso   1.00
O570   O     0.74485   0.83911   0.14476   0.00000  Uiso   1.00
O571   O     0.72436   0.78838   0.09031   0.00000  Uiso   1.00
H572   H     0.69857   0.78527   0.10727   0.00000  Uiso   1.00
I573   I     0.76347   0.72478   0.17632   0.00000  Uiso   1.00
I574   I     0.90319   0.94189   0.32368   0.00000  Uiso   1.00
I575   I     0.90265   0.72584   0.32490   0.00000  Uiso   1.00
I576   I     0.76402   0.94082   0.17510   0.00000  Uiso   1.00
C577   C     0.08757   0.16665   0.75032   0.00000  Uiso   1.00
C578   C     0.24577   0.16669   0.74968   0.00000  Uiso   1.00
C579   C     0.09063   0.16679   0.51394   0.00000  Uiso   1.00
C580   C     0.24270   0.16654   0.98606   0.00000  Uiso   1.00
C581   C     0.02127   0.12497   0.75061   0.00000  Uiso   1.00
C582   C     0.31206   0.20837   0.74939   0.00000  Uiso   1.00
C583   C     0.31196   0.12498   0.74999   0.00000  Uiso   1.00
C584   C     0.02137   0.20835   0.75001   0.00000  Uiso   1.00
C585   C     0.29048   0.16669   0.74958   0.00000  Uiso   1.00
C586   C     0.04285   0.16665   0.75042   0.00000  Uiso   1.00
C587   C     0.13996   0.02433   0.72158   0.00000  Uiso   1.00
C588   C     0.19338   0.30901   0.77842   0.00000  Uiso   1.00
C589   C     0.19333   0.02484   0.77853   0.00000  Uiso   1.00
C590   C     0.14000   0.30849   0.72147   0.00000  Uiso   1.00
C591   C     0.16485   0.16648   0.66461   0.00000  Uiso   1.00
C592   C     0.16849   0.16685   0.83539   0.00000  Uiso   1.00
C593   C     0.20769   0.17078   0.91059   0.00000  Uiso   1.00
C594   C     0.12565   0.16255   0.58942   0.00000  Uiso   1.00
C595   C     0.17003   0.16719   0.88384   0.00000  Uiso   1.00
C596   C     0.16331   0.16615   0.61616   0.00000  Uiso   1.00
C597   C     0.13226   0.16517   0.90314   0.00000  Uiso   1.00
C598   C     0.20107   0.16817   0.59686   0.00000  Uiso   1.00
C599   C     0.13071   0.16617   0.94915   0.00000  Uiso   1.00
C600   C     0.20263   0.16716   0.55085   0.00000  Uiso   1.00
C601   C     0.16763   0.16700   0.97664   0.00000  Uiso   1.00
C602   C     0.16570   0.16634   0.52337   0.00000  Uiso   1.00
C603   C     0.20640   0.16846   0.95753   0.00000  Uiso   1.00
C604   C     0.12693   0.16487   0.54247   0.00000  Uiso   1.00
C605   C     0.09256   0.16662   0.96796   0.00000  Uiso   1.00
C606   C     0.24078   0.16671   0.53204   0.00000  Uiso   1.00
Cu607  Cu    0.16667   0.21355   0.75000   0.00000  Uiso   1.00
Cu608  Cu    0.16667   0.11978   0.75000   0.00000  Uiso   1.00
H609   H     0.10381   0.16360   0.88197   0.00000  Uiso   1.00
H610   H     0.22953   0.16973   0.61803   0.00000  Uiso   1.00
H611   H     0.06402   0.16730   0.94702   0.00000  Uiso   1.00
H612   H     0.26931   0.16603   0.55298   0.00000  Uiso   1.00
H613   H     0.06035   0.16933   0.52656   0.00000  Uiso   1.00
H614   H     0.27298   0.16401   0.97344   0.00000  Uiso   1.00
H615   H     0.03719   0.09232   0.75124   0.00000  Uiso   1.00
H616   H     0.29614   0.24102   0.74877   0.00000  Uiso   1.00
H617   H     0.29597   0.09233   0.74987   0.00000  Uiso   1.00
H618   H     0.03736   0.24100   0.75013   0.00000  Uiso   1.00
N619   N     0.16667   0.28402   0.75000   0.00000  Uiso   1.00
N620   N     0.16667   0.04931   0.75000   0.00000  Uiso   1.00
O621   O     0.10655   0.20625   0.75000   0.00000  Uiso   1.00
O622   O     0.22679   0.12709   0.75001   0.00000  Uiso   1.00
O623   O     0.22679   0.20625   0.75001   0.00000  Uiso   1.00
O624   O     0.10655   0.12709   0.75000   0.00000  Uiso   1.00
O625   O     0.16666   0.20627   0.68513   0.00000  Uiso   1.00
O626   O     0.16668   0.12707   0.81487   0.00000  Uiso   1.00
O627   O     0.16668   0.20627   0.81487   0.00000  Uiso   1.00
O628   O     0.16666   0.12707   0.68513   0.00000  Uiso   1.00
C629   C     0.24747   0.17982   0.89002   0.00000  Uiso   1.00
O630   O     0.25515   0.16089   0.85524   0.00000  Uiso   1.00
O631   O     0.27563   0.21163   0.90968   0.00000  Uiso   1.00
H632   H     0.30143   0.21475   0.89272   0.00000  Uiso   1.00
C633   C     0.08587   0.15351   0.60998   0.00000  Uiso   1.00
O634   O     0.07819   0.17244   0.64476   0.00000  Uiso   1.00
O635   O     0.05770   0.12171   0.59031   0.00000  Uiso   1.00
H636   H     0.03190   0.11860   0.60727   0.00000  Uiso   1.00
I637   I     0.09681   0.05811   0.67632   0.00000  Uiso   1.00
I638   I     0.23653   0.27522   0.82368   0.00000  Uiso   1.00
I639   I     0.23598   0.05918   0.82490   0.00000  Uiso   1.00
I640   I     0.09735   0.27416   0.67510   0.00000  Uiso   1.00
C641   C     0.42090   0.16665   0.75032   0.00000  Uiso   1.00
C642   C     0.57910   0.16669   0.74968   0.00000  Uiso   1.00
C643   C     0.42396   0.16679   0.51394   0.00000  Uiso   1.00
C644   C     0.57604   0.16654   0.98606   0.00000  Uiso   1.00
C645   C     0.35461   0.12497   0.75061   0.00000  Uiso   1.00
C646   C     0.64539   0.20837   0.74939   0.00000  Uiso   1.00
C647   C     0.64530   0.12498   0.74999   0.00000  Uiso   1.00
C648   C     0.35470   0.20835   0.75001   0.00000  Uiso   1.00
C649   C     0.62381   0.16669   0.74958   0.00000  Uiso   1.00
C650   C     0.37619   0.16665   0.75042   0.00000  Uiso   1.00
C651   C     0.47329   0.02433   0.72158   0.00000  Uiso   1.00
C652   C     0.52671   0.30901   0.77842   0.00000  Uiso   1.00
C653   C     0.52667   0.02484   0.77853   0.00000  Uiso   1.00
C654   C     0.47333   0.30849   0.72147   0.00000  Uiso   1.00
C655   C     0.49818   0.16648   0.66461   0.00000  Uiso   1.00
C656   C     0.50182   0.16685   0.83539   0.00000  Uiso   1.00
C657   C     0.54102   0.17078   0.91059   0.00000  Uiso   1.00
C658   C     0.45898   0.16255   0.58942   0.00000  Uiso   1.00
C659   C     0.50336   0.16719   0.88384   0.00000  Uiso   1.00
C660   C     0.49664   0.16615   0.61616   0.00000  Uiso   1.00
C661   C     0.46559   0.16517   0.90314   0.00000  Uiso   1.00
C662   C     0.53441   0.16817   0.59686   0.00000  Uiso   1.00
C663   C     0.46404   0.16617   0.94915   0.00000  Uiso   1.00
C664   C     0.53596   0.16716   0.55085   0.00000  Uiso   1.00
C665   C     0.50096   0.16700   0.97664   0.00000  Uiso   1.00
C666   C     0.49904   0.16634   0.52337   0.00000  Uiso   1.00
C667   C     0.53973   0.16846   0.95753   0.00000  Uiso   1.00
C668   C     0.46027   0.16487   0.54247   0.00000  Uiso   1.00
C669   C     0.42589   0.16662   0.96796   0.00000  Uiso   1.00
C670   C     0.57411   0.16671   0.53204   0.00000  Uiso   1.00
Cu671  Cu    0.50000   0.21355   0.75000   0.00000  Uiso   1.00
Cu672  Cu    0.50000   0.11978   0.75000   0.00000  Uiso   1.00
H673   H     0.43714   0.16360   0.88197   0.00000  Uiso   1.00
H674   H     0.56286   0.16973   0.61803   0.00000  Uiso   1.00
H675   H     0.39735   0.16730   0.94702   0.00000  Uiso   1.00
H676   H     0.60265   0.16603   0.55298   0.00000  Uiso   1.00
H677   H     0.39368   0.16933   0.52656   0.00000  Uiso   1.00
H678   H     0.60632   0.16401   0.97344   0.00000  Uiso   1.00
H679   H     0.37053   0.09232   0.75124   0.00000  Uiso   1.00
H680   H     0.62947   0.24102   0.74877   0.00000  Uiso   1.00
H681   H     0.62930   0.09233   0.74987   0.00000  Uiso   1.00
H682   H     0.37070   0.24100   0.75013   0.00000  Uiso   1.00
N683   N     0.50000   0.28402   0.75000   0.00000  Uiso   1.00
N684   N     0.50000   0.04931   0.75000   0.00000  Uiso   1.00
O685   O     0.43988   0.20625   0.75000   0.00000  Uiso   1.00
O686   O     0.56012   0.12709   0.75001   0.00000  Uiso   1.00
O687   O     0.56012   0.20625   0.75001   0.00000  Uiso   1.00
O688   O     0.43988   0.12709   0.75000   0.00000  Uiso   1.00
O689   O     0.49999   0.20627   0.68513   0.00000  Uiso   1.00
O690   O     0.50001   0.12707   0.81487   0.00000  Uiso   1.00
O691   O     0.50001   0.20627   0.81487   0.00000  Uiso   1.00
O692   O     0.49999   0.12707   0.68513   0.00000  Uiso   1.00
C693   C     0.58080   0.17982   0.89002   0.00000  Uiso   1.00
O694   O     0.58848   0.16089   0.85524   0.00000  Uiso   1.00
O695   O     0.60897   0.21163   0.90968   0.00000  Uiso   1.00
H696   H     0.63476   0.21475   0.89272   0.00000  Uiso   1.00
C697   C     0.41920   0.15351   0.60998   0.00000  Uiso   1.00
O698   O     0.41152   0.17244   0.64476   0.00000  Uiso   1.00
O699   O     0.39103   0.12171   0.59031   0.00000  Uiso   1.00
H700   H     0.36523   0.11860   0.60727   0.00000  Uiso   1.00
I701   I     0.43014   0.05811   0.67632   0.00000  Uiso   1.00
I702   I     0.56986   0.27522   0.82368   0.00000  Uiso   1.00
I703   I     0.56931   0.05918   0.82490   0.00000  Uiso   1.00
I704   I     0.43069   0.27416   0.67510   0.00000  Uiso   1.00
C705   C     0.75423   0.16665   0.75032   0.00000  Uiso   1.00
C706   C     0.91243   0.16669   0.74968   0.00000  Uiso   1.00
C707   C     0.75730   0.16679   0.51394   0.00000  Uiso   1.00
C708   C     0.90937   0.16654   0.98606   0.00000  Uiso   1.00
C709   C     0.68794   0.12497   0.75061   0.00000  Uiso   1.00
C710   C     0.97873   0.20837   0.74939   0.00000  Uiso   1.00
C711   C     0.97863   0.12498   0.74999   0.00000  Uiso   1.00
C712   C     0.68804   0.20835   0.75001   0.00000  Uiso   1.00
C713   C     0.95715   0.16669   0.74958   0.00000  Uiso   1.00
C714   C     0.70952   0.16665   0.75042   0.00000  Uiso   1.00
C715   C     0.80662   0.02433   0.72158   0.00000  Uiso   1.00
C716   C     0.86005   0.30901   0.77842   0.00000  Uiso   1.00
C717   C     0.86000   0.02484   0.77853   0.00000  Uiso   1.00
C718   C     0.80667   0.30849   0.72147   0.00000  Uiso   1.00
C719   C     0.83151   0.16648   0.66461   0.00000  Uiso   1.00
C720   C     0.83516   0.16685   0.83539   0.00000  Uiso   1.00
C721   C     0.87435   0.17078   0.91059   0.00000  Uiso   1.00
C722   C     0.79231   0.16255   0.58942   0.00000  Uiso   1.00
C723   C     0.83669   0.16719   0.88384   0.00000  Uiso   1.00
C724   C     0.82997   0.16615   0.61616   0.00000  Uiso   1.00
C725   C     0.79893   0.16517   0.90314   0.00000  Uiso   1.00
C726   C     0.86774   0.16817   0.59686   0.00000  Uiso   1.00
C727   C     0.79737   0.16617   0.94915   0.00000  Uiso   1.00
C728   C     0.86929   0.16716   0.55085   0.00000  Uiso   1.00
C729   C     0.83430   0.16700   0.97664   0.00000  Uiso   1.00
C730   C     0.83237   0.16634   0.52337   0.00000  Uiso   1.00
C731   C     0.87307   0.16846   0.95753   0.00000  Uiso   1.00
C732   C     0.79360   0.16487   0.54247   0.00000  Uiso   1.00
C733   C     0.75922   0.16662   0.96796   0.00000  Uiso   1.00
C734   C     0.90745   0.16671   0.53204   0.00000  Uiso   1.00
Cu735  Cu    0.83333   0.21355   0.75000   0.00000  Uiso   1.00
Cu736  Cu    0.83333   0.11978   0.75000   0.00000  Uiso   1.00
H737   H     0.77047   0.16360   0.88197   0.00000  Uiso   1.00
H738   H     0.89619   0.16973   0.61803   0.00000  Uiso   1.00
H739   H     0.73069   0.16730   0.94702   0.00000  Uiso   1.00
H740   H     0.93598   0.16603   0.55298   0.00000  Uiso   1.00
H741   H     0.72702   0.16933   0.52656   0.00000  Uiso   1.00
H742   H     0.93965   0.16401   0.97344   0.00000  Uiso   1.00
H743   H     0.70386   0.09232   0.75124   0.00000  Uiso   1.00
H744   H     0.96281   0.24102   0.74877   0.00000  Uiso   1.00
H745   H     0.96264   0.09233   0.74987   0.00000  Uiso   1.00
H746   H     0.70403   0.24100   0.75013   0.00000  Uiso   1.00
N747   N     0.83333   0.28402   0.75000   0.00000  Uiso   1.00
N748   N     0.83333   0.04931   0.75000   0.00000  Uiso   1.00
O749   O     0.77321   0.20625   0.75000   0.00000  Uiso   1.00
O750   O     0.89345   0.12709   0.75001   0.00000  Uiso   1.00
O751   O     0.89345   0.20625   0.75001   0.00000  Uiso   1.00
O752   O     0.77321   0.12709   0.75000   0.00000  Uiso   1.00
O753   O     0.83332   0.20627   0.68513   0.00000  Uiso   1.00
O754   O     0.83334   0.12707   0.81487   0.00000  Uiso   1.00
O755   O     0.83334   0.20627   0.81487   0.00000  Uiso   1.00
O756   O     0.83332   0.12707   0.68513   0.00000  Uiso   1.00
C757   C     0.91413   0.17982   0.89002   0.00000  Uiso   1.00
O758   O     0.92182   0.16089   0.85524   0.00000  Uiso   1.00
O759   O     0.94230   0.21163   0.90968   0.00000  Uiso   1.00
H760   H     0.96809   0.21475   0.89272   0.00000  Uiso   1.00
C761   C     0.75253   0.15351   0.60998   0.00000  Uiso   1.00
O762   O     0.74485   0.17244   0.64476   0.00000  Uiso   1.00
O763   O     0.72436   0.12171   0.59031   0.00000  Uiso   1.00
H764   H     0.69857   0.11860   0.60727   0.00000  Uiso   1.00
I765   I     0.76347   0.05811   0.67632   0.00000  Uiso   1.00
I766   I     0.90319   0.27522   0.82368   0.00000  Uiso   1.00
I767   I     0.90265   0.05918   0.82490   0.00000  Uiso   1.00
I768   I     0.76402   0.27416   0.67510   0.00000  Uiso   1.00
C769   C     0.08757   0.49998   0.75032   0.00000  Uiso   1.00
C770   C     0.24577   0.50002   0.74968   0.00000  Uiso   1.00
C771   C     0.09063   0.50012   0.51394   0.00000  Uiso   1.00
C772   C     0.24270   0.49988   0.98606   0.00000  Uiso   1.00
C773   C     0.02127   0.45830   0.75061   0.00000  Uiso   1.00
C774   C     0.31206   0.54170   0.74939   0.00000  Uiso   1.00
C775   C     0.31196   0.45832   0.74999   0.00000  Uiso   1.00
C776   C     0.02137   0.54168   0.75001   0.00000  Uiso   1.00
C777   C     0.29048   0.50002   0.74958   0.00000  Uiso   1.00
C778   C     0.04285   0.49998   0.75042   0.00000  Uiso   1.00
C779   C     0.13996   0.35766   0.72158   0.00000  Uiso   1.00
C780   C     0.19338   0.64234   0.77842   0.00000  Uiso   1.00
C781   C     0.19333   0.35817   0.77853   0.00000  Uiso   1.00
C782   C     0.14000   0.64183   0.72147   0.00000  Uiso   1.00
C783   C     0.16485   0.49981   0.66461   0.00000  Uiso   1.00
C784   C     0.16849   0.50019   0.83539   0.00000  Uiso   1.00
C785   C     0.20769   0.50411   0.91059   0.00000  Uiso   1.00
C786   C     0.12565   0.49589   0.58942   0.00000  Uiso   1.00
C787   C     0.17003   0.50052   0.88384   0.00000  Uiso   1.00
C788   C     0.16331   0.49948   0.61616   0.00000  Uiso   1.00
C789   C     0.13226   0.49850   0.90314   0.00000  Uiso   1.00
C790   C     0.20107   0.50150   0.59686   0.00000  Uiso   1.00
C791   C     0.13071   0.49951   0.94915   0.00000  Uiso   1.00
C792   C     0.20263   0.50049   0.55085   0.00000  Uiso   1.00
C793   C     0.16763   0.50033   0.97664   0.00000  Uiso   1.00
C794   C     0.16570   0.49967   0.52337   0.00000  Uiso   1.00
C795   C     0.20640   0.50180   0.95753   0.00000  Uiso   1.00
C796   C     0.12693   0.49820   0.54247   0.00000  Uiso   1.00
C797   C     0.09256   0.49996   0.96796   0.00000  Uiso   1.00
C798   C     0.24078   0.50004   0.53204   0.00000  Uiso   1.00
Cu799  Cu    0.16667   0.54689   0.75000   0.00000  Uiso   1.00
Cu800  Cu    0.16667   0.45311   0.75000   0.00000  Uiso   1.00
H801   H     0.10381   0.49693   0.88197   0.00000  Uiso   1.00
H802   H     0.22953   0.50307   0.61803   0.00000  Uiso   1.00
H803   H     0.06402   0.50063   0.94702   0.00000  Uiso   1.00
H804   H     0.26931   0.49937   0.55298   0.00000  Uiso   1.00
H805   H     0.06035   0.50266   0.52656   0.00000  Uiso   1.00
H806   H     0.27298   0.49734   0.97344   0.00000  Uiso   1.00
H807   H     0.03719   0.42565   0.75124   0.00000  Uiso   1.00
H808   H     0.29614   0.57435   0.74877   0.00000  Uiso   1.00
H809   H     0.29597   0.42566   0.74987   0.00000  Uiso   1.00
H810   H     0.03736   0.57434   0.75013   0.00000  Uiso   1.00
N811   N     0.16667   0.61736   0.75000   0.00000  Uiso   1.00
N812   N     0.16667   0.38264   0.75000   0.00000  Uiso   1.00
O813   O     0.10655   0.53958   0.75000   0.00000  Uiso   1.00
O814   O     0.22679   0.46042   0.75001   0.00000  Uiso   1.00
O815   O     0.22679   0.53958   0.75001   0.00000  Uiso   1.00
O816   O     0.10655   0.46042   0.75000   0.00000  Uiso   1.00
O817   O     0.16666   0.53960   0.68513   0.00000  Uiso   1.00
O818   O     0.16668   0.46040   0.81487   0.00000  Uiso   1.00
O819   O     0.16668   0.53960   0.81487   0.00000  Uiso   1.00
O820   O     0.16666   0.46040   0.68513   0.00000  Uiso   1.00
C821   C     0.24747   0.51316   0.89002   0.00000  Uiso   1.00
O822   O     0.25515   0.49423   0.85524   0.00000  Uiso   1.00
O823   O     0.27563   0.54496   0.90968   0.00000  Uiso   1.00
H824   H     0.30143   0.54808   0.89272   0.00000  Uiso   1.00
C825   C     0.08587   0.48685   0.60998   0.00000  Uiso   1.00
O826   O     0.07819   0.50577   0.64476   0.00000  Uiso   1.00
O827   O     0.05770   0.45505   0.59031   0.00000  Uiso   1.00
H828   H     0.03190   0.45193   0.60727   0.00000  Uiso   1.00
I829   I     0.09681   0.39145   0.67632   0.00000  Uiso   1.00
I830   I     0.23653   0.60855   0.82368   0.00000  Uiso   1.00
I831   I     0.23598   0.39251   0.82490   0.00000  Uiso   1.00
I832   I     0.09735   0.60749   0.67510   0.00000  Uiso   1.00
C833   C     0.42090   0.49998   0.75032   0.00000  Uiso   1.00
C834   C     0.57910   0.50002   0.74968   0.00000  Uiso   1.00
C835   C     0.42396   0.50012   0.51394   0.00000  Uiso   1.00
C836   C     0.57604   0.49988   0.98606   0.00000  Uiso   1.00
C837   C     0.35461   0.45830   0.75061   0.00000  Uiso   1.00
C838   C     0.64539   0.54170   0.74939   0.00000  Uiso   1.00
C839   C     0.64530   0.45832   0.74999   0.00000  Uiso   1.00
C840   C     0.35470   0.54168   0.75001   0.00000  Uiso   1.00
C841   C     0.62381   0.50002   0.74958   0.00000  Uiso   1.00
C842   C     0.37619   0.49998   0.75042   0.00000  Uiso   1.00
C843   C     0.47329   0.35766   0.72158   0.00000  Uiso   1.00
C844   C     0.52671   0.64234   0.77842   0.00000  Uiso   1.00
C845   C     0.52667   0.35817   0.77853   0.00000  Uiso   1.00
C846   C     0.47333   0.64183   0.72147   0.00000  Uiso   1.00
C847   C     0.49818   0.49981   0.66461   0.00000  Uiso   1.00
C848   C     0.50182   0.50019   0.83539   0.00000  Uiso   1.00
C849   C     0.54102   0.50411   0.91059   0.00000  Uiso   1.00
C850   C     0.45898   0.49589   0.58942   0.00000  Uiso   1.00
C851   C     0.50336   0.50052   0.88384   0.00000  Uiso   1.00
C852   C     0.49664   0.49948   0.61616   0.00000  Uiso   1.00
C853   C     0.46559   0.49850   0.90314   0.00000  Uiso   1.00
C854   C     0.53441   0.50150   0.59686   0.00000  Uiso   1.00
C855   C     0.46404   0.49951   0.94915   0.00000  Uiso   1.00
C856   C     0.53596   0.50049   0.55085   0.00000  Uiso   1.00
C857   C     0.50096   0.50033   0.97664   0.00000  Uiso   1.00
C858   C     0.49904   0.49967   0.52337   0.00000  Uiso   1.00
C859   C     0.53973   0.50180   0.95753   0.00000  Uiso   1.00
C860   C     0.46027   0.49820   0.54247   0.00000  Uiso   1.00
C861   C     0.42589   0.49996   0.96796   0.00000  Uiso   1.00
C862   C     0.57411   0.50004   0.53204   0.00000  Uiso   1.00
Cu863  Cu    0.50000   0.54689   0.75000   0.00000  Uiso   1.00
Cu864  Cu    0.50000   0.45311   0.75000   0.00000  Uiso   1.00
H865   H     0.43714   0.49693   0.88197   0.00000  Uiso   1.00
H866   H     0.56286   0.50307   0.61803   0.00000  Uiso   1.00
H867   H     0.39735   0.50063   0.94702   0.00000  Uiso   1.00
H868   H     0.60265   0.49937   0.55298   0.00000  Uiso   1.00
H869   H     0.39368   0.50266   0.52656   0.00000  Uiso   1.00
H870   H     0.60632   0.49734   0.97344   0.00000  Uiso   1.00
H871   H     0.37053   0.42565   0.75124   0.00000  Uiso   1.00
H872   H     0.62947   0.57435   0.74877   0.00000  Uiso   1.00
H873   H     0.62930   0.42566   0.74987   0.00000  Uiso   1.00
H874   H     0.37070   0.57434   0.75013   0.00000  Uiso   1.00
N875   N     0.50000   0.61736   0.75000   0.00000  Uiso   1.00
N876   N     0.50000   0.38264   0.75000   0.00000  Uiso   1.00
O877   O     0.43988   0.53958   0.75000   0.00000  Uiso   1.00
O878   O     0.56012   0.46042   0.75001   0.00000  Uiso   1.00
O879   O     0.56012   0.53958   0.75001   0.00000  Uiso   1.00
O880   O     0.43988   0.46042   0.75000   0.00000  Uiso   1.00
O881   O     0.49999   0.53960   0.68513   0.00000  Uiso   1.00
O882   O     0.50001   0.46040   0.81487   0.00000  Uiso   1.00
O883   O     0.50001   0.53960   0.81487   0.00000  Uiso   1.00
O884   O     0.49999   0.46040   0.68513   0.00000  Uiso   1.00
C885   C     0.58080   0.51316   0.89002   0.00000  Uiso   1.00
O886   O     0.58848   0.49423   0.85524   0.00000  Uiso   1.00
O887   O     0.60897   0.54496   0.90968   0.00000  Uiso   1.00
H888   H     0.63476   0.54808   0.89272   0.00000  Uiso   1.00
C889   C     0.41920   0.48685   0.60998   0.00000  Uiso   1.00
O890   O     0.41152   0.50577   0.64476   0.00000  Uiso   1.00
O891   O     0.39103   0.45505   0.59031   0.00000  Uiso   1.00
H892   H     0.36523   0.45193   0.60727   0.00000  Uiso   1.00
I893   I     0.43014   0.39145   0.67632   0.00000  Uiso   1.00
I894   I     0.56986   0.60855   0.82368   0.00000  Uiso   1.00
I895   I     0.56931   0.39251   0.82490   0.00000  Uiso   1.00
I896   I     0.43069   0.60749   0.67510   0.00000  Uiso   1.00
C897   C     0.75423   0.49998   0.75032   0.00000  Uiso   1.00
C898   C     0.91243   0.50002   0.74968   0.00000  Uiso   1.00
C899   C     0.75730   0.50012   0.51394   0.00000  Uiso   1.00
C900   C     0.90937   0.49988   0.98606   0.00000  Uiso   1.00
C901   C     0.68794   0.45830   0.75061   0.00000  Uiso   1.00
C902   C     0.97873   0.54170   0.74939   0.00000  Uiso   1.00
C903   C     0.97863   0.45832   0.74999   0.00000  Uiso   1.00
C904   C     0.68804   0.54168   0.75001   0.00000  Uiso   1.00
C905   C     0.95715   0.50002   0.74958   0.00000  Uiso   1.00
C906   C     0.70952   0.49998   0.75042   0.00000  Uiso   1.00
C907   C     0.80662   0.35766   0.72158   0.00000  Uiso   1.00
C908   C     0.86005   0.64234   0.77842   0.00000  Uiso   1.00
C909   C     0.86000   0.35817   0.77853   0.00000  Uiso   1.00
C910   C     0.80667   0.64183   0.72147   0.00000  Uiso   1.00
C911   C     0.83151   0.49981   0.66461   0.00000  Uiso   1.00
C912   C     0.83516   0.50019   0.83539   0.00000  Uiso   1.00
C913   C     0.87435   0.50411   0.91059   0.00000  Uiso   1.00
C914   C     0.79231   0.49589   0.58942   0.00000  Uiso   1.00
C915   C     0.83669   0.50052   0.88384   0.00000  Uiso   1.00
C916   C     0.82997   0.49948   0.61616   0.00000  Uiso   1.00
C917   C     0.79893   0.49850   0.90314   0.00000  Uiso   1.00
C918   C     0.86774   0.50150   0.59686   0.00000  Uiso   1.00
C919   C     0.79737   0.49951   0.94915   0.00000  Uiso   1.00
C920   C     0.86929   0.50049   0.55085   0.00000  Uiso   1.00
C921   C     0.83430   0.50033   0.97664   0.00000  Uiso   1.00
C922   C     0.83237   0.49967   0.52337   0.00000  Uiso   1.00
C923   C     0.87307   0.50180   0.95753   0.00000  Uiso   1.00
C924   C     0.79360   0.49820   0.54247   0.00000  Uiso   1.00
C925   C     0.75922   0.49996   0.96796   0.00000  Uiso   1.00
C926   C     0.90745   0.50004   0.53204   0.00000  Uiso   1.00
Cu927  Cu    0.83333   0.54689   0.75000   0.00000  Uiso   1.00
Cu928  Cu    0.83333   0.45311   0.75000   0.00000  Uiso   1.00
H929   H     0.77047   0.49693   0.88197   0.00000  Uiso   1.00
H930   H     0.89619   0.50307   0.61803   0.00000  Uiso   1.00
H931   H     0.73069   0.50063   0.94702   0.00000  Uiso   1.00
H932   H     0.93598   0.49937   0.55298   0.00000  Uiso   1.00
H933   H     0.72702   0.50266   0.52656   0.00000  Uiso   1.00
H934   H     0.93965   0.49734   0.97344   0.00000  Uiso   1.00
H935   H     0.70386   0.42565   0.75124   0.00000  Uiso   1.00
H936   H     0.96281   0.57435   0.74877   0.00000  Uiso   1.00
H937   H     0.96264   0.42566   0.74987   0.00000  Uiso   1.00
H938   H     0.70403   0.57434   0.75013   0.00000  Uiso   1.00
N939   N     0.83333   0.61736   0.75000   0.00000  Uiso   1.00
N940   N     0.83333   0.38264   0.75000   0.00000  Uiso   1.00
O941   O     0.77321   0.53958   0.75000   0.00000  Uiso   1.00
O942   O     0.89345   0.46042   0.75001   0.00000  Uiso   1.00
O943   O     0.89345   0.53958   0.75001   0.00000  Uiso   1.00
O944   O     0.77321   0.46042   0.75000   0.00000  Uiso   1.00
O945   O     0.83332   0.53960   0.68513   0.00000  Uiso   1.00
O946   O     0.83334   0.46040   0.81487   0.00000  Uiso   1.00
O947   O     0.83334   0.53960   0.81487   0.00000  Uiso   1.00
O948   O     0.83332   0.46040   0.68513   0.00000  Uiso   1.00
C949   C     0.91413   0.51316   0.89002   0.00000  Uiso   1.00
O950   O     0.92182   0.49423   0.85524   0.00000  Uiso   1.00
O951   O     0.94230   0.54496   0.90968   0.00000  Uiso   1.00
H952   H     0.96809   0.54808   0.89272   0.00000  Uiso   1.00
C953   C     0.75253   0.48685   0.60998   0.00000  Uiso   1.00
O954   O     0.74485   0.50577   0.64476   0.00000  Uiso   1.00
O955   O     0.72436   0.45505   0.59031   0.00000  Uiso   1.00
H956   H     0.69857   0.45193   0.60727   0.00000  Uiso   1.00
I957   I     0.76347   0.39145   0.67632   0.00000  Uiso   1.00
I958   I     0.90319   0.60855   0.82368   0.00000  Uiso   1.00
I959   I     0.90265   0.39251   0.82490   0.00000  Uiso   1.00
I960   I     0.76402   0.60749   0.67510   0.00000  Uiso   1.00
C961   C     0.08757   0.83331   0.75032   0.00000  Uiso   1.00
C962   C     0.24577   0.83335   0.74968   0.00000  Uiso   1.00
C963   C     0.09063   0.83346   0.51394   0.00000  Uiso   1.00
C964   C     0.24270   0.83321   0.98606   0.00000  Uiso   1.00
C965   C     0.02127   0.79163   0.75061   0.00000  Uiso   1.00
C966   C     0.31206   0.87503   0.74939   0.00000  Uiso   1.00
C967   C     0.31196   0.79165   0.74999   0.00000  Uiso   1.00
C968   C     0.02137   0.87502   0.75001   0.00000  Uiso   1.00
C969   C     0.29048   0.83335   0.74958   0.00000  Uiso   1.00
C970   C     0.04285   0.83331   0.75042   0.00000  Uiso   1.00
C971   C     0.13996   0.69099   0.72158   0.00000  Uiso   1.00
C972   C     0.19338   0.97567   0.77842   0.00000  Uiso   1.00
C973   C     0.19333   0.69151   0.77853   0.00000  Uiso   1.00
C974   C     0.14000   0.97516   0.72147   0.00000  Uiso   1.00
C975   C     0.16485   0.83315   0.66461   0.00000  Uiso   1.00
C976   C     0.16849   0.83352   0.83539   0.00000  Uiso   1.00
C977   C     0.20769   0.83745   0.91059   0.00000  Uiso   1.00
C978   C     0.12565   0.82922   0.58942   0.00000  Uiso   1.00
C979   C     0.17003   0.83385   0.88384   0.00000  Uiso   1.00
C980   C     0.16331   0.83281   0.61616   0.00000  Uiso   1.00
C981   C     0.13226   0.83183   0.90314   0.00000  Uiso   1.00
C982   C     0.20107   0.83483   0.59686   0.00000  Uiso   1.00
C983   C     0.13071   0.83284   0.94915   0.00000  Uiso   1.00
C984   C     0.20263   0.83383   0.55085   0.00000  Uiso   1.00
C985   C     0.16763   0.83366   0.97664   0.00000  Uiso   1.00
C986   C     0.16570   0.83300   0.52337   0.00000  Uiso   1.00
C987   C     0.20640   0.83513   0.95753   0.00000  Uiso   1.00
C988   C     0.12693   0.83154   0.54247   0.00000  Uiso   1.00
C989   C     0.09256   0.83329   0.96796   0.00000  Uiso   1.00
C990   C     0.24078   0.83338   0.53204   0.00000  Uiso   1.00
Cu991  Cu    0.16667   0.88022   0.75000   0.00000  Uiso   1.00
Cu992  Cu    0.16667   0.78645   0.75000   0.00000  Uiso   1.00
H993   H     0.10381   0.83027   0.88197   0.00000  Uiso   1.00
H994   H     0.22953   0.83640   0.61803   0.00000  Uiso   1.00
H995   H     0.06402   0.83397   0.94702   0.00000  Uiso   1.00
H996   H     0.26931   0.83270   0.55298   0.00000  Uiso   1.00
H997   H     0.06035   0.83600   0.52656   0.00000  Uiso   1.00
H998   H     0.27298   0.83067   0.97344   0.00000  Uiso   1.00
H999   H     0.03719   0.75898   0.75124   0.00000  Uiso   1.00
H1000  H     0.29614   0.90768   0.74877   0.00000  Uiso   1.00
H1001  H     0.29597   0.75900   0.74987   0.00000  Uiso   1.00
H1002  H     0.03736   0.90767   0.75013   0.00000  Uiso   1.00
N1003  N     0.16667   0.95069   0.75000   0.00000  Uiso   1.00
N1004  N     0.16667   0.71598   0.75000   0.00000  Uiso   1.00
O1005  O     0.10655   0.87291   0.75000   0.00000  Uiso   1.00
O1006  O     0.22679   0.79375   0.75001   0.00000  Uiso   1.00
O1007  O     0.22679   0.87291   0.75001   0.00000  Uiso   1.00
O1008  O     0.10655   0.79375   0.75000   0.00000  Uiso   1.00
O1009  O     0.16666   0.87293   0.68513   0.00000  Uiso   1.00
O1010  O     0.16668   0.79373   0.81487   0.00000  Uiso   1.00
O1011  O     0.16668   0.87293   0.81487   0.00000  Uiso   1.00
O1012  O     0.16666   0.79373   0.68513   0.00000  Uiso   1.00
C1013  C     0.24747   0.84649   0.89002   0.00000  Uiso   1.00
O1014  O     0.25515   0.82756   0.85524   0.00000  Uiso   1.00
O1015  O     0.27563   0.87829   0.90968   0.00000  Uiso   1.00
H1016  H     0.30143   0.88142   0.89272   0.00000  Uiso   1.00
C1017  C     0.08587   0.82018   0.60998   0.00000  Uiso   1.00
O1018  O     0.07819   0.83911   0.64476   0.00000  Uiso   1.00
O1019  O     0.05770   0.78838   0.59031   0.00000  Uiso   1.00
H1020  H     0.03190   0.78527   0.60727   0.00000  Uiso   1.00
I1021  I     0.09681   0.72478   0.67632   0.00000  Uiso   1.00
I1022  I     0.23653   0.94189   0.82368   0.00000  Uiso   1.00
I1023  I     0.23598   0.72584   0.82490   0.00000  Uiso   1.00
I1024  I     0.09735   0.94082   0.67510   0.00000  Uiso   1.00
C1025  C     0.42090   0.83331   0.75032   0.00000  Uiso   1.00
C1026  C     0.57910   0.83335   0.74968   0.00000  Uiso   1.00
C1027  C     0.42396   0.83346   0.51394   0.00000  Uiso   1.00
C1028  C     0.57604   0.83321   0.98606   0.00000  Uiso   1.00
C1029  C     0.35461   0.79163   0.75061   0.00000  Uiso   1.00
C1030  C     0.64539   0.87503   0.74939   0.00000  Uiso   1.00
C1031  C     0.64530   0.79165   0.74999   0.00000  Uiso   1.00
C1032  C     0.35470   0.87502   0.75001   0.00000  Uiso   1.00
C1033  C     0.62381   0.83335   0.74958   0.00000  Uiso   1.00
C1034  C     0.37619   0.83331   0.75042   0.00000  Uiso   1.00
C1035  C     0.47329   0.69099   0.72158   0.00000  Uiso   1.00
C1036  C     0.52671   0.97567   0.77842   0.00000  Uiso   1.00
C1037  C     0.52667   0.69151   0.77853   0.00000  Uiso   1.00
C1038  C     0.47333   0.97516   0.72147   0.00000  Uiso   1.00
C1039  C     0.49818   0.83315   0.66461   0.00000  Uiso   1.00
C1040  C     0.50182   0.83352   0.83539   0.00000  Uiso   1.00
C1041  C     0.54102   0.83745   0.91059   0.00000  Uiso   1.00
C1042  C     0.45898   0.82922   0.58942   0.00000  Uiso   1.00
C1043  C     0.50336   0.83385   0.88384   0.00000  Uiso   1.00
C1044  C     0.49664   0.83281   0.61616   0.00000  Uiso   1.00
C1045  C     0.46559   0.83183   0.90314   0.00000  Uiso   1.00
C1046  C     0.53441   0.83483   0.59686   0.00000  Uiso   1.00
C1047  C     0.46404   0.83284   0.94915   0.00000  Uiso   1.00
C1048  C     0.53596   0.83383   0.55085   0.00000  Uiso   1.00
C1049  C     0.50096   0.83366   0.97664   0.00000  Uiso   1.00
C1050  C     0.49904   0.83300   0.52337   0.00000  Uiso   1.00
C1051  C     0.53973   0.83513   0.95753   0.00000  Uiso   1.00
C1052  C     0.46027   0.83154   0.54247   0.00000  Uiso   1.00
C1053  C     0.42589   0.83329   0.96796   0.00000  Uiso   1.00
C1054  C     0.57411   0.83338   0.53204   0.00000  Uiso   1.00
Cu1055 Cu    0.50000   0.88022   0.75000   0.00000  Uiso   1.00
Cu1056 Cu    0.50000   0.78645   0.75000   0.00000  Uiso   1.00
H1057  H     0.43714   0.83027   0.88197   0.00000  Uiso   1.00
H1058  H     0.56286   0.83640   0.61803   0.00000  Uiso   1.00
H1059  H     0.39735   0.83397   0.94702   0.00000  Uiso   1.00
H1060  H     0.60265   0.83270   0.55298   0.00000  Uiso   1.00
H1061  H     0.39368   0.83600   0.52656   0.00000  Uiso   1.00
H1062  H     0.60632   0.83067   0.97344   0.00000  Uiso   1.00
H1063  H     0.37053   0.75898   0.75124   0.00000  Uiso   1.00
H1064  H     0.62947   0.90768   0.74877   0.00000  Uiso   1.00
H1065  H     0.62930   0.75900   0.74987   0.00000  Uiso   1.00
H1066  H     0.37070   0.90767   0.75013   0.00000  Uiso   1.00
N1067  N     0.50000   0.95069   0.75000   0.00000  Uiso   1.00
N1068  N     0.50000   0.71598   0.75000   0.00000  Uiso   1.00
O1069  O     0.43988   0.87291   0.75000   0.00000  Uiso   1.00
O1070  O     0.56012   0.79375   0.75001   0.00000  Uiso   1.00
O1071  O     0.56012   0.87291   0.75001   0.00000  Uiso   1.00
O1072  O     0.43988   0.79375   0.75000   0.00000  Uiso   1.00
O1073  O     0.49999   0.87293   0.68513   0.00000  Uiso   1.00
O1074  O     0.50001   0.79373   0.81487   0.00000  Uiso   1.00
O1075  O     0.50001   0.87293   0.81487   0.00000  Uiso   1.00
O1076  O     0.49999   0.79373   0.68513   0.00000  Uiso   1.00
C1077  C     0.58080   0.84649   0.89002   0.00000  Uiso   1.00
O1078  O     0.58848   0.82756   0.85524   0.00000  Uiso   1.00
O1079  O     0.60897   0.87829   0.90968   0.00000  Uiso   1.00
H1080  H     0.63476   0.88142   0.89272   0.00000  Uiso   1.00
C1081  C     0.41920   0.82018   0.60998   0.00000  Uiso   1.00
O1082  O     0.41152   0.83911   0.64476   0.00000  Uiso   1.00
O1083  O     0.39103   0.78838   0.59031   0.00000  Uiso   1.00
H1084  H     0.36523   0.78527   0.60727   0.00000  Uiso   1.00
I1085  I     0.43014   0.72478   0.67632   0.00000  Uiso   1.00
I1086  I     0.56986   0.94189   0.82368   0.00000  Uiso   1.00
I1087  I     0.56931   0.72584   0.82490   0.00000  Uiso   1.00
I1088  I     0.43069   0.94082   0.67510   0.00000  Uiso   1.00
C1089  C     0.75423   0.83331   0.75032   0.00000  Uiso   1.00
C1090  C     0.91243   0.83335   0.74968   0.00000  Uiso   1.00
C1091  C     0.75730   0.83346   0.51394   0.00000  Uiso   1.00
C1092  C     0.90937   0.83321   0.98606   0.00000  Uiso   1.00
C1093  C     0.68794   0.79163   0.75061   0.00000  Uiso   1.00
C1094  C     0.97873   0.87503   0.74939   0.00000  Uiso   1.00
C1095  C     0.97863   0.79165   0.74999   0.00000  Uiso   1.00
C1096  C     0.68804   0.87502   0.75001   0.00000  Uiso   1.00
C1097  C     0.95715   0.83335   0.74958   0.00000  Uiso   1.00
C1098  C     0.70952   0.83331   0.75042   0.00000  Uiso   1.00
C1099  C     0.80662   0.69099   0.72158   0.00000  Uiso   1.00
C1100  C     0.86005   0.97567   0.77842   0.00000  Uiso   1.00
C1101  C     0.86000   0.69151   0.77853   0.00000  Uiso   1.00
C1102  C     0.80667   0.97516   0.72147   0.00000  Uiso   1.00
C1103  C     0.83151   0.83315   0.66461   0.00000  Uiso   1.00
C1104  C     0.83516   0.83352   0.83539   0.00000  Uiso   1.00
C1105  C     0.87435   0.83745   0.91059   0.00000  Uiso   1.00
C1106  C     0.79231   0.82922   0.58942   0.00000  Uiso   1.00
C1107  C     0.83669   0.83385   0.88384   0.00000  Uiso   1.00
C1108  C     0.82997   0.83281   0.61616   0.00000  Uiso   1.00
C1109  C     0.79893   0.83183   0.90314   0.00000  Uiso   1.00
C1110  C     0.86774   0.83483   0.59686   0.00000  Uiso   1.00
C1111  C     0.79737   0.83284   0.94915   0.00000  Uiso   1.00
C1112  C     0.86929   0.83383   0.55085   0.00000  Uiso   1.00
C1113  C     0.83430   0.83366   0.97664   0.00000  Uiso   1.00
C1114  C     0.83237   0.83300   0.52337   0.00000  Uiso   1.00
C1115  C     0.87307   0.83513   0.95753   0.00000  Uiso   1.00
C1116  C     0.79360   0.83154   0.54247   0.00000  Uiso   1.00
C1117  C     0.75922   0.83329   0.96796   0.00000  Uiso   1.00
C1118  C     0.90745   0.83338   0.53204   0.00000  Uiso   1.00
Cu1119 Cu    0.83333   0.88022   0.75000   0.00000  Uiso   1.00
Cu1120 Cu    0.83333   0.78645   0.75000   0.00000  Uiso   1.00
H1121  H     0.77047   0.83027   0.88197   0.00000  Uiso   1.00
H1122  H     0.89619   0.83640   0.61803   0.00000  Uiso   1.00
H1123  H     0.73069   0.83397   0.94702   0.00000  Uiso   1.00
H1124  H     0.93598   0.83270   0.55298   0.00000  Uiso   1.00
H1125  H     0.72702   0.83600   0.52656   0.00000  Uiso   1.00
H1126  H     0.93965   0.83067   0.97344   0.00000  Uiso   1.00
H1127  H     0.70386   0.75898   0.75124   0.00000  Uiso   1.00
H1128  H     0.96281   0.90768   0.74877   0.00000  Uiso   1.00
H1129  H     0.96264   0.75900   0.74987   0.00000  Uiso   1.00
H1130  H     0.70403   0.90767   0.75013   0.00000  Uiso   1.00
N1131  N     0.83333   0.95069   0.75000   0.00000  Uiso   1.00
N1132  N     0.83333   0.71598   0.75000   0.00000  Uiso   1.00
O1133  O     0.77321   0.87291   0.75000   0.00000  Uiso   1.00
O1134  O     0.89345   0.79375   0.75001   0.00000  Uiso   1.00
O1135  O     0.89345   0.87291   0.75001   0.00000  Uiso   1.00
O1136  O     0.77321   0.79375   0.75000   0.00000  Uiso   1.00
O1137  O     0.83332   0.87293   0.68513   0.00000  Uiso   1.00
O1138  O     0.83334   0.79373   0.81487   0.00000  Uiso   1.00
O1139  O     0.83334   0.87293   0.81487   0.00000  Uiso   1.00
O1140  O     0.83332   0.79373   0.68513   0.00000  Uiso   1.00
C1141  C     0.91413   0.84649   0.89002   0.00000  Uiso   1.00
O1142  O     0.92182   0.82756   0.85524   0.00000  Uiso   1.00
O1143  O     0.94230   0.87829   0.90968   0.00000  Uiso   1.00
H1144  H     0.96809   0.88142   0.89272   0.00000  Uiso   1.00
C1145  C     0.75253   0.82018   0.60998   0.00000  Uiso   1.00
O1146  O     0.74485   0.83911   0.64476   0.00000  Uiso   1.00
O1147  O     0.72436   0.78838   0.59031   0.00000  Uiso   1.00
H1148  H     0.69857   0.78527   0.60727   0.00000  Uiso   1.00
I1149  I     0.76347   0.72478   0.67632   0.00000  Uiso   1.00
I1150  I     0.90319   0.94189   0.82368   0.00000  Uiso   1.00
I1151  I     0.90265   0.72584   0.82490   0.00000  Uiso   1.00
I1152  I     0.76402   0.94082   0.67510   0.00000  Uiso   1.00
loop_
_geom_bond_atom_site_label_1
_geom_bond_atom_site_label_2
_geom_bond_distance
_geom_bond_site_symmetry_2
_ccdc_geom_bond_type
C1     O48     1.308   .     A
C1     O45     1.307   .     A
C1     C10     1.451   .     S
C2     O47     1.308   .     A
C2     O46     1.307   .     A
C2     C9      1.451   .     S
C3     C28     1.411   .     A
C3     H37     1.080   .     S
C3     C605    1.389   1_554 S
C4     C27     1.411   .     A
C4     H38     1.080   .     S
C4     C606    1.389   .     S
C5     H39     1.083   .     S
C5     C10     1.401   .     A
C5     C135    1.383   1_455 S
C6     C9      1.401   .     A
C6     H40     1.083   .     S
C6     C72     1.383   .     S
C7     C9      1.401   .     A
C7     H41     1.083   .     S
C7     C69     1.383   .     S
C8     H42     1.083   .     S
C8     C10     1.401   .     A
C8     C134    1.383   1_455 S
C11    N44     1.378   .     A
C11    I61     2.133   .     S
C11    C398    1.432   1_545 S
C12    I62     2.133   .     S
C12    N43     1.378   .     A
C12    C205    1.432   .     S
C13    I63     2.138   .     S
C13    N44     1.380   .     A
C13    C396    1.432   1_545 S
C14    I64     2.138   .     S
C14    N43     1.380   .     A
C14    C203    1.432   .     S
C15    O49     1.308   .     A
C15    C20     1.455   .     S
C15    O52     1.307   .     A
C16    O51     1.307   .     A
C16    C19     1.455   .     S
C16    O50     1.308   .     A
C17    C19     1.420   .     A
C17    C27     1.418   .     A
C17    C53     1.493   .     S
C18    C57     1.493   .     S
C18    C20     1.420   .     A
C18    C28     1.418   .     A
C19    C21     1.393   .     A
C20    C22     1.393   .     A
C21    C23     1.389   .     A
C21    H33     1.086   .     S
C22    H34     1.086   .     S
C22    C24     1.389   .     A
C23    C29     1.396   .     A
C23    C25     1.409   .     A
C24    C30     1.396   .     A
C24    C26     1.409   .     A
C25    C27     1.419   .     A
C25    C602    1.412   .     S
C26    C28     1.419   .     A
C26    C601    1.412   1_554 S
C29    H35     1.084   .     S
C29    C579    1.389   .     S
C30    H36     1.084   .     S
C30    C580    1.389   1_554 S
Cu31   Cu32    2.731   .     S
Cu31   O47     1.963   .     S
Cu31   N43     2.052   .     S
Cu31   O49     1.962   .     S
Cu31   O45     1.962   .     S
Cu31   O51     1.965   .     S
Cu32   N44     2.052   .     S
Cu32   O48     1.963   .     S
Cu32   O50     1.962   .     S
Cu32   O52     1.965   .     S
Cu32   O46     1.962   .     S
C53    O54     1.220   .     D
C53    O55     1.399   .     S
O55    H56     1.014   .     S
C57    O58     1.220   .     D
C57    O59     1.399   .     S
O59    H60     1.014   .     S
C65    O112    1.308   .     A
C65    O109    1.307   .     A
C65    C74     1.451   .     S
C66    O111    1.308   .     A
C66    O110    1.307   .     A
C66    C73     1.451   .     S
C67    C92     1.411   .     A
C67    H101    1.080   .     S
C67    C669    1.389   1_554 S
C68    C91     1.411   .     A
C68    H102    1.080   .     S
C68    C670    1.389   .     S
C69    H103    1.083   .     S
C69    C74     1.401   .     A
C70    C73     1.401   .     A
C70    H104    1.083   .     S
C70    C136    1.383   .     S
C71    C73     1.401   .     A
C71    H105    1.083   .     S
C71    C133    1.383   .     S
C72    H106    1.083   .     S
C72    C74     1.401   .     A
C75    N108    1.378   .     A
C75    I125    2.133   .     S
C75    C462    1.432   1_545 S
C76    I126    2.133   .     S
C76    N107    1.378   .     A
C76    C269    1.432   .     S
C77    I127    2.138   .     S
C77    N108    1.380   .     A
C77    C460    1.432   1_545 S
C78    I128    2.138   .     S
C78    N107    1.380   .     A
C78    C267    1.432   .     S
C79    O113    1.308   .     A
C79    C84     1.455   .     S
C79    O116    1.307   .     A
C80    O115    1.307   .     A
C80    C83     1.455   .     S
C80    O114    1.308   .     A
C81    C83     1.420   .     A
C81    C91     1.418   .     A
C81    C117    1.493   .     S
C82    C121    1.493   .     S
C82    C84     1.420   .     A
C82    C92     1.418   .     A
C83    C85     1.393   .     A
C84    C86     1.393   .     A
C85    C87     1.389   .     A
C85    H97     1.086   .     S
C86    H98     1.086   .     S
C86    C88     1.389   .     A
C87    C93     1.396   .     A
C87    C89     1.409   .     A
C88    C94     1.396   .     A
C88    C90     1.409   .     A
C89    C91     1.419   .     A
C89    C666    1.412   .     S
C90    C92     1.419   .     A
C90    C665    1.412   1_554 S
C93    H99     1.084   .     S
C93    C643    1.389   .     S
C94    H100    1.084   .     S
C94    C644    1.389   1_554 S
Cu95   Cu96    2.731   .     S
Cu95   O111    1.963   .     S
Cu95   N107    2.052   .     S
Cu95   O113    1.962   .     S
Cu95   O109    1.962   .     S
Cu95   O115    1.965   .     S
Cu96   N108    2.052   .     S
Cu96   O112    1.963   .     S
Cu96   O114    1.962   .     S
Cu96   O116    1.965   .     S
Cu96   O110    1.962   .     S
C117   O118    1.220   .     D
C117   O119    1.399   .     S
O119   H120    1.014   .     S
C121   O122    1.220   .     D
C121   O123    1.399   .     S
O123   H124    1.014   .     S
C129   O176    1.308   .     A
C129   O173    1.307   .     A
C129   C138    1.451   .     S
C130   O175    1.308   .     A
C130   O174    1.307   .     A
C130   C137    1.451   .     S
C131   C156    1.411   .     A
C131   H165    1.080   .     S
C131   C733    1.389   1_554 S
C132   C155    1.411   .     A
C132   H166    1.080   .     S
C132   C734    1.389   .     S
C133   H167    1.083   .     S
C133   C138    1.401   .     A
C134   C137    1.401   .     A
C134   H168    1.083   .     S
C134   C8      1.383   1_655 S
C135   C137    1.401   .     A
C135   H169    1.083   .     S
C135   C5      1.383   1_655 S
C136   H170    1.083   .     S
C136   C138    1.401   .     A
C139   N172    1.378   .     A
C139   I189    2.133   .     S
C139   C526    1.432   1_545 S
C140   I190    2.133   .     S
C140   N171    1.378   .     A
C140   C333    1.432   .     S
C141   I191    2.138   .     S
C141   N172    1.380   .     A
C141   C524    1.432   1_545 S
C142   I192    2.138   .     S
C142   N171    1.380   .     A
C142   C331    1.432   .     S
C143   O177    1.308   .     A
C143   C148    1.455   .     S
C143   O180    1.307   .     A
C144   O179    1.307   .     A
C144   C147    1.455   .     S
C144   O178    1.308   .     A
C145   C147    1.420   .     A
C145   C155    1.418   .     A
C145   C181    1.493   .     S
C146   C185    1.493   .     S
C146   C148    1.420   .     A
C146   C156    1.418   .     A
C147   C149    1.393   .     A
C148   C150    1.393   .     A
C149   C151    1.389   .     A
C149   H161    1.086   .     S
C150   H162    1.086   .     S
C150   C152    1.389   .     A
C151   C157    1.396   .     A
C151   C153    1.409   .     A
C152   C158    1.396   .     A
C152   C154    1.409   .     A
C153   C155    1.419   .     A
C153   C730    1.412   .     S
C154   C156    1.419   .     A
C154   C729    1.412   1_554 S
C157   H163    1.084   .     S
C157   C707    1.389   .     S
C158   H164    1.084   .     S
C158   C708    1.389   1_554 S
Cu159  Cu160   2.731   .     S
Cu159  O175    1.963   .     S
Cu159  N171    2.052   .     S
Cu159  O177    1.962   .     S
Cu159  O173    1.962   .     S
Cu159  O179    1.965   .     S
Cu160  N172    2.052   .     S
Cu160  O176    1.963   .     S
Cu160  O178    1.962   .     S
Cu160  O180    1.965   .     S
Cu160  O174    1.962   .     S
C181   O182    1.220   .     D
C181   O183    1.399   .     S
O183   H184    1.014   .     S
C185   O186    1.220   .     D
C185   O187    1.399   .     S
O187   H188    1.014   .     S
C193   O240    1.308   .     A
C193   O237    1.307   .     A
C193   C202    1.451   .     S
C194   O239    1.308   .     A
C194   O238    1.307   .     A
C194   C201    1.451   .     S
C195   C220    1.411   .     A
C195   H229    1.080   .     S
C195   C797    1.389   1_554 S
C196   C219    1.411   .     A
C196   H230    1.080   .     S
C196   C798    1.389   .     S
C197   H231    1.083   .     S
C197   C202    1.401   .     A
C197   C327    1.383   1_455 S
C198   C201    1.401   .     A
C198   H232    1.083   .     S
C198   C264    1.383   .     S
C199   C201    1.401   .     A
C199   H233    1.083   .     S
C199   C261    1.383   .     S
C200   H234    1.083   .     S
C200   C202    1.401   .     A
C200   C326    1.383   1_455 S
C203   N236    1.378   .     A
C203   I253    2.133   .     S
C204   I254    2.133   .     S
C204   N235    1.378   .     A
C204   C397    1.432   .     S
C205   I255    2.138   .     S
C205   N236    1.380   .     A
C206   I256    2.138   .     S
C206   N235    1.380   .     A
C206   C395    1.432   .     S
C207   O241    1.308   .     A
C207   C212    1.455   .     S
C207   O244    1.307   .     A
C208   O243    1.307   .     A
C208   C211    1.455   .     S
C208   O242    1.308   .     A
C209   C211    1.420   .     A
C209   C219    1.418   .     A
C209   C245    1.493   .     S
C210   C249    1.493   .     S
C210   C212    1.420   .     A
C210   C220    1.418   .     A
C211   C213    1.393   .     A
C212   C214    1.393   .     A
C213   C215    1.389   .     A
C213   H225    1.086   .     S
C214   H226    1.086   .     S
C214   C216    1.389   .     A
C215   C221    1.396   .     A
C215   C217    1.409   .     A
C216   C222    1.396   .     A
C216   C218    1.409   .     A
C217   C219    1.419   .     A
C217   C794    1.412   .     S
C218   C220    1.419   .     A
C218   C793    1.412   1_554 S
C221   H227    1.084   .     S
C221   C771    1.389   .     S
C222   H228    1.084   .     S
C222   C772    1.389   1_554 S
Cu223  Cu224   2.731   .     S
Cu223  O239    1.963   .     S
Cu223  N235    2.052   .     S
Cu223  O241    1.962   .     S
Cu223  O237    1.962   .     S
Cu223  O243    1.965   .     S
Cu224  N236    2.052   .     S
Cu224  O240    1.963   .     S
Cu224  O242    1.962   .     S
Cu224  O244    1.965   .     S
Cu224  O238    1.962   .     S
C245   O246    1.220   .     D
C245   O247    1.399   .     S
O247   H248    1.014   .     S
C249   O250    1.220   .     D
C249   O251    1.399   .     S
O251   H252    1.014   .     S
C257   O304    1.308   .     A
C257   O301    1.307   .     A
C257   C266    1.451   .     S
C258   O303    1.308   .     A
C258   O302    1.307   .     A
C258   C265    1.451   .     S
C259   C284    1.411   .     A
C259   H293    1.080   .     S
C259   C861    1.389   1_554 S
C260   C283    1.411   .     A
C260   H294    1.080   .     S
C260   C862    1.389   .     S
C261   H295    1.083   .     S
C261   C266    1.401   .     A
C262   C265    1.401   .     A
C262   H296    1.083   .     S
C262   C328    1.383   .     S
C263   C265    1.401   .     A
C263   H297    1.083   .     S
C263   C325    1.383   .     S
C264   H298    1.083   .     S
C264   C266    1.401   .     A
C267   N300    1.378   .     A
C267   I317    2.133   .     S
C268   I318    2.133   .     S
C268   N299    1.378   .     A
C268   C461    1.432   .     S
C269   I319    2.138   .     S
C269   N300    1.380   .     A
C270   I320    2.138   .     S
C270   N299    1.380   .     A
C270   C459    1.432   .     S
C271   O305    1.308   .     A
C271   C276    1.455   .     S
C271   O308    1.307   .     A
C272   O307    1.307   .     A
C272   C275    1.455   .     S
C272   O306    1.308   .     A
C273   C275    1.420   .     A
C273   C283    1.418   .     A
C273   C309    1.493   .     S
C274   C313    1.493   .     S
C274   C276    1.420   .     A
C274   C284    1.418   .     A
C275   C277    1.393   .     A
C276   C278    1.393   .     A
C277   C279    1.389   .     A
C277   H289    1.086   .     S
C278   H290    1.086   .     S
C278   C280    1.389   .     A
C279   C285    1.396   .     A
C279   C281    1.409   .     A
C280   C286    1.396   .     A
C280   C282    1.409   .     A
C281   C283    1.419   .     A
C281   C858    1.412   .     S
C282   C284    1.419   .     A
C282   C857    1.412   1_554 S
C285   H291    1.084   .     S
C285   C835    1.389   .     S
C286   H292    1.084   .     S
C286   C836    1.389   1_554 S
Cu287  Cu288   2.731   .     S
Cu287  O303    1.963   .     S
Cu287  N299    2.052   .     S
Cu287  O305    1.962   .     S
Cu287  O301    1.962   .     S
Cu287  O307    1.965   .     S
Cu288  N300    2.052   .     S
Cu288  O304    1.963   .     S
Cu288  O306    1.962   .     S
Cu288  O308    1.965   .     S
Cu288  O302    1.962   .     S
C309   O310    1.220   .     D
C309   O311    1.399   .     S
O311   H312    1.014   .     S
C313   O314    1.220   .     D
C313   O315    1.399   .     S
O315   H316    1.014   .     S
C321   O368    1.308   .     A
C321   O365    1.307   .     A
C321   C330    1.451   .     S
C322   O367    1.308   .     A
C322   O366    1.307   .     A
C322   C329    1.451   .     S
C323   C348    1.411   .     A
C323   H357    1.080   .     S
C323   C925    1.389   1_554 S
C324   C347    1.411   .     A
C324   H358    1.080   .     S
C324   C926    1.389   .     S
C325   H359    1.083   .     S
C325   C330    1.401   .     A
C326   C329    1.401   .     A
C326   H360    1.083   .     S
C326   C200    1.383   1_655 S
C327   C329    1.401   .     A
C327   H361    1.083   .     S
C327   C197    1.383   1_655 S
C328   H362    1.083   .     S
C328   C330    1.401   .     A
C331   N364    1.378   .     A
C331   I381    2.133   .     S
C332   I382    2.133   .     S
C332   N363    1.378   .     A
C332   C525    1.432   .     S
C333   I383    2.138   .     S
C333   N364    1.380   .     A
C334   I384    2.138   .     S
C334   N363    1.380   .     A
C334   C523    1.432   .     S
C335   O369    1.308   .     A
C335   C340    1.455   .     S
C335   O372    1.307   .     A
C336   O371    1.307   .     A
C336   C339    1.455   .     S
C336   O370    1.308   .     A
C337   C339    1.420   .     A
C337   C347    1.418   .     A
C337   C373    1.493   .     S
C338   C377    1.493   .     S
C338   C340    1.420   .     A
C338   C348    1.418   .     A
C339   C341    1.393   .     A
C340   C342    1.393   .     A
C341   C343    1.389   .     A
C341   H353    1.086   .     S
C342   H354    1.086   .     S
C342   C344    1.389   .     A
C343   C349    1.396   .     A
C343   C345    1.409   .     A
C344   C350    1.396   .     A
C344   C346    1.409   .     A
C345   C347    1.419   .     A
C345   C922    1.412   .     S
C346   C348    1.419   .     A
C346   C921    1.412   1_554 S
C349   H355    1.084   .     S
C349   C899    1.389   .     S
C350   H356    1.084   .     S
C350   C900    1.389   1_554 S
Cu351  Cu352   2.731   .     S
Cu351  O367    1.963   .     S
Cu351  N363    2.052   .     S
Cu351  O369    1.962   .     S
Cu351  O365    1.962   .     S
Cu351  O371    1.965   .     S
Cu352  N364    2.052   .     S
Cu352  O368    1.963   .     S
Cu352  O370    1.962   .     S
Cu352  O372    1.965   .     S
Cu352  O366    1.962   .     S
C373   O374    1.220   .     D
C373   O375    1.399   .     S
O375   H376    1.014   .     S
C377   O378    1.220   .     D
C377   O379    1.399   .     S
O379   H380    1.014   .     S
C385   O432    1.308   .     A
C385   O429    1.307   .     A
C385   C394    1.451   .     S
C386   O431    1.308   .     A
C386   O430    1.307   .     A
C386   C393    1.451   .     S
C387   C412    1.411   .     A
C387   H421    1.080   .     S
C387   C989    1.389   1_554 S
C388   C411    1.411   .     A
C388   H422    1.080   .     S
C388   C990    1.389   .     S
C389   H423    1.083   .     S
C389   C394    1.401   .     A
C389   C519    1.383   1_455 S
C390   C393    1.401   .     A
C390   H424    1.083   .     S
C390   C456    1.383   .     S
C391   C393    1.401   .     A
C391   H425    1.083   .     S
C391   C453    1.383   .     S
C392   H426    1.083   .     S
C392   C394    1.401   .     A
C392   C518    1.383   1_455 S
C395   N428    1.378   .     A
C395   I445    2.133   .     S
C396   I446    2.133   .     S
C396   N427    1.378   .     A
C396   C13     1.432   1_565 S
C397   I447    2.138   .     S
C397   N428    1.380   .     A
C398   I448    2.138   .     S
C398   N427    1.380   .     A
C398   C11     1.432   1_565 S
C399   O433    1.308   .     A
C399   C404    1.455   .     S
C399   O436    1.307   .     A
C400   O435    1.307   .     A
C400   C403    1.455   .     S
C400   O434    1.308   .     A
C401   C403    1.420   .     A
C401   C411    1.418   .     A
C401   C437    1.493   .     S
C402   C441    1.493   .     S
C402   C404    1.420   .     A
C402   C412    1.418   .     A
C403   C405    1.393   .     A
C404   C406    1.393   .     A
C405   C407    1.389   .     A
C405   H417    1.086   .     S
C406   H418    1.086   .     S
C406   C408    1.389   .     A
C407   C413    1.396   .     A
C407   C409    1.409   .     A
C408   C414    1.396   .     A
C408   C410    1.409   .     A
C409   C411    1.419   .     A
C409   C986    1.412   .     S
C410   C412    1.419   .     A
C410   C985    1.412   1_554 S
C413   H419    1.084   .     S
C413   C963    1.389   .     S
C414   H420    1.084   .     S
C414   C964    1.389   1_554 S
Cu415  Cu416   2.731   .     S
Cu415  O431    1.963   .     S
Cu415  N427    2.052   .     S
Cu415  O433    1.962   .     S
Cu415  O429    1.962   .     S
Cu415  O435    1.965   .     S
Cu416  N428    2.052   .     S
Cu416  O432    1.963   .     S
Cu416  O434    1.962   .     S
Cu416  O436    1.965   .     S
Cu416  O430    1.962   .     S
C437   O438    1.220   .     D
C437   O439    1.399   .     S
O439   H440    1.014   .     S
C441   O442    1.220   .     D
C441   O443    1.399   .     S
O443   H444    1.014   .     S
C449   O496    1.308   .     A
C449   O493    1.307   .     A
C449   C458    1.451   .     S
C450   O495    1.308   .     A
C450   O494    1.307   .     A
C450   C457    1.451   .     S
C451   C476    1.411   .     A
C451   H485    1.080   .     S
C451   C1053   1.389   1_554 S
C452   C475    1.411   .     A
C452   H486    1.080   .     S
C452   C1054   1.389   .     S
C453   H487    1.083   .     S
C453   C458    1.401   .     A
C454   C457    1.401   .     A
C454   H488    1.083   .     S
C454   C520    1.383   .     S
C455   C457    1.401   .     A
C455   H489    1.083   .     S
C455   C517    1.383   .     S
C456   H490    1.083   .     S
C456   C458    1.401   .     A
C459   N492    1.378   .     A
C459   I509    2.133   .     S
C460   I510    2.133   .     S
C460   N491    1.378   .     A
C460   C77     1.432   1_565 S
C461   I511    2.138   .     S
C461   N492    1.380   .     A
C462   I512    2.138   .     S
C462   N491    1.380   .     A
C462   C75     1.432   1_565 S
C463   O497    1.308   .     A
C463   C468    1.455   .     S
C463   O500    1.307   .     A
C464   O499    1.307   .     A
C464   C467    1.455   .     S
C464   O498    1.308   .     A
C465   C467    1.420   .     A
C465   C475    1.418   .     A
C465   C501    1.493   .     S
C466   C505    1.493   .     S
C466   C468    1.420   .     A
C466   C476    1.418   .     A
C467   C469    1.393   .     A
C468   C470    1.393   .     A
C469   C471    1.389   .     A
C469   H481    1.086   .     S
C470   H482    1.086   .     S
C470   C472    1.389   .     A
C471   C477    1.396   .     A
C471   C473    1.409   .     A
C472   C478    1.396   .     A
C472   C474    1.409   .     A
C473   C475    1.419   .     A
C473   C1050   1.412   .     S
C474   C476    1.419   .     A
C474   C1049   1.412   1_554 S
C477   H483    1.084   .     S
C477   C1027   1.389   .     S
C478   H484    1.084   .     S
C478   C1028   1.389   1_554 S
Cu479  Cu480   2.731   .     S
Cu479  O495    1.963   .     S
Cu479  N491    2.052   .     S
Cu479  O497    1.962   .     S
Cu479  O493    1.962   .     S
Cu479  O499    1.965   .     S
Cu480  N492    2.052   .     S
Cu480  O496    1.963   .     S
Cu480  O498    1.962   .     S
Cu480  O500    1.965   .     S
Cu480  O494    1.962   .     S
C501   O502    1.220   .     D
C501   O503    1.399   .     S
O503   H504    1.014   .     S
C505   O506    1.220   .     D
C505   O507    1.399   .     S
O507   H508    1.014   .     S
C513   O560    1.308   .     A
C513   O557    1.307   .     A
C513   C522    1.451   .     S
C514   O559    1.308   .     A
C514   O558    1.307   .     A
C514   C521    1.451   .     S
C515   C540    1.411   .     A
C515   H549    1.080   .     S
C515   C1117   1.389   1_554 S
C516   C539    1.411   .     A
C516   H550    1.080   .     S
C516   C1118   1.389   .     S
C517   H551    1.083   .     S
C517   C522    1.401   .     A
C518   C521    1.401   .     A
C518   H552    1.083   .     S
C518   C392    1.383   1_655 S
C519   C521    1.401   .     A
C519   H553    1.083   .     S
C519   C389    1.383   1_655 S
C520   H554    1.083   .     S
C520   C522    1.401   .     A
C523   N556    1.378   .     A
C523   I573    2.133   .     S
C524   I574    2.133   .     S
C524   N555    1.378   .     A
C524   C141    1.432   1_565 S
C525   I575    2.138   .     S
C525   N556    1.380   .     A
C526   I576    2.138   .     S
C526   N555    1.380   .     A
C526   C139    1.432   1_565 S
C527   O561    1.308   .     A
C527   C532    1.455   .     S
C527   O564    1.307   .     A
C528   O563    1.307   .     A
C528   C531    1.455   .     S
C528   O562    1.308   .     A
C529   C531    1.420   .     A
C529   C539    1.418   .     A
C529   C565    1.493   .     S
C530   C569    1.493   .     S
C530   C532    1.420   .     A
C530   C540    1.418   .     A
C531   C533    1.393   .     A
C532   C534    1.393   .     A
C533   C535    1.389   .     A
C533   H545    1.086   .     S
C534   H546    1.086   .     S
C534   C536    1.389   .     A
C535   C541    1.396   .     A
C535   C537    1.409   .     A
C536   C542    1.396   .     A
C536   C538    1.409   .     A
C537   C539    1.419   .     A
C537   C1114   1.412   .     S
C538   C540    1.419   .     A
C538   C1113   1.412   1_554 S
C541   H547    1.084   .     S
C541   C1091   1.389   .     S
C542   H548    1.084   .     S
C542   C1092   1.389   1_554 S
Cu543  Cu544   2.731   .     S
Cu543  O559    1.963   .     S
Cu543  N555    2.052   .     S
Cu543  O561    1.962   .     S
Cu543  O557    1.962   .     S
Cu543  O563    1.965   .     S
Cu544  N556    2.052   .     S
Cu544  O560    1.963   .     S
Cu544  O562    1.962   .     S
Cu544  O564    1.965   .     S
Cu544  O558    1.962   .     S
C565   O566    1.220   .     D
C565   O567    1.399   .     S
O567   H568    1.014   .     S
C569   O570    1.220   .     D
C569   O571    1.399   .     S
O571   H572    1.014   .     S
C577   O624    1.308   .     A
C577   O621    1.307   .     A
C577   C586    1.451   .     S
C578   O623    1.308   .     A
C578   O622    1.307   .     A
C578   C585    1.451   .     S
C579   C604    1.411   .     A
C579   H613    1.080   .     S
C580   C603    1.411   .     A
C580   H614    1.080   .     S
C580   C30     1.389   1_556 S
C581   H615    1.083   .     S
C581   C586    1.401   .     A
C581   C711    1.383   1_455 S
C582   C585    1.401   .     A
C582   H616    1.083   .     S
C582   C648    1.383   .     S
C583   C585    1.401   .     A
C583   H617    1.083   .     S
C583   C645    1.383   .     S
C584   H618    1.083   .     S
C584   C586    1.401   .     A
C584   C710    1.383   1_455 S
C587   N620    1.378   .     A
C587   I637    2.133   .     S
C587   C974    1.432   1_545 S
C588   I638    2.133   .     S
C588   N619    1.378   .     A
C588   C781    1.432   .     S
C589   I639    2.138   .     S
C589   N620    1.380   .     A
C589   C972    1.432   1_545 S
C590   I640    2.138   .     S
C590   N619    1.380   .     A
C590   C779    1.432   .     S
C591   O625    1.308   .     A
C591   C596    1.455   .     S
C591   O628    1.307   .     A
C592   O627    1.307   .     A
C592   C595    1.455   .     S
C592   O626    1.308   .     A
C593   C595    1.420   .     A
C593   C603    1.418   .     A
C593   C629    1.493   .     S
C594   C633    1.493   .     S
C594   C596    1.420   .     A
C594   C604    1.418   .     A
C595   C597    1.393   .     A
C596   C598    1.393   .     A
C597   C599    1.389   .     A
C597   H609    1.086   .     S
C598   H610    1.086   .     S
C598   C600    1.389   .     A
C599   C605    1.396   .     A
C599   C601    1.409   .     A
C600   C606    1.396   .     A
C600   C602    1.409   .     A
C601   C603    1.419   .     A
C601   C26     1.412   1_556 S
C602   C604    1.419   .     A
C605   H611    1.084   .     S
C605   C3      1.389   1_556 S
C606   H612    1.084   .     S
Cu607  Cu608   2.731   .     S
Cu607  O623    1.963   .     S
Cu607  N619    2.052   .     S
Cu607  O625    1.962   .     S
Cu607  O621    1.962   .     S
Cu607  O627    1.965   .     S
Cu608  N620    2.052   .     S
Cu608  O624    1.963   .     S
Cu608  O626    1.962   .     S
Cu608  O628    1.965   .     S
Cu608  O622    1.962   .     S
C629   O630    1.220   .     D
C629   O631    1.399   .     S
O631   H632    1.014   .     S
C633   O634    1.220   .     D
C633   O635    1.399   .     S
O635   H636    1.014   .     S
C641   O688    1.308   .     A
C641   O685    1.307   .     A
C641   C650    1.451   .     S
C642   O687    1.308   .     A
C642   O686    1.307   .     A
C642   C649    1.451   .     S
C643   C668    1.411   .     A
C643   H677    1.080   .     S
C644   C667    1.411   .     A
C644   H678    1.080   .     S
C644   C94     1.389   1_556 S
C645   H679    1.083   .     S
C645   C650    1.401   .     A
C646   C649    1.401   .     A
C646   H680    1.083   .     S
C646   C712    1.383   .     S
C647   C649    1.401   .     A
C647   H681    1.083   .     S
C647   C709    1.383   .     S
C648   H682    1.083   .     S
C648   C650    1.401   .     A
C651   N684    1.378   .     A
C651   I701    2.133   .     S
C651   C1038   1.432   1_545 S
C652   I702    2.133   .     S
C652   N683    1.378   .     A
C652   C845    1.432   .     S
C653   I703    2.138   .     S
C653   N684    1.380   .     A
C653   C1036   1.432   1_545 S
C654   I704    2.138   .     S
C654   N683    1.380   .     A
C654   C843    1.432   .     S
C655   O689    1.308   .     A
C655   C660    1.455   .     S
C655   O692    1.307   .     A
C656   O691    1.307   .     A
C656   C659    1.455   .     S
C656   O690    1.308   .     A
C657   C659    1.420   .     A
C657   C667    1.418   .     A
C657   C693    1.493   .     S
C658   C697    1.493   .     S
C658   C660    1.420   .     A
C658   C668    1.418   .     A
C659   C661    1.393   .     A
C660   C662    1.393   .     A
C661   C663    1.389   .     A
C661   H673    1.086   .     S
C662   H674    1.086   .     S
C662   C664    1.389   .     A
C663   C669    1.396   .     A
C663   C665    1.409   .     A
C664   C670    1.396   .     A
C664   C666    1.409   .     A
C665   C667    1.419   .     A
C665   C90     1.412   1_556 S
C666   C668    1.419   .     A
C669   H675    1.084   .     S
C669   C67     1.389   1_556 S
C670   H676    1.084   .     S
Cu671  Cu672   2.731   .     S
Cu671  O687    1.963   .     S
Cu671  N683    2.052   .     S
Cu671  O689    1.962   .     S
Cu671  O685    1.962   .     S
Cu671  O691    1.965   .     S
Cu672  N684    2.052   .     S
Cu672  O688    1.963   .     S
Cu672  O690    1.962   .     S
Cu672  O692    1.965   .     S
Cu672  O686    1.962   .     S
C693   O694    1.220   .     D
C693   O695    1.399   .     S
O695   H696    1.014   .     S
C697   O698    1.220   .     D
C697   O699    1.399   .     S
O699   H700    1.014   .     S
C705   O752    1.308   .     A
C705   O749    1.307   .     A
C705   C714    1.451   .     S
C706   O751    1.308   .     A
C706   O750    1.307   .     A
C706   C713    1.451   .     S
C707   C732    1.411   .     A
C707   H741    1.080   .     S
C708   C731    1.411   .     A
C708   H742    1.080   .     S
C708   C158    1.389   1_556 S
C709   H743    1.083   .     S
C709   C714    1.401   .     A
C710   C713    1.401   .     A
C710   H744    1.083   .     S
C710   C584    1.383   1_655 S
C711   C713    1.401   .     A
C711   H745    1.083   .     S
C711   C581    1.383   1_655 S
C712   H746    1.083   .     S
C712   C714    1.401   .     A
C715   N748    1.378   .     A
C715   I765    2.133   .     S
C715   C1102   1.432   1_545 S
C716   I766    2.133   .     S
C716   N747    1.378   .     A
C716   C909    1.432   .     S
C717   I767    2.138   .     S
C717   N748    1.380   .     A
C717   C1100   1.432   1_545 S
C718   I768    2.138   .     S
C718   N747    1.380   .     A
C718   C907    1.432   .     S
C719   O753    1.308   .     A
C719   C724    1.455   .     S
C719   O756    1.307   .     A
C720   O755    1.307   .     A
C720   C723    1.455   .     S
C720   O754    1.308   .     A
C721   C723    1.420   .     A
C721   C731    1.418   .     A
C721   C757    1.493   .     S
C722   C761    1.493   .     S
C722   C724    1.420   .     A
C722   C732    1.418   .     A
C723   C725    1.393   .     A
C724   C726    1.393   .     A
C725   C727    1.389   .     A
C725   H737    1.086   .     S
C726   H738    1.086   .     S
C726   C728    1.389   .     A
C727   C733    1.396   .     A
C727   C729    1.409   .     A
C728   C734    1.396   .     A
C728   C730    1.409   .     A
C729   C731    1.419   .     A
C729   C154    1.412   1_556 S
C730   C732    1.419   .     A
C733   H739    1.084   .     S
C733   C131    1.389   1_556 S
C734   H740    1.084   .     S
Cu735  Cu736   2.731   .     S
Cu735  O751    1.963   .     S
Cu735  N747    2.052   .     S
Cu735  O753    1.962   .     S
Cu735  O749    1.962   .     S
Cu735  O755    1.965   .     S
Cu736  N748    2.052   .     S
Cu736  O752    1.963   .     S
Cu736  O754    1.962   .     S
Cu736  O756    1.965   .     S
Cu736  O750    1.962   .     S
C757   O758    1.220   .     D
C757   O759    1.399   .     S
O759   H760    1.014   .     S
C761   O762    1.220   .     D
C761   O763    1.399   .     S
O763   H764    1.014   .     S
C769   O816    1.308   .     A
C769   O813    1.307   .     A
C769   C778    1.451   .     S
C770   O815    1.308   .     A
C770   O814    1.307   .     A
C770   C777    1.451   .     S
C771   C796    1.411   .     A
C771   H805    1.080   .     S
C772   C795    1.411   .     A
C772   H806    1.080   .     S
C772   C222    1.389   1_556 S
C773   H807    1.083   .     S
C773   C778    1.401   .     A
C773   C903    1.383   1_455 S
C774   C777    1.401   .     A
C774   H808    1.083   .     S
C774   C840    1.383   .     S
C775   C777    1.401   .     A
C775   H809    1.083   .     S
C775   C837    1.383   .     S
C776   H810    1.083   .     S
C776   C778    1.401   .     A
C776   C902    1.383   1_455 S
C779   N812    1.378   .     A
C779   I829    2.133   .     S
C780   I830    2.133   .     S
C780   N811    1.378   .     A
C780   C973    1.432   .     S
C781   I831    2.138   .     S
C781   N812    1.380   .     A
C782   I832    2.138   .     S
C782   N811    1.380   .     A
C782   C971    1.432   .     S
C783   O817    1.308   .     A
C783   C788    1.455   .     S
C783   O820    1.307   .     A
C784   O819    1.307   .     A
C784   C787    1.455   .     S
C784   O818    1.308   .     A
C785   C787    1.420   .     A
C785   C795    1.418   .     A
C785   C821    1.493   .     S
C786   C825    1.493   .     S
C786   C788    1.420   .     A
C786   C796    1.418   .     A
C787   C789    1.393   .     A
C788   C790    1.393   .     A
C789   C791    1.389   .     A
C789   H801    1.086   .     S
C790   H802    1.086   .     S
C790   C792    1.389   .     A
C791   C797    1.396   .     A
C791   C793    1.409   .     A
C792   C798    1.396   .     A
C792   C794    1.409   .     A
C793   C795    1.419   .     A
C793   C218    1.412   1_556 S
C794   C796    1.419   .     A
C797   H803    1.084   .     S
C797   C195    1.389   1_556 S
C798   H804    1.084   .     S
Cu799  Cu800   2.731   .     S
Cu799  O815    1.963   .     S
Cu799  N811    2.052   .     S
Cu799  O817    1.962   .     S
Cu799  O813    1.962   .     S
Cu799  O819    1.965   .     S
Cu800  N812    2.052   .     S
Cu800  O816    1.963   .     S
Cu800  O818    1.962   .     S
Cu800  O820    1.965   .     S
Cu800  O814    1.962   .     S
C821   O822    1.220   .     D
C821   O823    1.399   .     S
O823   H824    1.014   .     S
C825   O826    1.220   .     D
C825   O827    1.399   .     S
O827   H828    1.014   .     S
C833   O880    1.308   .     A
C833   O877    1.307   .     A
C833   C842    1.451   .     S
C834   O879    1.308   .     A
C834   O878    1.307   .     A
C834   C841    1.451   .     S
C835   C860    1.411   .     A
C835   H869    1.080   .     S
C836   C859    1.411   .     A
C836   H870    1.080   .     S
C836   C286    1.389   1_556 S
C837   H871    1.083   .     S
C837   C842    1.401   .     A
C838   C841    1.401   .     A
C838   H872    1.083   .     S
C838   C904    1.383   .     S
C839   C841    1.401   .     A
C839   H873    1.083   .     S
C839   C901    1.383   .     S
C840   H874    1.083   .     S
C840   C842    1.401   .     A
C843   N876    1.378   .     A
C843   I893    2.133   .     S
C844   I894    2.133   .     S
C844   N875    1.378   .     A
C844   C1037   1.432   .     S
C845   I895    2.138   .     S
C845   N876    1.380   .     A
C846   I896    2.138   .     S
C846   N875    1.380   .     A
C846   C1035   1.432   .     S
C847   O881    1.308   .     A
C847   C852    1.455   .     S
C847   O884    1.307   .     A
C848   O883    1.307   .     A
C848   C851    1.455   .     S
C848   O882    1.308   .     A
C849   C851    1.420   .     A
C849   C859    1.418   .     A
C849   C885    1.493   .     S
C850   C889    1.493   .     S
C850   C852    1.420   .     A
C850   C860    1.418   .     A
C851   C853    1.393   .     A
C852   C854    1.393   .     A
C853   C855    1.389   .     A
C853   H865    1.086   .     S
C854   H866    1.086   .     S
C854   C856    1.389   .     A
C855   C861    1.396   .     A
C855   C857    1.409   .     A
C856   C862    1.396   .     A
C856   C858    1.409   .     A
C857   C859    1.419   .     A
C857   C282    1.412   1_556 S
C858   C860    1.419   .     A
C861   H867    1.084   .     S
C861   C259    1.389   1_556 S
C862   H868    1.084   .     S
Cu863  Cu864   2.731   .     S
Cu863  O879    1.963   .     S
Cu863  N875    2.052   .     S
Cu863  O881    1.962   .     S
Cu863  O877    1.962   .     S
Cu863  O883    1.965   .     S
Cu864  N876    2.052   .     S
Cu864  O880    1.963   .     S
Cu864  O882    1.962   .     S
Cu864  O884    1.965   .     S
Cu864  O878    1.962   .     S
C885   O886    1.220   .     D
C885   O887    1.399   .     S
O887   H888    1.014   .     S
C889   O890    1.220   .     D
C889   O891    1.399   .     S
O891   H892    1.014   .     S
C897   O944    1.308   .     A
C897   O941    1.307   .     A
C897   C906    1.451   .     S
C898   O943    1.308   .     A
C898   O942    1.307   .     A
C898   C905    1.451   .     S
C899   C924    1.411   .     A
C899   H933    1.080   .     S
C900   C923    1.411   .     A
C900   H934    1.080   .     S
C900   C350    1.389   1_556 S
C901   H935    1.083   .     S
C901   C906    1.401   .     A
C902   C905    1.401   .     A
C902   H936    1.083   .     S
C902   C776    1.383   1_655 S
C903   C905    1.401   .     A
C903   H937    1.083   .     S
C903   C773    1.383   1_655 S
C904   H938    1.083   .     S
C904   C906    1.401   .     A
C907   N940    1.378   .     A
C907   I957    2.133   .     S
C908   I958    2.133   .     S
C908   N939    1.378   .     A
C908   C1101   1.432   .     S
C909   I959    2.138   .     S
C909   N940    1.380   .     A
C910   I960    2.138   .     S
C910   N939    1.380   .     A
C910   C1099   1.432   .     S
C911   O945    1.308   .     A
C911   C916    1.455   .     S
C911   O948    1.307   .     A
C912   O947    1.307   .     A
C912   C915    1.455   .     S
C912   O946    1.308   .     A
C913   C915    1.420   .     A
C913   C923    1.418   .     A
C913   C949    1.493   .     S
C914   C953    1.493   .     S
C914   C916    1.420   .     A
C914   C924    1.418   .     A
C915   C917    1.393   .     A
C916   C918    1.393   .     A
C917   C919    1.389   .     A
C917   H929    1.086   .     S
C918   H930    1.086   .     S
C918   C920    1.389   .     A
C919   C925    1.396   .     A
C919   C921    1.409   .     A
C920   C926    1.396   .     A
C920   C922    1.409   .     A
C921   C923    1.419   .     A
C921   C346    1.412   1_556 S
C922   C924    1.419   .     A
C925   H931    1.084   .     S
C925   C323    1.389   1_556 S
C926   H932    1.084   .     S
Cu927  Cu928   2.731   .     S
Cu927  O943    1.963   .     S
Cu927  N939    2.052   .     S
Cu927  O945    1.962   .     S
Cu927  O941    1.962   .     S
Cu927  O947    1.965   .     S
Cu928  N940    2.052   .     S
Cu928  O944    1.963   .     S
Cu928  O946    1.962   .     S
Cu928  O948    1.965   .     S
Cu928  O942    1.962   .     S
C949   O950    1.220   .     D
C949   O951    1.399   .     S
O951   H952    1.014   .     S
C953   O954    1.220   .     D
C953   O955    1.399   .     S
O955   H956    1.014   .     S
C961   O1008   1.308   .     A
C961   O1005   1.307   .     A
C961   C970    1.451   .     S
C962   O1007   1.308   .     A
C962   O1006   1.307   .     A
C962   C969    1.451   .     S
C963   C988    1.411   .     A
C963   H997    1.080   .     S
C964   C987    1.411   .     A
C964   H998    1.080   .     S
C964   C414    1.389   1_556 S
C965   H999    1.083   .     S
C965   C970    1.401   .     A
C965   C1095   1.383   1_455 S
C966   C969    1.401   .     A
C966   H1000   1.083   .     S
C966   C1032   1.383   .     S
C967   C969    1.401   .     A
C967   H1001   1.083   .     S
C967   C1029   1.383   .     S
C968   H1002   1.083   .     S
C968   C970    1.401   .     A
C968   C1094   1.383   1_455 S
C971   N1004   1.378   .     A
C971   I1021   2.133   .     S
C972   I1022   2.133   .     S
C972   N1003   1.378   .     A
C972   C589    1.432   1_565 S
C973   I1023   2.138   .     S
C973   N1004   1.380   .     A
C974   I1024   2.138   .     S
C974   N1003   1.380   .     A
C974   C587    1.432   1_565 S
C975   O1009   1.308   .     A
C975   C980    1.455   .     S
C975   O1012   1.307   .     A
C976   O1011   1.307   .     A
C976   C979    1.455   .     S
C976   O1010   1.308   .     A
C977   C979    1.420   .     A
C977   C987    1.418   .     A
C977   C1013   1.493   .     S
C978   C1017   1.493   .     S
C978   C980    1.420   .     A
C978   C988    1.418   .     A
C979   C981    1.393   .     A
C980   C982    1.393   .     A
C981   C983    1.389   .     A
C981   H993    1.086   .     S
C982   H994    1.086   .     S
C982   C984    1.389   .     A
C983   C989    1.396   .     A
C983   C985    1.409   .     A
C984   C990    1.396   .     A
C984   C986    1.409   .     A
C985   C987    1.419   .     A
C985   C410    1.412   1_556 S
C986   C988    1.419   .     A
C989   H995    1.084   .     S
C989   C387    1.389   1_556 S
C990   H996    1.084   .     S
Cu991  Cu992   2.731   .     S
Cu991  O1007   1.963   .     S
Cu991  N1003   2.052   .     S
Cu991  O1009   1.962   .     S
Cu991  O1005   1.962   .     S
Cu991  O1011   1.965   .     S
Cu992  N1004   2.052   .     S
Cu992  O1008   1.963   .     S
Cu992  O1010   1.962   .     S
Cu992  O1012   1.965   .     S
Cu992  O1006   1.962   .     S
C1013  O1014   1.220   .     D
C1013  O1015   1.399   .     S
O1015  H1016   1.014   .     S
C1017  O1018   1.220   .     D
C1017  O1019   1.399   .     S
O1019  H1020   1.014   .     S
C1025  O1072   1.308   .     A
C1025  O1069   1.307   .     A
C1025  C1034   1.451   .     S
C1026  O1071   1.308   .     A
C1026  O1070   1.307   .     A
C1026  C1033   1.451   .     S
C1027  C1052   1.411   .     A
C1027  H1061   1.080   .     S
C1028  C1051   1.411   .     A
C1028  H1062   1.080   .     S
C1028  C478    1.389   1_556 S
C1029  H1063   1.083   .     S
C1029  C1034   1.401   .     A
C1030  C1033   1.401   .     A
C1030  H1064   1.083   .     S
C1030  C1096   1.383   .     S
C1031  C1033   1.401   .     A
C1031  H1065   1.083   .     S
C1031  C1093   1.383   .     S
C1032  H1066   1.083   .     S
C1032  C1034   1.401   .     A
C1035  N1068   1.378   .     A
C1035  I1085   2.133   .     S
C1036  I1086   2.133   .     S
C1036  N1067   1.378   .     A
C1036  C653    1.432   1_565 S
C1037  I1087   2.138   .     S
C1037  N1068   1.380   .     A
C1038  I1088   2.138   .     S
C1038  N1067   1.380   .     A
C1038  C651    1.432   1_565 S
C1039  O1073   1.308   .     A
C1039  C1044   1.455   .     S
C1039  O1076   1.307   .     A
C1040  O1075   1.307   .     A
C1040  C1043   1.455   .     S
C1040  O1074   1.308   .     A
C1041  C1043   1.420   .     A
C1041  C1051   1.418   .     A
C1041  C1077   1.493   .     S
C1042  C1081   1.493   .     S
C1042  C1044   1.420   .     A
C1042  C1052   1.418   .     A
C1043  C1045   1.393   .     A
C1044  C1046   1.393   .     A
C1045  C1047   1.389   .     A
C1045  H1057   1.086   .     S
C1046  H1058   1.086   .     S
C1046  C1048   1.389   .     A
C1047  C1053   1.396   .     A
C1047  C1049   1.409   .     A
C1048  C1054   1.396   .     A
C1048  C1050   1.409   .     A
C1049  C1051   1.419   .     A
C1049  C474    1.412   1_556 S
C1050  C1052   1.419   .     A
C1053  H1059   1.084   .     S
C1053  C451    1.389   1_556 S
C1054  H1060   1.084   .     S
Cu1055 Cu1056  2.731   .     S
Cu1055 O1071   1.963   .     S
Cu1055 N1067   2.052   .     S
Cu1055 O1073   1.962   .     S
Cu1055 O1069   1.962   .     S
Cu1055 O1075   1.965   .     S
Cu1056 N1068   2.052   .     S
Cu1056 O1072   1.963   .     S
Cu1056 O1074   1.962   .     S
Cu1056 O1076   1.965   .     S
Cu1056 O1070   1.962   .     S
C1077  O1078   1.220   .     D
C1077  O1079   1.399   .     S
O1079  H1080   1.014   .     S
C1081  O1082   1.220   .     D
C1081  O1083   1.399   .     S
O1083  H1084   1.014   .     S
C1089  O1136   1.308   .     A
C1089  O1133   1.307   .     A
C1089  C1098   1.451   .     S
C1090  O1135   1.308   .     A
C1090  O1134   1.307   .     A
C1090  C1097   1.451   .     S
C1091  C1116   1.411   .     A
C1091  H1125   1.080   .     S
C1092  C1115   1.411   .     A
C1092  H1126   1.080   .     S
C1092  C542    1.389   1_556 S
C1093  H1127   1.083   .     S
C1093  C1098   1.401   .     A
C1094  C1097   1.401   .     A
C1094  H1128   1.083   .     S
C1094  C968    1.383   1_655 S
C1095  C1097   1.401   .     A
C1095  H1129   1.083   .     S
C1095  C965    1.383   1_655 S
C1096  H1130   1.083   .     S
C1096  C1098   1.401   .     A
C1099  N1132   1.378   .     A
C1099  I1149   2.133   .     S
C1100  I1150   2.133   .     S
C1100  N1131   1.378   .     A
C1100  C717    1.432   1_565 S
C1101  I1151   2.138   .     S
C1101  N1132   1.380   .     A
C1102  I1152   2.138   .     S
C1102  N1131   1.380   .     A
C1102  C715    1.432   1_565 S
C1103  O1137   1.308   .     A
C1103  C1108   1.455   .     S
C1103  O1140   1.307   .     A
C1104  O1139   1.307   .     A
C1104  C1107   1.455   .     S
C1104  O1138   1.308   .     A
C1105  C1107   1.420   .     A
C1105  C1115   1.418   .     A
C1105  C1141   1.493   .     S
C1106  C1145   1.493   .     S
C1106  C1108   1.420   .     A
C1106  C1116   1.418   .     A
C1107  C1109   1.393   .     A
C1108  C1110   1.393   .     A
C1109  C1111   1.389   .     A
C1109  H1121   1.086   .     S
C1110  H1122   1.086   .     S
C1110  C1112   1.389   .     A
C1111  C1117   1.396   .     A
C1111  C1113   1.409   .     A
C1112  C1118   1.396   .     A
C1112  C1114   1.409   .     A
C1113  C1115   1.419   .     A
C1113  C538    1.412   1_556 S
C1114  C1116   1.419   .     A
C1117  H1123   1.084   .     S
C1117  C515    1.389   1_556 S
C1118  H1124   1.084   .     S
Cu1119 Cu1120  2.731   .     S
Cu1119 O1135   1.963   .     S
Cu1119 N1131   2.052   .     S
Cu1119 O1137   1.962   .     S
Cu1119 O1133   1.962   .     S
Cu1119 O1139   1.965   .     S
Cu1120 N1132   2.052   .     S
Cu1120 O1136   1.963   .     S
Cu1120 O1138   1.962   .     S
Cu1120 O1140   1.965   .     S
Cu1120 O1134   1.962   .     S
C1141  O1142   1.220   .     D
C1141  O1143   1.399   .     S
O1143  H1144   1.014   .     S
C1145  O1146   1.220   .     D
C1145  O1147   1.399   .     S
O1147  H1148   1.014   .     S
