data_str_m2_o1_o10_pcu_sym.195
_audit_creation_date              2020-01-03
_audit_creation_method            'Materials Studio'
_symmetry_space_group_name_H-M    'P1'
_symmetry_Int_Tables_number       1
_symmetry_cell_setting            triclinic
loop_
_symmetry_equiv_pos_as_xyz
  x,y,z
_cell_length_a                    26.4007
_cell_length_b                    32.8073
_cell_length_c                    28.9383
_cell_angle_alpha                 90.5178
_cell_angle_beta                  95.7682
_cell_angle_gamma                 92.6184
loop_
_atom_site_label
_atom_site_type_symbol
_atom_site_fract_x
_atom_site_fract_y
_atom_site_fract_z
_atom_site_U_iso_or_equiv
_atom_site_adp_type
_atom_site_occupancy
C1     C     0.16876   0.08759   0.16646   0.00000  Uiso   1.00
C2     C     0.16503   0.24579   0.16686   0.00000  Uiso   1.00
C3     C     0.06836   0.16520   0.15572   0.00000  Uiso   1.00
C4     C     0.26487   0.16805   0.17780   0.00000  Uiso   1.00
C5     C     0.01423   0.15562   0.15377   0.00000  Uiso   1.00
C6     C     0.31905   0.17643   0.18112   0.00000  Uiso   1.00
C7     C     0.18316   0.02012   0.12704   0.00000  Uiso   1.00
C8     C     0.15090   0.31330   0.20591   0.00000  Uiso   1.00
C9     C     0.17895   0.31104   0.12833   0.00000  Uiso   1.00
C10    C     0.15601   0.02232   0.20506   0.00000  Uiso   1.00
C11    C     0.16390   0.29052   0.16729   0.00000  Uiso   1.00
C12    C     0.17067   0.04291   0.16597   0.00000  Uiso   1.00
C13    C     0.12946   0.14521   0.02149   0.00000  Uiso   1.00
C14    C     0.20314   0.18972   0.31083   0.00000  Uiso   1.00
C15    C     0.12842   0.14665   0.30533   0.00000  Uiso   1.00
C16    C     0.20492   0.18734   0.02787   0.00000  Uiso   1.00
Cu17   Cu    0.16667   0.16667   0.21355   0.00000  Uiso   1.00
Cu18   Cu    0.16667   0.16666   0.11978   0.00000  Uiso   1.00
H19    H     0.18891   0.29375   0.09877   0.00000  Uiso   1.00
H20    H     0.14595   0.03945   0.23468   0.00000  Uiso   1.00
N21    N     0.16668   0.16668   0.28403   0.00000  Uiso   1.00
N22    N     0.16665   0.16666   0.04931   0.00000  Uiso   1.00
O23    O     0.16666   0.10655   0.20625   0.00000  Uiso   1.00
O24    O     0.16667   0.22678   0.12709   0.00000  Uiso   1.00
O25    O     0.16666   0.10654   0.12706   0.00000  Uiso   1.00
O26    O     0.16667   0.22679   0.20628   0.00000  Uiso   1.00
O27    O     0.09161   0.16667   0.19712   0.00000  Uiso   1.00
O28    O     0.24172   0.16666   0.13621   0.00000  Uiso   1.00
O29    O     0.09161   0.16666   0.11793   0.00000  Uiso   1.00
O30    O     0.24172   0.16667   0.21540   0.00000  Uiso   1.00
C31    C     0.32994   0.11514   0.13423   0.00000  Uiso   1.00
O32    O     0.00220   0.10689   0.09400   0.00000  Uiso   1.00
O33    O     0.30907   0.08593   0.16267   0.00000  Uiso   1.00
H34    H     0.30420   0.05792   0.14741   0.00000  Uiso   1.00
C35    C     0.00362   0.21549   0.20378   0.00000  Uiso   1.00
O36    O     0.01807   0.21642   0.24516   0.00000  Uiso   1.00
O37    O     0.00155   0.25135   0.17807   0.00000  Uiso   1.00
H38    H     0.01137   0.27667   0.19783   0.00000  Uiso   1.00
C39    C     0.20113   0.03817   0.08433   0.00000  Uiso   1.00
O40    O     0.23134   0.06758   0.08644   0.00000  Uiso   1.00
O41    O     0.18449   0.02020   0.04122   0.00000  Uiso   1.00
H42    H     0.19865   0.03526   0.01454   0.00000  Uiso   1.00
C43    C     0.12917   0.29506   0.24675   0.00000  Uiso   1.00
O44    O     0.09972   0.26532   0.24210   0.00000  Uiso   1.00
O45    O     0.14029   0.31322   0.29054   0.00000  Uiso   1.00
H46    H     0.12595   0.29639   0.31582   0.00000  Uiso   1.00
O47    O     0.09151   0.12308   0.04182   0.00000  Uiso   1.00
C48    C     0.09409   0.08048   0.03318   0.00000  Uiso   1.00
H49    H     0.10625   0.06573   0.06646   0.00000  Uiso   1.00
H50    H     0.12234   0.07296   0.00862   0.00000  Uiso   1.00
C51    C     0.04123   0.06135   0.01553   0.00000  Uiso   1.00
H52    H     0.02132   0.05062   0.04544   0.00000  Uiso   1.00
H53    H     0.01724   0.08404   0.33028   0.00000  Uiso   1.00
C54    C     0.04471   0.02463   0.31682   0.00000  Uiso   1.00
H55    H     0.05979   0.33213   0.00418   0.00000  Uiso   1.00
H56    H     0.06967   0.03180   0.28921   0.00000  Uiso   1.00
H57    H     0.00644   0.01547   0.29951   0.00000  Uiso   1.00
O58    O     0.23493   0.21425   0.28520   0.00000  Uiso   1.00
C59    C     0.26916   0.24458   0.30720   0.00000  Uiso   1.00
H60    H     0.29016   0.25832   0.27945   0.00000  Uiso   1.00
H61    H     0.30008   0.23161   0.33001   0.00000  Uiso   1.00
C62    C     0.24345   0.28057   0.32780   0.00000  Uiso   1.00
H63    H     0.23066   0.30066   0.29870   0.00000  Uiso   1.00
H64    H     0.20940   0.27019   0.01144   0.00000  Uiso   1.00
C65    C     0.28045   0.30574   0.02921   0.00000  Uiso   1.00
H66    H     0.26927   0.30284   0.06494   0.00000  Uiso   1.00
H67    H     0.27957   0.00517   0.02041   0.00000  Uiso   1.00
H68    H     0.32026   0.29624   0.02953   0.00000  Uiso   1.00
C69    C     0.08223   0.12962   0.27783   0.00000  Uiso   1.00
O70    O     0.04102   0.14341   0.28338   0.00000  Uiso   1.00
O71    O     0.08477   0.09686   0.24734   0.00000  Uiso   1.00
H72    H     0.05016   0.08757   0.23150   0.00000  Uiso   1.00
C73    C     0.25133   0.20123   0.05663   0.00000  Uiso   1.00
O74    O     0.25105   0.23034   0.08313   0.00000  Uiso   1.00
O75    O     0.29607   0.18067   0.05343   0.00000  Uiso   1.00
H76    H     0.32659   0.19482   0.07193   0.00000  Uiso   1.00
C77    C     0.50209   0.08759   0.16646   0.00000  Uiso   1.00
C78    C     0.49836   0.24579   0.16686   0.00000  Uiso   1.00
C79    C     0.40169   0.16520   0.15572   0.00000  Uiso   1.00
C80    C     0.59820   0.16805   0.17780   0.00000  Uiso   1.00
C81    C     0.34756   0.15562   0.15377   0.00000  Uiso   1.00
C82    C     0.65238   0.17643   0.18112   0.00000  Uiso   1.00
C83    C     0.51649   0.02012   0.12704   0.00000  Uiso   1.00
C84    C     0.48424   0.31330   0.20591   0.00000  Uiso   1.00
C85    C     0.51229   0.31104   0.12833   0.00000  Uiso   1.00
C86    C     0.48934   0.02232   0.20506   0.00000  Uiso   1.00
C87    C     0.49723   0.29052   0.16729   0.00000  Uiso   1.00
C88    C     0.50400   0.04291   0.16597   0.00000  Uiso   1.00
C89    C     0.46280   0.14521   0.02149   0.00000  Uiso   1.00
C90    C     0.53647   0.18972   0.31083   0.00000  Uiso   1.00
C91    C     0.46176   0.14665   0.30533   0.00000  Uiso   1.00
C92    C     0.53825   0.18734   0.02787   0.00000  Uiso   1.00
Cu93   Cu    0.50000   0.16667   0.21355   0.00000  Uiso   1.00
Cu94   Cu    0.50000   0.16666   0.11978   0.00000  Uiso   1.00
H95    H     0.52225   0.29375   0.09877   0.00000  Uiso   1.00
H96    H     0.47929   0.03945   0.23468   0.00000  Uiso   1.00
N97    N     0.50001   0.16668   0.28403   0.00000  Uiso   1.00
N98    N     0.49999   0.16666   0.04931   0.00000  Uiso   1.00
O99    O     0.50000   0.10655   0.20625   0.00000  Uiso   1.00
O100   O     0.50000   0.22678   0.12709   0.00000  Uiso   1.00
O101   O     0.50000   0.10654   0.12706   0.00000  Uiso   1.00
O102   O     0.50000   0.22679   0.20628   0.00000  Uiso   1.00
O103   O     0.42495   0.16667   0.19712   0.00000  Uiso   1.00
O104   O     0.57505   0.16666   0.13621   0.00000  Uiso   1.00
O105   O     0.42494   0.16666   0.11793   0.00000  Uiso   1.00
O106   O     0.57506   0.16667   0.21540   0.00000  Uiso   1.00
C107   C     0.66328   0.11514   0.13423   0.00000  Uiso   1.00
O108   O     0.33553   0.10689   0.09400   0.00000  Uiso   1.00
O109   O     0.64240   0.08593   0.16267   0.00000  Uiso   1.00
H110   H     0.63754   0.05792   0.14741   0.00000  Uiso   1.00
C111   C     0.33696   0.21549   0.20378   0.00000  Uiso   1.00
O112   O     0.35140   0.21642   0.24516   0.00000  Uiso   1.00
O113   O     0.33489   0.25135   0.17807   0.00000  Uiso   1.00
H114   H     0.34470   0.27667   0.19783   0.00000  Uiso   1.00
C115   C     0.53446   0.03817   0.08433   0.00000  Uiso   1.00
O116   O     0.56467   0.06758   0.08644   0.00000  Uiso   1.00
O117   O     0.51782   0.02020   0.04122   0.00000  Uiso   1.00
H118   H     0.53199   0.03526   0.01454   0.00000  Uiso   1.00
C119   C     0.46250   0.29506   0.24675   0.00000  Uiso   1.00
O120   O     0.43305   0.26532   0.24210   0.00000  Uiso   1.00
O121   O     0.47362   0.31322   0.29054   0.00000  Uiso   1.00
H122   H     0.45928   0.29639   0.31582   0.00000  Uiso   1.00
O123   O     0.42484   0.12308   0.04182   0.00000  Uiso   1.00
C124   C     0.42742   0.08048   0.03318   0.00000  Uiso   1.00
H125   H     0.43959   0.06573   0.06646   0.00000  Uiso   1.00
H126   H     0.45567   0.07296   0.00862   0.00000  Uiso   1.00
C127   C     0.37457   0.06135   0.01553   0.00000  Uiso   1.00
H128   H     0.35465   0.05062   0.04544   0.00000  Uiso   1.00
H129   H     0.35057   0.08404   0.33028   0.00000  Uiso   1.00
C130   C     0.37805   0.02463   0.31682   0.00000  Uiso   1.00
H131   H     0.39312   0.33213   0.00418   0.00000  Uiso   1.00
H132   H     0.40301   0.03180   0.28921   0.00000  Uiso   1.00
H133   H     0.33977   0.01547   0.29951   0.00000  Uiso   1.00
O134   O     0.56826   0.21425   0.28520   0.00000  Uiso   1.00
C135   C     0.60249   0.24458   0.30720   0.00000  Uiso   1.00
H136   H     0.62349   0.25832   0.27945   0.00000  Uiso   1.00
H137   H     0.63341   0.23161   0.33001   0.00000  Uiso   1.00
C138   C     0.57678   0.28057   0.32780   0.00000  Uiso   1.00
H139   H     0.56400   0.30066   0.29870   0.00000  Uiso   1.00
H140   H     0.54274   0.27019   0.01144   0.00000  Uiso   1.00
C141   C     0.61378   0.30574   0.02921   0.00000  Uiso   1.00
H142   H     0.60261   0.30284   0.06494   0.00000  Uiso   1.00
H143   H     0.61290   0.00517   0.02041   0.00000  Uiso   1.00
H144   H     0.65360   0.29624   0.02953   0.00000  Uiso   1.00
C145   C     0.41556   0.12962   0.27783   0.00000  Uiso   1.00
O146   O     0.37435   0.14341   0.28338   0.00000  Uiso   1.00
O147   O     0.41811   0.09686   0.24734   0.00000  Uiso   1.00
H148   H     0.38350   0.08757   0.23150   0.00000  Uiso   1.00
C149   C     0.58466   0.20123   0.05663   0.00000  Uiso   1.00
O150   O     0.58438   0.23034   0.08313   0.00000  Uiso   1.00
O151   O     0.62940   0.18067   0.05343   0.00000  Uiso   1.00
H152   H     0.65993   0.19482   0.07193   0.00000  Uiso   1.00
C153   C     0.83543   0.08759   0.16646   0.00000  Uiso   1.00
C154   C     0.83170   0.24579   0.16686   0.00000  Uiso   1.00
C155   C     0.73502   0.16520   0.15572   0.00000  Uiso   1.00
C156   C     0.93153   0.16805   0.17780   0.00000  Uiso   1.00
C157   C     0.68090   0.15562   0.15377   0.00000  Uiso   1.00
C158   C     0.98572   0.17643   0.18112   0.00000  Uiso   1.00
C159   C     0.84983   0.02012   0.12704   0.00000  Uiso   1.00
C160   C     0.81757   0.31330   0.20591   0.00000  Uiso   1.00
C161   C     0.84562   0.31104   0.12833   0.00000  Uiso   1.00
C162   C     0.82267   0.02232   0.20506   0.00000  Uiso   1.00
C163   C     0.83057   0.29052   0.16729   0.00000  Uiso   1.00
C164   C     0.83733   0.04291   0.16597   0.00000  Uiso   1.00
C165   C     0.79613   0.14521   0.02149   0.00000  Uiso   1.00
C166   C     0.86980   0.18972   0.31083   0.00000  Uiso   1.00
C167   C     0.79509   0.14665   0.30533   0.00000  Uiso   1.00
C168   C     0.87159   0.18734   0.02787   0.00000  Uiso   1.00
Cu169  Cu    0.83333   0.16667   0.21355   0.00000  Uiso   1.00
Cu170  Cu    0.83333   0.16666   0.11978   0.00000  Uiso   1.00
H171   H     0.85558   0.29375   0.09877   0.00000  Uiso   1.00
H172   H     0.81262   0.03945   0.23468   0.00000  Uiso   1.00
N173   N     0.83335   0.16668   0.28403   0.00000  Uiso   1.00
N174   N     0.83332   0.16666   0.04931   0.00000  Uiso   1.00
O175   O     0.83333   0.10655   0.20625   0.00000  Uiso   1.00
O176   O     0.83334   0.22678   0.12709   0.00000  Uiso   1.00
O177   O     0.83333   0.10654   0.12706   0.00000  Uiso   1.00
O178   O     0.83334   0.22679   0.20628   0.00000  Uiso   1.00
O179   O     0.75828   0.16667   0.19712   0.00000  Uiso   1.00
O180   O     0.90839   0.16666   0.13621   0.00000  Uiso   1.00
O181   O     0.75828   0.16666   0.11793   0.00000  Uiso   1.00
O182   O     0.90839   0.16667   0.21540   0.00000  Uiso   1.00
C183   C     0.99661   0.11514   0.13423   0.00000  Uiso   1.00
O184   O     0.66886   0.10689   0.09400   0.00000  Uiso   1.00
O185   O     0.97573   0.08593   0.16267   0.00000  Uiso   1.00
H186   H     0.97087   0.05792   0.14741   0.00000  Uiso   1.00
C187   C     0.67029   0.21549   0.20378   0.00000  Uiso   1.00
O188   O     0.68473   0.21642   0.24516   0.00000  Uiso   1.00
O189   O     0.66822   0.25135   0.17807   0.00000  Uiso   1.00
H190   H     0.67804   0.27667   0.19783   0.00000  Uiso   1.00
C191   C     0.86779   0.03817   0.08433   0.00000  Uiso   1.00
O192   O     0.89801   0.06758   0.08644   0.00000  Uiso   1.00
O193   O     0.85115   0.02020   0.04122   0.00000  Uiso   1.00
H194   H     0.86532   0.03526   0.01454   0.00000  Uiso   1.00
C195   C     0.79584   0.29506   0.24675   0.00000  Uiso   1.00
O196   O     0.76638   0.26532   0.24210   0.00000  Uiso   1.00
O197   O     0.80696   0.31322   0.29054   0.00000  Uiso   1.00
H198   H     0.79261   0.29639   0.31582   0.00000  Uiso   1.00
O199   O     0.75818   0.12308   0.04182   0.00000  Uiso   1.00
C200   C     0.76076   0.08048   0.03318   0.00000  Uiso   1.00
H201   H     0.77292   0.06573   0.06646   0.00000  Uiso   1.00
H202   H     0.78900   0.07296   0.00862   0.00000  Uiso   1.00
C203   C     0.70790   0.06135   0.01553   0.00000  Uiso   1.00
H204   H     0.68799   0.05062   0.04544   0.00000  Uiso   1.00
H205   H     0.68391   0.08404   0.33028   0.00000  Uiso   1.00
C206   C     0.71138   0.02463   0.31682   0.00000  Uiso   1.00
H207   H     0.72646   0.33213   0.00418   0.00000  Uiso   1.00
H208   H     0.73634   0.03180   0.28921   0.00000  Uiso   1.00
H209   H     0.67311   0.01547   0.29951   0.00000  Uiso   1.00
O210   O     0.90160   0.21425   0.28520   0.00000  Uiso   1.00
C211   C     0.93583   0.24458   0.30720   0.00000  Uiso   1.00
H212   H     0.95682   0.25832   0.27945   0.00000  Uiso   1.00
H213   H     0.96674   0.23161   0.33001   0.00000  Uiso   1.00
C214   C     0.91011   0.28057   0.32780   0.00000  Uiso   1.00
H215   H     0.89733   0.30066   0.29870   0.00000  Uiso   1.00
H216   H     0.87607   0.27019   0.01144   0.00000  Uiso   1.00
C217   C     0.94711   0.30574   0.02921   0.00000  Uiso   1.00
H218   H     0.93594   0.30284   0.06494   0.00000  Uiso   1.00
H219   H     0.94623   0.00517   0.02041   0.00000  Uiso   1.00
H220   H     0.98693   0.29624   0.02953   0.00000  Uiso   1.00
C221   C     0.74890   0.12962   0.27783   0.00000  Uiso   1.00
O222   O     0.70769   0.14341   0.28338   0.00000  Uiso   1.00
O223   O     0.75144   0.09686   0.24734   0.00000  Uiso   1.00
H224   H     0.71683   0.08757   0.23150   0.00000  Uiso   1.00
C225   C     0.91799   0.20123   0.05663   0.00000  Uiso   1.00
O226   O     0.91771   0.23034   0.08313   0.00000  Uiso   1.00
O227   O     0.96273   0.18067   0.05343   0.00000  Uiso   1.00
H228   H     0.99326   0.19482   0.07193   0.00000  Uiso   1.00
C229   C     0.16876   0.42092   0.16646   0.00000  Uiso   1.00
C230   C     0.16503   0.57912   0.16686   0.00000  Uiso   1.00
C231   C     0.06836   0.49854   0.15572   0.00000  Uiso   1.00
C232   C     0.26487   0.50138   0.17780   0.00000  Uiso   1.00
C233   C     0.01423   0.48895   0.15377   0.00000  Uiso   1.00
C234   C     0.31905   0.50976   0.18112   0.00000  Uiso   1.00
C235   C     0.18316   0.35346   0.12704   0.00000  Uiso   1.00
C236   C     0.15090   0.64663   0.20591   0.00000  Uiso   1.00
C237   C     0.17895   0.64437   0.12833   0.00000  Uiso   1.00
C238   C     0.15601   0.35565   0.20506   0.00000  Uiso   1.00
C239   C     0.16390   0.62385   0.16729   0.00000  Uiso   1.00
C240   C     0.17067   0.37624   0.16597   0.00000  Uiso   1.00
C241   C     0.12946   0.47855   0.02149   0.00000  Uiso   1.00
C242   C     0.20314   0.52306   0.31083   0.00000  Uiso   1.00
C243   C     0.12842   0.47998   0.30533   0.00000  Uiso   1.00
C244   C     0.20492   0.52067   0.02787   0.00000  Uiso   1.00
Cu245  Cu    0.16667   0.50001   0.21355   0.00000  Uiso   1.00
Cu246  Cu    0.16667   0.49999   0.11978   0.00000  Uiso   1.00
H247   H     0.18891   0.62708   0.09877   0.00000  Uiso   1.00
H248   H     0.14595   0.37278   0.23468   0.00000  Uiso   1.00
N249   N     0.16668   0.50001   0.28403   0.00000  Uiso   1.00
N250   N     0.16665   0.49999   0.04931   0.00000  Uiso   1.00
O251   O     0.16666   0.43989   0.20625   0.00000  Uiso   1.00
O252   O     0.16667   0.56011   0.12709   0.00000  Uiso   1.00
O253   O     0.16666   0.43988   0.12706   0.00000  Uiso   1.00
O254   O     0.16667   0.56012   0.20628   0.00000  Uiso   1.00
O255   O     0.09161   0.50000   0.19712   0.00000  Uiso   1.00
O256   O     0.24172   0.50000   0.13621   0.00000  Uiso   1.00
O257   O     0.09161   0.49999   0.11793   0.00000  Uiso   1.00
O258   O     0.24172   0.50001   0.21540   0.00000  Uiso   1.00
C259   C     0.32994   0.44847   0.13423   0.00000  Uiso   1.00
O260   O     0.00220   0.44023   0.09400   0.00000  Uiso   1.00
O261   O     0.30907   0.41927   0.16267   0.00000  Uiso   1.00
H262   H     0.30420   0.39125   0.14741   0.00000  Uiso   1.00
C263   C     0.00362   0.54883   0.20378   0.00000  Uiso   1.00
O264   O     0.01807   0.54975   0.24516   0.00000  Uiso   1.00
O265   O     0.00155   0.58468   0.17807   0.00000  Uiso   1.00
H266   H     0.01137   0.61001   0.19783   0.00000  Uiso   1.00
C267   C     0.20113   0.37150   0.08433   0.00000  Uiso   1.00
O268   O     0.23134   0.40091   0.08644   0.00000  Uiso   1.00
O269   O     0.18449   0.35353   0.04122   0.00000  Uiso   1.00
H270   H     0.19865   0.36859   0.01454   0.00000  Uiso   1.00
C271   C     0.12917   0.62839   0.24675   0.00000  Uiso   1.00
O272   O     0.09972   0.59866   0.24210   0.00000  Uiso   1.00
O273   O     0.14029   0.64655   0.29054   0.00000  Uiso   1.00
H274   H     0.12595   0.62973   0.31582   0.00000  Uiso   1.00
O275   O     0.09151   0.45641   0.04182   0.00000  Uiso   1.00
C276   C     0.09409   0.41382   0.03318   0.00000  Uiso   1.00
H277   H     0.10625   0.39907   0.06646   0.00000  Uiso   1.00
H278   H     0.12234   0.40630   0.00862   0.00000  Uiso   1.00
C279   C     0.04123   0.39468   0.01553   0.00000  Uiso   1.00
H280   H     0.02132   0.38395   0.04544   0.00000  Uiso   1.00
H281   H     0.01724   0.41737   0.33028   0.00000  Uiso   1.00
C282   C     0.04471   0.35797   0.31682   0.00000  Uiso   1.00
H283   H     0.05979   0.66547   0.00418   0.00000  Uiso   1.00
H284   H     0.06967   0.36513   0.28921   0.00000  Uiso   1.00
H285   H     0.00644   0.34880   0.29951   0.00000  Uiso   1.00
O286   O     0.23493   0.54758   0.28520   0.00000  Uiso   1.00
C287   C     0.26916   0.57791   0.30720   0.00000  Uiso   1.00
H288   H     0.29016   0.59165   0.27945   0.00000  Uiso   1.00
H289   H     0.30008   0.56494   0.33001   0.00000  Uiso   1.00
C290   C     0.24345   0.61391   0.32780   0.00000  Uiso   1.00
H291   H     0.23066   0.63399   0.29870   0.00000  Uiso   1.00
H292   H     0.20940   0.60352   0.01144   0.00000  Uiso   1.00
C293   C     0.28045   0.63907   0.02921   0.00000  Uiso   1.00
H294   H     0.26927   0.63617   0.06494   0.00000  Uiso   1.00
H295   H     0.27957   0.33851   0.02041   0.00000  Uiso   1.00
H296   H     0.32026   0.62957   0.02953   0.00000  Uiso   1.00
C297   C     0.08223   0.46295   0.27783   0.00000  Uiso   1.00
O298   O     0.04102   0.47674   0.28338   0.00000  Uiso   1.00
O299   O     0.08477   0.43020   0.24734   0.00000  Uiso   1.00
H300   H     0.05016   0.42090   0.23150   0.00000  Uiso   1.00
C301   C     0.25133   0.53456   0.05663   0.00000  Uiso   1.00
O302   O     0.25105   0.56368   0.08313   0.00000  Uiso   1.00
O303   O     0.29607   0.51400   0.05343   0.00000  Uiso   1.00
H304   H     0.32659   0.52816   0.07193   0.00000  Uiso   1.00
C305   C     0.50209   0.42092   0.16646   0.00000  Uiso   1.00
C306   C     0.49836   0.57912   0.16686   0.00000  Uiso   1.00
C307   C     0.40169   0.49854   0.15572   0.00000  Uiso   1.00
C308   C     0.59820   0.50138   0.17780   0.00000  Uiso   1.00
C309   C     0.34756   0.48895   0.15377   0.00000  Uiso   1.00
C310   C     0.65238   0.50976   0.18112   0.00000  Uiso   1.00
C311   C     0.51649   0.35346   0.12704   0.00000  Uiso   1.00
C312   C     0.48424   0.64663   0.20591   0.00000  Uiso   1.00
C313   C     0.51229   0.64437   0.12833   0.00000  Uiso   1.00
C314   C     0.48934   0.35565   0.20506   0.00000  Uiso   1.00
C315   C     0.49723   0.62385   0.16729   0.00000  Uiso   1.00
C316   C     0.50400   0.37624   0.16597   0.00000  Uiso   1.00
C317   C     0.46280   0.47855   0.02149   0.00000  Uiso   1.00
C318   C     0.53647   0.52306   0.31083   0.00000  Uiso   1.00
C319   C     0.46176   0.47998   0.30533   0.00000  Uiso   1.00
C320   C     0.53825   0.52067   0.02787   0.00000  Uiso   1.00
Cu321  Cu    0.50000   0.50001   0.21355   0.00000  Uiso   1.00
Cu322  Cu    0.50000   0.49999   0.11978   0.00000  Uiso   1.00
H323   H     0.52225   0.62708   0.09877   0.00000  Uiso   1.00
H324   H     0.47929   0.37278   0.23468   0.00000  Uiso   1.00
N325   N     0.50001   0.50001   0.28403   0.00000  Uiso   1.00
N326   N     0.49999   0.49999   0.04931   0.00000  Uiso   1.00
O327   O     0.50000   0.43989   0.20625   0.00000  Uiso   1.00
O328   O     0.50000   0.56011   0.12709   0.00000  Uiso   1.00
O329   O     0.50000   0.43988   0.12706   0.00000  Uiso   1.00
O330   O     0.50000   0.56012   0.20628   0.00000  Uiso   1.00
O331   O     0.42495   0.50000   0.19712   0.00000  Uiso   1.00
O332   O     0.57505   0.50000   0.13621   0.00000  Uiso   1.00
O333   O     0.42494   0.49999   0.11793   0.00000  Uiso   1.00
O334   O     0.57506   0.50001   0.21540   0.00000  Uiso   1.00
C335   C     0.66328   0.44847   0.13423   0.00000  Uiso   1.00
O336   O     0.33553   0.44023   0.09400   0.00000  Uiso   1.00
O337   O     0.64240   0.41927   0.16267   0.00000  Uiso   1.00
H338   H     0.63754   0.39125   0.14741   0.00000  Uiso   1.00
C339   C     0.33696   0.54883   0.20378   0.00000  Uiso   1.00
O340   O     0.35140   0.54975   0.24516   0.00000  Uiso   1.00
O341   O     0.33489   0.58468   0.17807   0.00000  Uiso   1.00
H342   H     0.34470   0.61001   0.19783   0.00000  Uiso   1.00
C343   C     0.53446   0.37150   0.08433   0.00000  Uiso   1.00
O344   O     0.56467   0.40091   0.08644   0.00000  Uiso   1.00
O345   O     0.51782   0.35353   0.04122   0.00000  Uiso   1.00
H346   H     0.53199   0.36859   0.01454   0.00000  Uiso   1.00
C347   C     0.46250   0.62839   0.24675   0.00000  Uiso   1.00
O348   O     0.43305   0.59866   0.24210   0.00000  Uiso   1.00
O349   O     0.47362   0.64655   0.29054   0.00000  Uiso   1.00
H350   H     0.45928   0.62973   0.31582   0.00000  Uiso   1.00
O351   O     0.42484   0.45641   0.04182   0.00000  Uiso   1.00
C352   C     0.42742   0.41382   0.03318   0.00000  Uiso   1.00
H353   H     0.43959   0.39907   0.06646   0.00000  Uiso   1.00
H354   H     0.45567   0.40630   0.00862   0.00000  Uiso   1.00
C355   C     0.37457   0.39468   0.01553   0.00000  Uiso   1.00
H356   H     0.35465   0.38395   0.04544   0.00000  Uiso   1.00
H357   H     0.35057   0.41737   0.33028   0.00000  Uiso   1.00
C358   C     0.37805   0.35797   0.31682   0.00000  Uiso   1.00
H359   H     0.39312   0.66547   0.00418   0.00000  Uiso   1.00
H360   H     0.40301   0.36513   0.28921   0.00000  Uiso   1.00
H361   H     0.33977   0.34880   0.29951   0.00000  Uiso   1.00
O362   O     0.56826   0.54758   0.28520   0.00000  Uiso   1.00
C363   C     0.60249   0.57791   0.30720   0.00000  Uiso   1.00
H364   H     0.62349   0.59165   0.27945   0.00000  Uiso   1.00
H365   H     0.63341   0.56494   0.33001   0.00000  Uiso   1.00
C366   C     0.57678   0.61391   0.32780   0.00000  Uiso   1.00
H367   H     0.56400   0.63399   0.29870   0.00000  Uiso   1.00
H368   H     0.54274   0.60352   0.01144   0.00000  Uiso   1.00
C369   C     0.61378   0.63907   0.02921   0.00000  Uiso   1.00
H370   H     0.60261   0.63617   0.06494   0.00000  Uiso   1.00
H371   H     0.61290   0.33851   0.02041   0.00000  Uiso   1.00
H372   H     0.65360   0.62957   0.02953   0.00000  Uiso   1.00
C373   C     0.41556   0.46295   0.27783   0.00000  Uiso   1.00
O374   O     0.37435   0.47674   0.28338   0.00000  Uiso   1.00
O375   O     0.41811   0.43020   0.24734   0.00000  Uiso   1.00
H376   H     0.38350   0.42090   0.23150   0.00000  Uiso   1.00
C377   C     0.58466   0.53456   0.05663   0.00000  Uiso   1.00
O378   O     0.58438   0.56368   0.08313   0.00000  Uiso   1.00
O379   O     0.62940   0.51400   0.05343   0.00000  Uiso   1.00
H380   H     0.65993   0.52816   0.07193   0.00000  Uiso   1.00
C381   C     0.83543   0.42092   0.16646   0.00000  Uiso   1.00
C382   C     0.83170   0.57912   0.16686   0.00000  Uiso   1.00
C383   C     0.73502   0.49854   0.15572   0.00000  Uiso   1.00
C384   C     0.93153   0.50138   0.17780   0.00000  Uiso   1.00
C385   C     0.68090   0.48895   0.15377   0.00000  Uiso   1.00
C386   C     0.98572   0.50976   0.18112   0.00000  Uiso   1.00
C387   C     0.84983   0.35346   0.12704   0.00000  Uiso   1.00
C388   C     0.81757   0.64663   0.20591   0.00000  Uiso   1.00
C389   C     0.84562   0.64437   0.12833   0.00000  Uiso   1.00
C390   C     0.82267   0.35565   0.20506   0.00000  Uiso   1.00
C391   C     0.83057   0.62385   0.16729   0.00000  Uiso   1.00
C392   C     0.83733   0.37624   0.16597   0.00000  Uiso   1.00
C393   C     0.79613   0.47855   0.02149   0.00000  Uiso   1.00
C394   C     0.86980   0.52306   0.31083   0.00000  Uiso   1.00
C395   C     0.79509   0.47998   0.30533   0.00000  Uiso   1.00
C396   C     0.87159   0.52067   0.02787   0.00000  Uiso   1.00
Cu397  Cu    0.83333   0.50001   0.21355   0.00000  Uiso   1.00
Cu398  Cu    0.83333   0.49999   0.11978   0.00000  Uiso   1.00
H399   H     0.85558   0.62708   0.09877   0.00000  Uiso   1.00
H400   H     0.81262   0.37278   0.23468   0.00000  Uiso   1.00
N401   N     0.83335   0.50001   0.28403   0.00000  Uiso   1.00
N402   N     0.83332   0.49999   0.04931   0.00000  Uiso   1.00
O403   O     0.83333   0.43989   0.20625   0.00000  Uiso   1.00
O404   O     0.83334   0.56011   0.12709   0.00000  Uiso   1.00
O405   O     0.83333   0.43988   0.12706   0.00000  Uiso   1.00
O406   O     0.83334   0.56012   0.20628   0.00000  Uiso   1.00
O407   O     0.75828   0.50000   0.19712   0.00000  Uiso   1.00
O408   O     0.90839   0.50000   0.13621   0.00000  Uiso   1.00
O409   O     0.75828   0.49999   0.11793   0.00000  Uiso   1.00
O410   O     0.90839   0.50001   0.21540   0.00000  Uiso   1.00
C411   C     0.99661   0.44847   0.13423   0.00000  Uiso   1.00
O412   O     0.66886   0.44023   0.09400   0.00000  Uiso   1.00
O413   O     0.97573   0.41927   0.16267   0.00000  Uiso   1.00
H414   H     0.97087   0.39125   0.14741   0.00000  Uiso   1.00
C415   C     0.67029   0.54883   0.20378   0.00000  Uiso   1.00
O416   O     0.68473   0.54975   0.24516   0.00000  Uiso   1.00
O417   O     0.66822   0.58468   0.17807   0.00000  Uiso   1.00
H418   H     0.67804   0.61001   0.19783   0.00000  Uiso   1.00
C419   C     0.86779   0.37150   0.08433   0.00000  Uiso   1.00
O420   O     0.89801   0.40091   0.08644   0.00000  Uiso   1.00
O421   O     0.85115   0.35353   0.04122   0.00000  Uiso   1.00
H422   H     0.86532   0.36859   0.01454   0.00000  Uiso   1.00
C423   C     0.79584   0.62839   0.24675   0.00000  Uiso   1.00
O424   O     0.76638   0.59866   0.24210   0.00000  Uiso   1.00
O425   O     0.80696   0.64655   0.29054   0.00000  Uiso   1.00
H426   H     0.79261   0.62973   0.31582   0.00000  Uiso   1.00
O427   O     0.75818   0.45641   0.04182   0.00000  Uiso   1.00
C428   C     0.76076   0.41382   0.03318   0.00000  Uiso   1.00
H429   H     0.77292   0.39907   0.06646   0.00000  Uiso   1.00
H430   H     0.78900   0.40630   0.00862   0.00000  Uiso   1.00
C431   C     0.70790   0.39468   0.01553   0.00000  Uiso   1.00
H432   H     0.68799   0.38395   0.04544   0.00000  Uiso   1.00
H433   H     0.68391   0.41737   0.33028   0.00000  Uiso   1.00
C434   C     0.71138   0.35797   0.31682   0.00000  Uiso   1.00
H435   H     0.72646   0.66547   0.00418   0.00000  Uiso   1.00
H436   H     0.73634   0.36513   0.28921   0.00000  Uiso   1.00
H437   H     0.67311   0.34880   0.29951   0.00000  Uiso   1.00
O438   O     0.90160   0.54758   0.28520   0.00000  Uiso   1.00
C439   C     0.93583   0.57791   0.30720   0.00000  Uiso   1.00
H440   H     0.95682   0.59165   0.27945   0.00000  Uiso   1.00
H441   H     0.96674   0.56494   0.33001   0.00000  Uiso   1.00
C442   C     0.91011   0.61391   0.32780   0.00000  Uiso   1.00
H443   H     0.89733   0.63399   0.29870   0.00000  Uiso   1.00
H444   H     0.87607   0.60352   0.01144   0.00000  Uiso   1.00
C445   C     0.94711   0.63907   0.02921   0.00000  Uiso   1.00
H446   H     0.93594   0.63617   0.06494   0.00000  Uiso   1.00
H447   H     0.94623   0.33851   0.02041   0.00000  Uiso   1.00
H448   H     0.98693   0.62957   0.02953   0.00000  Uiso   1.00
C449   C     0.74890   0.46295   0.27783   0.00000  Uiso   1.00
O450   O     0.70769   0.47674   0.28338   0.00000  Uiso   1.00
O451   O     0.75144   0.43020   0.24734   0.00000  Uiso   1.00
H452   H     0.71683   0.42090   0.23150   0.00000  Uiso   1.00
C453   C     0.91799   0.53456   0.05663   0.00000  Uiso   1.00
O454   O     0.91771   0.56368   0.08313   0.00000  Uiso   1.00
O455   O     0.96273   0.51400   0.05343   0.00000  Uiso   1.00
H456   H     0.99326   0.52816   0.07193   0.00000  Uiso   1.00
C457   C     0.16876   0.75425   0.16646   0.00000  Uiso   1.00
C458   C     0.16503   0.91245   0.16686   0.00000  Uiso   1.00
C459   C     0.06836   0.83187   0.15572   0.00000  Uiso   1.00
C460   C     0.26487   0.83472   0.17780   0.00000  Uiso   1.00
C461   C     0.01423   0.82229   0.15377   0.00000  Uiso   1.00
C462   C     0.31905   0.84309   0.18112   0.00000  Uiso   1.00
C463   C     0.18316   0.68679   0.12704   0.00000  Uiso   1.00
C464   C     0.15090   0.97997   0.20591   0.00000  Uiso   1.00
C465   C     0.17895   0.97770   0.12833   0.00000  Uiso   1.00
C466   C     0.15601   0.68899   0.20506   0.00000  Uiso   1.00
C467   C     0.16390   0.95718   0.16729   0.00000  Uiso   1.00
C468   C     0.17067   0.70958   0.16597   0.00000  Uiso   1.00
C469   C     0.12946   0.81188   0.02149   0.00000  Uiso   1.00
C470   C     0.20314   0.85639   0.31083   0.00000  Uiso   1.00
C471   C     0.12842   0.81331   0.30533   0.00000  Uiso   1.00
C472   C     0.20492   0.85400   0.02787   0.00000  Uiso   1.00
Cu473  Cu    0.16667   0.83334   0.21355   0.00000  Uiso   1.00
Cu474  Cu    0.16667   0.83333   0.11978   0.00000  Uiso   1.00
H475   H     0.18891   0.96041   0.09877   0.00000  Uiso   1.00
H476   H     0.14595   0.70611   0.23468   0.00000  Uiso   1.00
N477   N     0.16668   0.83334   0.28403   0.00000  Uiso   1.00
N478   N     0.16665   0.83332   0.04931   0.00000  Uiso   1.00
O479   O     0.16666   0.77322   0.20625   0.00000  Uiso   1.00
O480   O     0.16667   0.89345   0.12709   0.00000  Uiso   1.00
O481   O     0.16666   0.77321   0.12706   0.00000  Uiso   1.00
O482   O     0.16667   0.89346   0.20628   0.00000  Uiso   1.00
O483   O     0.09161   0.83334   0.19712   0.00000  Uiso   1.00
O484   O     0.24172   0.83333   0.13621   0.00000  Uiso   1.00
O485   O     0.09161   0.83333   0.11793   0.00000  Uiso   1.00
O486   O     0.24172   0.83334   0.21540   0.00000  Uiso   1.00
C487   C     0.32994   0.78180   0.13423   0.00000  Uiso   1.00
O488   O     0.00220   0.77356   0.09400   0.00000  Uiso   1.00
O489   O     0.30907   0.75260   0.16267   0.00000  Uiso   1.00
H490   H     0.30420   0.72459   0.14741   0.00000  Uiso   1.00
C491   C     0.00362   0.88216   0.20378   0.00000  Uiso   1.00
O492   O     0.01807   0.88308   0.24516   0.00000  Uiso   1.00
O493   O     0.00155   0.91801   0.17807   0.00000  Uiso   1.00
H494   H     0.01137   0.94334   0.19783   0.00000  Uiso   1.00
C495   C     0.20113   0.70483   0.08433   0.00000  Uiso   1.00
O496   O     0.23134   0.73424   0.08644   0.00000  Uiso   1.00
O497   O     0.18449   0.68687   0.04122   0.00000  Uiso   1.00
H498   H     0.19865   0.70192   0.01454   0.00000  Uiso   1.00
C499   C     0.12917   0.96173   0.24675   0.00000  Uiso   1.00
O500   O     0.09972   0.93199   0.24210   0.00000  Uiso   1.00
O501   O     0.14029   0.97988   0.29054   0.00000  Uiso   1.00
H502   H     0.12595   0.96306   0.31582   0.00000  Uiso   1.00
O503   O     0.09151   0.78974   0.04182   0.00000  Uiso   1.00
C504   C     0.09409   0.74715   0.03318   0.00000  Uiso   1.00
H505   H     0.10625   0.73240   0.06646   0.00000  Uiso   1.00
H506   H     0.12234   0.73963   0.00862   0.00000  Uiso   1.00
C507   C     0.04123   0.72802   0.01553   0.00000  Uiso   1.00
H508   H     0.02132   0.71728   0.04544   0.00000  Uiso   1.00
H509   H     0.01724   0.75070   0.33028   0.00000  Uiso   1.00
C510   C     0.04471   0.69130   0.31682   0.00000  Uiso   1.00
H511   H     0.05979   0.99880   0.00418   0.00000  Uiso   1.00
H512   H     0.06967   0.69847   0.28921   0.00000  Uiso   1.00
H513   H     0.00644   0.68213   0.29951   0.00000  Uiso   1.00
O514   O     0.23493   0.88092   0.28520   0.00000  Uiso   1.00
C515   C     0.26916   0.91125   0.30720   0.00000  Uiso   1.00
H516   H     0.29016   0.92498   0.27945   0.00000  Uiso   1.00
H517   H     0.30008   0.89828   0.33001   0.00000  Uiso   1.00
C518   C     0.24345   0.94724   0.32780   0.00000  Uiso   1.00
H519   H     0.23066   0.96733   0.29870   0.00000  Uiso   1.00
H520   H     0.20940   0.93685   0.01144   0.00000  Uiso   1.00
C521   C     0.28045   0.97240   0.02921   0.00000  Uiso   1.00
H522   H     0.26927   0.96950   0.06494   0.00000  Uiso   1.00
H523   H     0.27957   0.67184   0.02041   0.00000  Uiso   1.00
H524   H     0.32026   0.96290   0.02953   0.00000  Uiso   1.00
C525   C     0.08223   0.79629   0.27783   0.00000  Uiso   1.00
O526   O     0.04102   0.81008   0.28338   0.00000  Uiso   1.00
O527   O     0.08477   0.76353   0.24734   0.00000  Uiso   1.00
H528   H     0.05016   0.75423   0.23150   0.00000  Uiso   1.00
C529   C     0.25133   0.86790   0.05663   0.00000  Uiso   1.00
O530   O     0.25105   0.89701   0.08313   0.00000  Uiso   1.00
O531   O     0.29607   0.84733   0.05343   0.00000  Uiso   1.00
H532   H     0.32659   0.86149   0.07193   0.00000  Uiso   1.00
C533   C     0.50209   0.75425   0.16646   0.00000  Uiso   1.00
C534   C     0.49836   0.91245   0.16686   0.00000  Uiso   1.00
C535   C     0.40169   0.83187   0.15572   0.00000  Uiso   1.00
C536   C     0.59820   0.83472   0.17780   0.00000  Uiso   1.00
C537   C     0.34756   0.82229   0.15377   0.00000  Uiso   1.00
C538   C     0.65238   0.84309   0.18112   0.00000  Uiso   1.00
C539   C     0.51649   0.68679   0.12704   0.00000  Uiso   1.00
C540   C     0.48424   0.97997   0.20591   0.00000  Uiso   1.00
C541   C     0.51229   0.97770   0.12833   0.00000  Uiso   1.00
C542   C     0.48934   0.68899   0.20506   0.00000  Uiso   1.00
C543   C     0.49723   0.95718   0.16729   0.00000  Uiso   1.00
C544   C     0.50400   0.70958   0.16597   0.00000  Uiso   1.00
C545   C     0.46280   0.81188   0.02149   0.00000  Uiso   1.00
C546   C     0.53647   0.85639   0.31083   0.00000  Uiso   1.00
C547   C     0.46176   0.81331   0.30533   0.00000  Uiso   1.00
C548   C     0.53825   0.85400   0.02787   0.00000  Uiso   1.00
Cu549  Cu    0.50000   0.83334   0.21355   0.00000  Uiso   1.00
Cu550  Cu    0.50000   0.83333   0.11978   0.00000  Uiso   1.00
H551   H     0.52225   0.96041   0.09877   0.00000  Uiso   1.00
H552   H     0.47929   0.70611   0.23468   0.00000  Uiso   1.00
N553   N     0.50001   0.83334   0.28403   0.00000  Uiso   1.00
N554   N     0.49999   0.83332   0.04931   0.00000  Uiso   1.00
O555   O     0.50000   0.77322   0.20625   0.00000  Uiso   1.00
O556   O     0.50000   0.89345   0.12709   0.00000  Uiso   1.00
O557   O     0.50000   0.77321   0.12706   0.00000  Uiso   1.00
O558   O     0.50000   0.89346   0.20628   0.00000  Uiso   1.00
O559   O     0.42495   0.83334   0.19712   0.00000  Uiso   1.00
O560   O     0.57505   0.83333   0.13621   0.00000  Uiso   1.00
O561   O     0.42494   0.83333   0.11793   0.00000  Uiso   1.00
O562   O     0.57506   0.83334   0.21540   0.00000  Uiso   1.00
C563   C     0.66328   0.78180   0.13423   0.00000  Uiso   1.00
O564   O     0.33553   0.77356   0.09400   0.00000  Uiso   1.00
O565   O     0.64240   0.75260   0.16267   0.00000  Uiso   1.00
H566   H     0.63754   0.72459   0.14741   0.00000  Uiso   1.00
C567   C     0.33696   0.88216   0.20378   0.00000  Uiso   1.00
O568   O     0.35140   0.88308   0.24516   0.00000  Uiso   1.00
O569   O     0.33489   0.91801   0.17807   0.00000  Uiso   1.00
H570   H     0.34470   0.94334   0.19783   0.00000  Uiso   1.00
C571   C     0.53446   0.70483   0.08433   0.00000  Uiso   1.00
O572   O     0.56467   0.73424   0.08644   0.00000  Uiso   1.00
O573   O     0.51782   0.68687   0.04122   0.00000  Uiso   1.00
H574   H     0.53199   0.70192   0.01454   0.00000  Uiso   1.00
C575   C     0.46250   0.96173   0.24675   0.00000  Uiso   1.00
O576   O     0.43305   0.93199   0.24210   0.00000  Uiso   1.00
O577   O     0.47362   0.97988   0.29054   0.00000  Uiso   1.00
H578   H     0.45928   0.96306   0.31582   0.00000  Uiso   1.00
O579   O     0.42484   0.78974   0.04182   0.00000  Uiso   1.00
C580   C     0.42742   0.74715   0.03318   0.00000  Uiso   1.00
H581   H     0.43959   0.73240   0.06646   0.00000  Uiso   1.00
H582   H     0.45567   0.73963   0.00862   0.00000  Uiso   1.00
C583   C     0.37457   0.72802   0.01553   0.00000  Uiso   1.00
H584   H     0.35465   0.71728   0.04544   0.00000  Uiso   1.00
H585   H     0.35057   0.75070   0.33028   0.00000  Uiso   1.00
C586   C     0.37805   0.69130   0.31682   0.00000  Uiso   1.00
H587   H     0.39312   0.99880   0.00418   0.00000  Uiso   1.00
H588   H     0.40301   0.69847   0.28921   0.00000  Uiso   1.00
H589   H     0.33977   0.68213   0.29951   0.00000  Uiso   1.00
O590   O     0.56826   0.88092   0.28520   0.00000  Uiso   1.00
C591   C     0.60249   0.91125   0.30720   0.00000  Uiso   1.00
H592   H     0.62349   0.92498   0.27945   0.00000  Uiso   1.00
H593   H     0.63341   0.89828   0.33001   0.00000  Uiso   1.00
C594   C     0.57678   0.94724   0.32780   0.00000  Uiso   1.00
H595   H     0.56400   0.96733   0.29870   0.00000  Uiso   1.00
H596   H     0.54274   0.93685   0.01144   0.00000  Uiso   1.00
C597   C     0.61378   0.97240   0.02921   0.00000  Uiso   1.00
H598   H     0.60261   0.96950   0.06494   0.00000  Uiso   1.00
H599   H     0.61290   0.67184   0.02041   0.00000  Uiso   1.00
H600   H     0.65360   0.96290   0.02953   0.00000  Uiso   1.00
C601   C     0.41556   0.79629   0.27783   0.00000  Uiso   1.00
O602   O     0.37435   0.81008   0.28338   0.00000  Uiso   1.00
O603   O     0.41811   0.76353   0.24734   0.00000  Uiso   1.00
H604   H     0.38350   0.75423   0.23150   0.00000  Uiso   1.00
C605   C     0.58466   0.86790   0.05663   0.00000  Uiso   1.00
O606   O     0.58438   0.89701   0.08313   0.00000  Uiso   1.00
O607   O     0.62940   0.84733   0.05343   0.00000  Uiso   1.00
H608   H     0.65993   0.86149   0.07193   0.00000  Uiso   1.00
C609   C     0.83543   0.75425   0.16646   0.00000  Uiso   1.00
C610   C     0.83170   0.91245   0.16686   0.00000  Uiso   1.00
C611   C     0.73502   0.83187   0.15572   0.00000  Uiso   1.00
C612   C     0.93153   0.83472   0.17780   0.00000  Uiso   1.00
C613   C     0.68090   0.82229   0.15377   0.00000  Uiso   1.00
C614   C     0.98572   0.84309   0.18112   0.00000  Uiso   1.00
C615   C     0.84983   0.68679   0.12704   0.00000  Uiso   1.00
C616   C     0.81757   0.97997   0.20591   0.00000  Uiso   1.00
C617   C     0.84562   0.97770   0.12833   0.00000  Uiso   1.00
C618   C     0.82267   0.68899   0.20506   0.00000  Uiso   1.00
C619   C     0.83057   0.95718   0.16729   0.00000  Uiso   1.00
C620   C     0.83733   0.70958   0.16597   0.00000  Uiso   1.00
C621   C     0.79613   0.81188   0.02149   0.00000  Uiso   1.00
C622   C     0.86980   0.85639   0.31083   0.00000  Uiso   1.00
C623   C     0.79509   0.81331   0.30533   0.00000  Uiso   1.00
C624   C     0.87159   0.85400   0.02787   0.00000  Uiso   1.00
Cu625  Cu    0.83333   0.83334   0.21355   0.00000  Uiso   1.00
Cu626  Cu    0.83333   0.83333   0.11978   0.00000  Uiso   1.00
H627   H     0.85558   0.96041   0.09877   0.00000  Uiso   1.00
H628   H     0.81262   0.70611   0.23468   0.00000  Uiso   1.00
N629   N     0.83335   0.83334   0.28403   0.00000  Uiso   1.00
N630   N     0.83332   0.83332   0.04931   0.00000  Uiso   1.00
O631   O     0.83333   0.77322   0.20625   0.00000  Uiso   1.00
O632   O     0.83334   0.89345   0.12709   0.00000  Uiso   1.00
O633   O     0.83333   0.77321   0.12706   0.00000  Uiso   1.00
O634   O     0.83334   0.89346   0.20628   0.00000  Uiso   1.00
O635   O     0.75828   0.83334   0.19712   0.00000  Uiso   1.00
O636   O     0.90839   0.83333   0.13621   0.00000  Uiso   1.00
O637   O     0.75828   0.83333   0.11793   0.00000  Uiso   1.00
O638   O     0.90839   0.83334   0.21540   0.00000  Uiso   1.00
C639   C     0.99661   0.78180   0.13423   0.00000  Uiso   1.00
O640   O     0.66886   0.77356   0.09400   0.00000  Uiso   1.00
O641   O     0.97573   0.75260   0.16267   0.00000  Uiso   1.00
H642   H     0.97087   0.72459   0.14741   0.00000  Uiso   1.00
C643   C     0.67029   0.88216   0.20378   0.00000  Uiso   1.00
O644   O     0.68473   0.88308   0.24516   0.00000  Uiso   1.00
O645   O     0.66822   0.91801   0.17807   0.00000  Uiso   1.00
H646   H     0.67804   0.94334   0.19783   0.00000  Uiso   1.00
C647   C     0.86779   0.70483   0.08433   0.00000  Uiso   1.00
O648   O     0.89801   0.73424   0.08644   0.00000  Uiso   1.00
O649   O     0.85115   0.68687   0.04122   0.00000  Uiso   1.00
H650   H     0.86532   0.70192   0.01454   0.00000  Uiso   1.00
C651   C     0.79584   0.96173   0.24675   0.00000  Uiso   1.00
O652   O     0.76638   0.93199   0.24210   0.00000  Uiso   1.00
O653   O     0.80696   0.97988   0.29054   0.00000  Uiso   1.00
H654   H     0.79261   0.96306   0.31582   0.00000  Uiso   1.00
O655   O     0.75818   0.78974   0.04182   0.00000  Uiso   1.00
C656   C     0.76076   0.74715   0.03318   0.00000  Uiso   1.00
H657   H     0.77292   0.73240   0.06646   0.00000  Uiso   1.00
H658   H     0.78900   0.73963   0.00862   0.00000  Uiso   1.00
C659   C     0.70790   0.72802   0.01553   0.00000  Uiso   1.00
H660   H     0.68799   0.71728   0.04544   0.00000  Uiso   1.00
H661   H     0.68391   0.75070   0.33028   0.00000  Uiso   1.00
C662   C     0.71138   0.69130   0.31682   0.00000  Uiso   1.00
H663   H     0.72646   0.99880   0.00418   0.00000  Uiso   1.00
H664   H     0.73634   0.69847   0.28921   0.00000  Uiso   1.00
H665   H     0.67311   0.68213   0.29951   0.00000  Uiso   1.00
O666   O     0.90160   0.88092   0.28520   0.00000  Uiso   1.00
C667   C     0.93583   0.91125   0.30720   0.00000  Uiso   1.00
H668   H     0.95682   0.92498   0.27945   0.00000  Uiso   1.00
H669   H     0.96674   0.89828   0.33001   0.00000  Uiso   1.00
C670   C     0.91011   0.94724   0.32780   0.00000  Uiso   1.00
H671   H     0.89733   0.96733   0.29870   0.00000  Uiso   1.00
H672   H     0.87607   0.93685   0.01144   0.00000  Uiso   1.00
C673   C     0.94711   0.97240   0.02921   0.00000  Uiso   1.00
H674   H     0.93594   0.96950   0.06494   0.00000  Uiso   1.00
H675   H     0.94623   0.67184   0.02041   0.00000  Uiso   1.00
H676   H     0.98693   0.96290   0.02953   0.00000  Uiso   1.00
C677   C     0.74890   0.79629   0.27783   0.00000  Uiso   1.00
O678   O     0.70769   0.81008   0.28338   0.00000  Uiso   1.00
O679   O     0.75144   0.76353   0.24734   0.00000  Uiso   1.00
H680   H     0.71683   0.75423   0.23150   0.00000  Uiso   1.00
C681   C     0.91799   0.86790   0.05663   0.00000  Uiso   1.00
O682   O     0.91771   0.89701   0.08313   0.00000  Uiso   1.00
O683   O     0.96273   0.84733   0.05343   0.00000  Uiso   1.00
H684   H     0.99326   0.86149   0.07193   0.00000  Uiso   1.00
C685   C     0.16876   0.08759   0.49979   0.00000  Uiso   1.00
C686   C     0.16503   0.24579   0.50019   0.00000  Uiso   1.00
C687   C     0.06836   0.16520   0.48905   0.00000  Uiso   1.00
C688   C     0.26487   0.16805   0.51114   0.00000  Uiso   1.00
C689   C     0.01423   0.15562   0.48710   0.00000  Uiso   1.00
C690   C     0.31905   0.17643   0.51446   0.00000  Uiso   1.00
C691   C     0.18316   0.02012   0.46038   0.00000  Uiso   1.00
C692   C     0.15090   0.31330   0.53924   0.00000  Uiso   1.00
C693   C     0.17895   0.31104   0.46167   0.00000  Uiso   1.00
C694   C     0.15601   0.02232   0.53839   0.00000  Uiso   1.00
C695   C     0.16390   0.29052   0.50062   0.00000  Uiso   1.00
C696   C     0.17067   0.04291   0.49930   0.00000  Uiso   1.00
C697   C     0.12946   0.14521   0.35482   0.00000  Uiso   1.00
C698   C     0.20314   0.18972   0.64417   0.00000  Uiso   1.00
C699   C     0.12842   0.14665   0.63867   0.00000  Uiso   1.00
C700   C     0.20492   0.18734   0.36120   0.00000  Uiso   1.00
Cu701  Cu    0.16667   0.16667   0.54689   0.00000  Uiso   1.00
Cu702  Cu    0.16667   0.16666   0.45311   0.00000  Uiso   1.00
H703   H     0.18891   0.29375   0.43210   0.00000  Uiso   1.00
H704   H     0.14595   0.03945   0.56801   0.00000  Uiso   1.00
N705   N     0.16668   0.16668   0.61736   0.00000  Uiso   1.00
N706   N     0.16665   0.16666   0.38264   0.00000  Uiso   1.00
O707   O     0.16666   0.10655   0.53958   0.00000  Uiso   1.00
O708   O     0.16667   0.22678   0.46042   0.00000  Uiso   1.00
O709   O     0.16666   0.10654   0.46039   0.00000  Uiso   1.00
O710   O     0.16667   0.22679   0.53961   0.00000  Uiso   1.00
O711   O     0.09161   0.16667   0.53046   0.00000  Uiso   1.00
O712   O     0.24172   0.16666   0.46954   0.00000  Uiso   1.00
O713   O     0.09161   0.16666   0.45127   0.00000  Uiso   1.00
O714   O     0.24172   0.16667   0.54873   0.00000  Uiso   1.00
C715   C     0.32994   0.11514   0.46756   0.00000  Uiso   1.00
O716   O     0.00220   0.10689   0.42734   0.00000  Uiso   1.00
O717   O     0.30907   0.08593   0.49600   0.00000  Uiso   1.00
H718   H     0.30420   0.05792   0.48075   0.00000  Uiso   1.00
C719   C     0.00362   0.21549   0.53711   0.00000  Uiso   1.00
O720   O     0.01807   0.21642   0.57850   0.00000  Uiso   1.00
O721   O     0.00155   0.25135   0.51140   0.00000  Uiso   1.00
H722   H     0.01137   0.27667   0.53116   0.00000  Uiso   1.00
C723   C     0.20113   0.03817   0.41766   0.00000  Uiso   1.00
O724   O     0.23134   0.06758   0.41977   0.00000  Uiso   1.00
O725   O     0.18449   0.02020   0.37456   0.00000  Uiso   1.00
H726   H     0.19865   0.03526   0.34787   0.00000  Uiso   1.00
C727   C     0.12917   0.29506   0.58008   0.00000  Uiso   1.00
O728   O     0.09972   0.26532   0.57544   0.00000  Uiso   1.00
O729   O     0.14029   0.31322   0.62387   0.00000  Uiso   1.00
H730   H     0.12595   0.29639   0.64916   0.00000  Uiso   1.00
O731   O     0.09151   0.12308   0.37516   0.00000  Uiso   1.00
C732   C     0.09409   0.08048   0.36651   0.00000  Uiso   1.00
H733   H     0.10625   0.06573   0.39979   0.00000  Uiso   1.00
H734   H     0.12234   0.07296   0.34195   0.00000  Uiso   1.00
C735   C     0.04123   0.06135   0.34886   0.00000  Uiso   1.00
H736   H     0.02132   0.05062   0.37877   0.00000  Uiso   1.00
H737   H     0.01724   0.08404   0.66361   0.00000  Uiso   1.00
C738   C     0.04471   0.02463   0.65015   0.00000  Uiso   1.00
H739   H     0.05979   0.33213   0.33752   0.00000  Uiso   1.00
H740   H     0.06967   0.03180   0.62255   0.00000  Uiso   1.00
H741   H     0.00644   0.01547   0.63284   0.00000  Uiso   1.00
O742   O     0.23493   0.21425   0.61853   0.00000  Uiso   1.00
C743   C     0.26916   0.24458   0.64053   0.00000  Uiso   1.00
H744   H     0.29016   0.25832   0.61279   0.00000  Uiso   1.00
H745   H     0.30008   0.23161   0.66334   0.00000  Uiso   1.00
C746   C     0.24345   0.28057   0.66113   0.00000  Uiso   1.00
H747   H     0.23066   0.30066   0.63203   0.00000  Uiso   1.00
H748   H     0.20940   0.27019   0.34477   0.00000  Uiso   1.00
C749   C     0.28045   0.30574   0.36254   0.00000  Uiso   1.00
H750   H     0.26927   0.30284   0.39827   0.00000  Uiso   1.00
H751   H     0.27957   0.00517   0.35374   0.00000  Uiso   1.00
H752   H     0.32026   0.29624   0.36287   0.00000  Uiso   1.00
C753   C     0.08223   0.12962   0.61116   0.00000  Uiso   1.00
O754   O     0.04102   0.14341   0.61672   0.00000  Uiso   1.00
O755   O     0.08477   0.09686   0.58067   0.00000  Uiso   1.00
H756   H     0.05016   0.08757   0.56483   0.00000  Uiso   1.00
C757   C     0.25133   0.20123   0.38996   0.00000  Uiso   1.00
O758   O     0.25105   0.23034   0.41646   0.00000  Uiso   1.00
O759   O     0.29607   0.18067   0.38676   0.00000  Uiso   1.00
H760   H     0.32659   0.19482   0.40527   0.00000  Uiso   1.00
C761   C     0.50209   0.08759   0.49979   0.00000  Uiso   1.00
C762   C     0.49836   0.24579   0.50019   0.00000  Uiso   1.00
C763   C     0.40169   0.16520   0.48905   0.00000  Uiso   1.00
C764   C     0.59820   0.16805   0.51114   0.00000  Uiso   1.00
C765   C     0.34756   0.15562   0.48710   0.00000  Uiso   1.00
C766   C     0.65238   0.17643   0.51446   0.00000  Uiso   1.00
C767   C     0.51649   0.02012   0.46038   0.00000  Uiso   1.00
C768   C     0.48424   0.31330   0.53924   0.00000  Uiso   1.00
C769   C     0.51229   0.31104   0.46167   0.00000  Uiso   1.00
C770   C     0.48934   0.02232   0.53839   0.00000  Uiso   1.00
C771   C     0.49723   0.29052   0.50062   0.00000  Uiso   1.00
C772   C     0.50400   0.04291   0.49930   0.00000  Uiso   1.00
C773   C     0.46280   0.14521   0.35482   0.00000  Uiso   1.00
C774   C     0.53647   0.18972   0.64417   0.00000  Uiso   1.00
C775   C     0.46176   0.14665   0.63867   0.00000  Uiso   1.00
C776   C     0.53825   0.18734   0.36120   0.00000  Uiso   1.00
Cu777  Cu    0.50000   0.16667   0.54689   0.00000  Uiso   1.00
Cu778  Cu    0.50000   0.16666   0.45311   0.00000  Uiso   1.00
H779   H     0.52225   0.29375   0.43210   0.00000  Uiso   1.00
H780   H     0.47929   0.03945   0.56801   0.00000  Uiso   1.00
N781   N     0.50001   0.16668   0.61736   0.00000  Uiso   1.00
N782   N     0.49999   0.16666   0.38264   0.00000  Uiso   1.00
O783   O     0.50000   0.10655   0.53958   0.00000  Uiso   1.00
O784   O     0.50000   0.22678   0.46042   0.00000  Uiso   1.00
O785   O     0.50000   0.10654   0.46039   0.00000  Uiso   1.00
O786   O     0.50000   0.22679   0.53961   0.00000  Uiso   1.00
O787   O     0.42495   0.16667   0.53046   0.00000  Uiso   1.00
O788   O     0.57505   0.16666   0.46954   0.00000  Uiso   1.00
O789   O     0.42494   0.16666   0.45127   0.00000  Uiso   1.00
O790   O     0.57506   0.16667   0.54873   0.00000  Uiso   1.00
C791   C     0.66328   0.11514   0.46756   0.00000  Uiso   1.00
O792   O     0.33553   0.10689   0.42734   0.00000  Uiso   1.00
O793   O     0.64240   0.08593   0.49600   0.00000  Uiso   1.00
H794   H     0.63754   0.05792   0.48075   0.00000  Uiso   1.00
C795   C     0.33696   0.21549   0.53711   0.00000  Uiso   1.00
O796   O     0.35140   0.21642   0.57850   0.00000  Uiso   1.00
O797   O     0.33489   0.25135   0.51140   0.00000  Uiso   1.00
H798   H     0.34470   0.27667   0.53116   0.00000  Uiso   1.00
C799   C     0.53446   0.03817   0.41766   0.00000  Uiso   1.00
O800   O     0.56467   0.06758   0.41977   0.00000  Uiso   1.00
O801   O     0.51782   0.02020   0.37456   0.00000  Uiso   1.00
H802   H     0.53199   0.03526   0.34787   0.00000  Uiso   1.00
C803   C     0.46250   0.29506   0.58008   0.00000  Uiso   1.00
O804   O     0.43305   0.26532   0.57544   0.00000  Uiso   1.00
O805   O     0.47362   0.31322   0.62387   0.00000  Uiso   1.00
H806   H     0.45928   0.29639   0.64916   0.00000  Uiso   1.00
O807   O     0.42484   0.12308   0.37516   0.00000  Uiso   1.00
C808   C     0.42742   0.08048   0.36651   0.00000  Uiso   1.00
H809   H     0.43959   0.06573   0.39979   0.00000  Uiso   1.00
H810   H     0.45567   0.07296   0.34195   0.00000  Uiso   1.00
C811   C     0.37457   0.06135   0.34886   0.00000  Uiso   1.00
H812   H     0.35465   0.05062   0.37877   0.00000  Uiso   1.00
H813   H     0.35057   0.08404   0.66361   0.00000  Uiso   1.00
C814   C     0.37805   0.02463   0.65015   0.00000  Uiso   1.00
H815   H     0.39312   0.33213   0.33752   0.00000  Uiso   1.00
H816   H     0.40301   0.03180   0.62255   0.00000  Uiso   1.00
H817   H     0.33977   0.01547   0.63284   0.00000  Uiso   1.00
O818   O     0.56826   0.21425   0.61853   0.00000  Uiso   1.00
C819   C     0.60249   0.24458   0.64053   0.00000  Uiso   1.00
H820   H     0.62349   0.25832   0.61279   0.00000  Uiso   1.00
H821   H     0.63341   0.23161   0.66334   0.00000  Uiso   1.00
C822   C     0.57678   0.28057   0.66113   0.00000  Uiso   1.00
H823   H     0.56400   0.30066   0.63203   0.00000  Uiso   1.00
H824   H     0.54274   0.27019   0.34477   0.00000  Uiso   1.00
C825   C     0.61378   0.30574   0.36254   0.00000  Uiso   1.00
H826   H     0.60261   0.30284   0.39827   0.00000  Uiso   1.00
H827   H     0.61290   0.00517   0.35374   0.00000  Uiso   1.00
H828   H     0.65360   0.29624   0.36287   0.00000  Uiso   1.00
C829   C     0.41556   0.12962   0.61116   0.00000  Uiso   1.00
O830   O     0.37435   0.14341   0.61672   0.00000  Uiso   1.00
O831   O     0.41811   0.09686   0.58067   0.00000  Uiso   1.00
H832   H     0.38350   0.08757   0.56483   0.00000  Uiso   1.00
C833   C     0.58466   0.20123   0.38996   0.00000  Uiso   1.00
O834   O     0.58438   0.23034   0.41646   0.00000  Uiso   1.00
O835   O     0.62940   0.18067   0.38676   0.00000  Uiso   1.00
H836   H     0.65993   0.19482   0.40527   0.00000  Uiso   1.00
C837   C     0.83543   0.08759   0.49979   0.00000  Uiso   1.00
C838   C     0.83170   0.24579   0.50019   0.00000  Uiso   1.00
C839   C     0.73502   0.16520   0.48905   0.00000  Uiso   1.00
C840   C     0.93153   0.16805   0.51114   0.00000  Uiso   1.00
C841   C     0.68090   0.15562   0.48710   0.00000  Uiso   1.00
C842   C     0.98572   0.17643   0.51446   0.00000  Uiso   1.00
C843   C     0.84983   0.02012   0.46038   0.00000  Uiso   1.00
C844   C     0.81757   0.31330   0.53924   0.00000  Uiso   1.00
C845   C     0.84562   0.31104   0.46167   0.00000  Uiso   1.00
C846   C     0.82267   0.02232   0.53839   0.00000  Uiso   1.00
C847   C     0.83057   0.29052   0.50062   0.00000  Uiso   1.00
C848   C     0.83733   0.04291   0.49930   0.00000  Uiso   1.00
C849   C     0.79613   0.14521   0.35482   0.00000  Uiso   1.00
C850   C     0.86980   0.18972   0.64417   0.00000  Uiso   1.00
C851   C     0.79509   0.14665   0.63867   0.00000  Uiso   1.00
C852   C     0.87159   0.18734   0.36120   0.00000  Uiso   1.00
Cu853  Cu    0.83333   0.16667   0.54689   0.00000  Uiso   1.00
Cu854  Cu    0.83333   0.16666   0.45311   0.00000  Uiso   1.00
H855   H     0.85558   0.29375   0.43210   0.00000  Uiso   1.00
H856   H     0.81262   0.03945   0.56801   0.00000  Uiso   1.00
N857   N     0.83335   0.16668   0.61736   0.00000  Uiso   1.00
N858   N     0.83332   0.16666   0.38264   0.00000  Uiso   1.00
O859   O     0.83333   0.10655   0.53958   0.00000  Uiso   1.00
O860   O     0.83334   0.22678   0.46042   0.00000  Uiso   1.00
O861   O     0.83333   0.10654   0.46039   0.00000  Uiso   1.00
O862   O     0.83334   0.22679   0.53961   0.00000  Uiso   1.00
O863   O     0.75828   0.16667   0.53046   0.00000  Uiso   1.00
O864   O     0.90839   0.16666   0.46954   0.00000  Uiso   1.00
O865   O     0.75828   0.16666   0.45127   0.00000  Uiso   1.00
O866   O     0.90839   0.16667   0.54873   0.00000  Uiso   1.00
C867   C     0.99661   0.11514   0.46756   0.00000  Uiso   1.00
O868   O     0.66886   0.10689   0.42734   0.00000  Uiso   1.00
O869   O     0.97573   0.08593   0.49600   0.00000  Uiso   1.00
H870   H     0.97087   0.05792   0.48075   0.00000  Uiso   1.00
C871   C     0.67029   0.21549   0.53711   0.00000  Uiso   1.00
O872   O     0.68473   0.21642   0.57850   0.00000  Uiso   1.00
O873   O     0.66822   0.25135   0.51140   0.00000  Uiso   1.00
H874   H     0.67804   0.27667   0.53116   0.00000  Uiso   1.00
C875   C     0.86779   0.03817   0.41766   0.00000  Uiso   1.00
O876   O     0.89801   0.06758   0.41977   0.00000  Uiso   1.00
O877   O     0.85115   0.02020   0.37456   0.00000  Uiso   1.00
H878   H     0.86532   0.03526   0.34787   0.00000  Uiso   1.00
C879   C     0.79584   0.29506   0.58008   0.00000  Uiso   1.00
O880   O     0.76638   0.26532   0.57544   0.00000  Uiso   1.00
O881   O     0.80696   0.31322   0.62387   0.00000  Uiso   1.00
H882   H     0.79261   0.29639   0.64916   0.00000  Uiso   1.00
O883   O     0.75818   0.12308   0.37516   0.00000  Uiso   1.00
C884   C     0.76076   0.08048   0.36651   0.00000  Uiso   1.00
H885   H     0.77292   0.06573   0.39979   0.00000  Uiso   1.00
H886   H     0.78900   0.07296   0.34195   0.00000  Uiso   1.00
C887   C     0.70790   0.06135   0.34886   0.00000  Uiso   1.00
H888   H     0.68799   0.05062   0.37877   0.00000  Uiso   1.00
H889   H     0.68391   0.08404   0.66361   0.00000  Uiso   1.00
C890   C     0.71138   0.02463   0.65015   0.00000  Uiso   1.00
H891   H     0.72646   0.33213   0.33752   0.00000  Uiso   1.00
H892   H     0.73634   0.03180   0.62255   0.00000  Uiso   1.00
H893   H     0.67311   0.01547   0.63284   0.00000  Uiso   1.00
O894   O     0.90160   0.21425   0.61853   0.00000  Uiso   1.00
C895   C     0.93583   0.24458   0.64053   0.00000  Uiso   1.00
H896   H     0.95682   0.25832   0.61279   0.00000  Uiso   1.00
H897   H     0.96674   0.23161   0.66334   0.00000  Uiso   1.00
C898   C     0.91011   0.28057   0.66113   0.00000  Uiso   1.00
H899   H     0.89733   0.30066   0.63203   0.00000  Uiso   1.00
H900   H     0.87607   0.27019   0.34477   0.00000  Uiso   1.00
C901   C     0.94711   0.30574   0.36254   0.00000  Uiso   1.00
H902   H     0.93594   0.30284   0.39827   0.00000  Uiso   1.00
H903   H     0.94623   0.00517   0.35374   0.00000  Uiso   1.00
H904   H     0.98693   0.29624   0.36287   0.00000  Uiso   1.00
C905   C     0.74890   0.12962   0.61116   0.00000  Uiso   1.00
O906   O     0.70769   0.14341   0.61672   0.00000  Uiso   1.00
O907   O     0.75144   0.09686   0.58067   0.00000  Uiso   1.00
H908   H     0.71683   0.08757   0.56483   0.00000  Uiso   1.00
C909   C     0.91799   0.20123   0.38996   0.00000  Uiso   1.00
O910   O     0.91771   0.23034   0.41646   0.00000  Uiso   1.00
O911   O     0.96273   0.18067   0.38676   0.00000  Uiso   1.00
H912   H     0.99326   0.19482   0.40527   0.00000  Uiso   1.00
C913   C     0.16876   0.42092   0.49979   0.00000  Uiso   1.00
C914   C     0.16503   0.57912   0.50019   0.00000  Uiso   1.00
C915   C     0.06836   0.49854   0.48905   0.00000  Uiso   1.00
C916   C     0.26487   0.50138   0.51114   0.00000  Uiso   1.00
C917   C     0.01423   0.48895   0.48710   0.00000  Uiso   1.00
C918   C     0.31905   0.50976   0.51446   0.00000  Uiso   1.00
C919   C     0.18316   0.35346   0.46038   0.00000  Uiso   1.00
C920   C     0.15090   0.64663   0.53924   0.00000  Uiso   1.00
C921   C     0.17895   0.64437   0.46167   0.00000  Uiso   1.00
C922   C     0.15601   0.35565   0.53839   0.00000  Uiso   1.00
C923   C     0.16390   0.62385   0.50062   0.00000  Uiso   1.00
C924   C     0.17067   0.37624   0.49930   0.00000  Uiso   1.00
C925   C     0.12946   0.47855   0.35482   0.00000  Uiso   1.00
C926   C     0.20314   0.52306   0.64417   0.00000  Uiso   1.00
C927   C     0.12842   0.47998   0.63867   0.00000  Uiso   1.00
C928   C     0.20492   0.52067   0.36120   0.00000  Uiso   1.00
Cu929  Cu    0.16667   0.50001   0.54689   0.00000  Uiso   1.00
Cu930  Cu    0.16667   0.49999   0.45311   0.00000  Uiso   1.00
H931   H     0.18891   0.62708   0.43210   0.00000  Uiso   1.00
H932   H     0.14595   0.37278   0.56801   0.00000  Uiso   1.00
N933   N     0.16668   0.50001   0.61736   0.00000  Uiso   1.00
N934   N     0.16665   0.49999   0.38264   0.00000  Uiso   1.00
O935   O     0.16666   0.43989   0.53958   0.00000  Uiso   1.00
O936   O     0.16667   0.56011   0.46042   0.00000  Uiso   1.00
O937   O     0.16666   0.43988   0.46039   0.00000  Uiso   1.00
O938   O     0.16667   0.56012   0.53961   0.00000  Uiso   1.00
O939   O     0.09161   0.50000   0.53046   0.00000  Uiso   1.00
O940   O     0.24172   0.50000   0.46954   0.00000  Uiso   1.00
O941   O     0.09161   0.49999   0.45127   0.00000  Uiso   1.00
O942   O     0.24172   0.50001   0.54873   0.00000  Uiso   1.00
C943   C     0.32994   0.44847   0.46756   0.00000  Uiso   1.00
O944   O     0.00220   0.44023   0.42734   0.00000  Uiso   1.00
O945   O     0.30907   0.41927   0.49600   0.00000  Uiso   1.00
H946   H     0.30420   0.39125   0.48075   0.00000  Uiso   1.00
C947   C     0.00362   0.54883   0.53711   0.00000  Uiso   1.00
O948   O     0.01807   0.54975   0.57850   0.00000  Uiso   1.00
O949   O     0.00155   0.58468   0.51140   0.00000  Uiso   1.00
H950   H     0.01137   0.61001   0.53116   0.00000  Uiso   1.00
C951   C     0.20113   0.37150   0.41766   0.00000  Uiso   1.00
O952   O     0.23134   0.40091   0.41977   0.00000  Uiso   1.00
O953   O     0.18449   0.35353   0.37456   0.00000  Uiso   1.00
H954   H     0.19865   0.36859   0.34787   0.00000  Uiso   1.00
C955   C     0.12917   0.62839   0.58008   0.00000  Uiso   1.00
O956   O     0.09972   0.59866   0.57544   0.00000  Uiso   1.00
O957   O     0.14029   0.64655   0.62387   0.00000  Uiso   1.00
H958   H     0.12595   0.62973   0.64916   0.00000  Uiso   1.00
O959   O     0.09151   0.45641   0.37516   0.00000  Uiso   1.00
C960   C     0.09409   0.41382   0.36651   0.00000  Uiso   1.00
H961   H     0.10625   0.39907   0.39979   0.00000  Uiso   1.00
H962   H     0.12234   0.40630   0.34195   0.00000  Uiso   1.00
C963   C     0.04123   0.39468   0.34886   0.00000  Uiso   1.00
H964   H     0.02132   0.38395   0.37877   0.00000  Uiso   1.00
H965   H     0.01724   0.41737   0.66361   0.00000  Uiso   1.00
C966   C     0.04471   0.35797   0.65015   0.00000  Uiso   1.00
H967   H     0.05979   0.66547   0.33752   0.00000  Uiso   1.00
H968   H     0.06967   0.36513   0.62255   0.00000  Uiso   1.00
H969   H     0.00644   0.34880   0.63284   0.00000  Uiso   1.00
O970   O     0.23493   0.54758   0.61853   0.00000  Uiso   1.00
C971   C     0.26916   0.57791   0.64053   0.00000  Uiso   1.00
H972   H     0.29016   0.59165   0.61279   0.00000  Uiso   1.00
H973   H     0.30008   0.56494   0.66334   0.00000  Uiso   1.00
C974   C     0.24345   0.61391   0.66113   0.00000  Uiso   1.00
H975   H     0.23066   0.63399   0.63203   0.00000  Uiso   1.00
H976   H     0.20940   0.60352   0.34477   0.00000  Uiso   1.00
C977   C     0.28045   0.63907   0.36254   0.00000  Uiso   1.00
H978   H     0.26927   0.63617   0.39827   0.00000  Uiso   1.00
H979   H     0.27957   0.33851   0.35374   0.00000  Uiso   1.00
H980   H     0.32026   0.62957   0.36287   0.00000  Uiso   1.00
C981   C     0.08223   0.46295   0.61116   0.00000  Uiso   1.00
O982   O     0.04102   0.47674   0.61672   0.00000  Uiso   1.00
O983   O     0.08477   0.43020   0.58067   0.00000  Uiso   1.00
H984   H     0.05016   0.42090   0.56483   0.00000  Uiso   1.00
C985   C     0.25133   0.53456   0.38996   0.00000  Uiso   1.00
O986   O     0.25105   0.56368   0.41646   0.00000  Uiso   1.00
O987   O     0.29607   0.51400   0.38676   0.00000  Uiso   1.00
H988   H     0.32659   0.52816   0.40527   0.00000  Uiso   1.00
C989   C     0.50209   0.42092   0.49979   0.00000  Uiso   1.00
C990   C     0.49836   0.57912   0.50019   0.00000  Uiso   1.00
C991   C     0.40169   0.49854   0.48905   0.00000  Uiso   1.00
C992   C     0.59820   0.50138   0.51114   0.00000  Uiso   1.00
C993   C     0.34756   0.48895   0.48710   0.00000  Uiso   1.00
C994   C     0.65238   0.50976   0.51446   0.00000  Uiso   1.00
C995   C     0.51649   0.35346   0.46038   0.00000  Uiso   1.00
C996   C     0.48424   0.64663   0.53924   0.00000  Uiso   1.00
C997   C     0.51229   0.64437   0.46167   0.00000  Uiso   1.00
C998   C     0.48934   0.35565   0.53839   0.00000  Uiso   1.00
C999   C     0.49723   0.62385   0.50062   0.00000  Uiso   1.00
C1000  C     0.50400   0.37624   0.49930   0.00000  Uiso   1.00
C1001  C     0.46280   0.47855   0.35482   0.00000  Uiso   1.00
C1002  C     0.53647   0.52306   0.64417   0.00000  Uiso   1.00
C1003  C     0.46176   0.47998   0.63867   0.00000  Uiso   1.00
C1004  C     0.53825   0.52067   0.36120   0.00000  Uiso   1.00
Cu1005 Cu    0.50000   0.50001   0.54689   0.00000  Uiso   1.00
Cu1006 Cu    0.50000   0.49999   0.45311   0.00000  Uiso   1.00
H1007  H     0.52225   0.62708   0.43210   0.00000  Uiso   1.00
H1008  H     0.47929   0.37278   0.56801   0.00000  Uiso   1.00
N1009  N     0.50001   0.50001   0.61736   0.00000  Uiso   1.00
N1010  N     0.49999   0.49999   0.38264   0.00000  Uiso   1.00
O1011  O     0.50000   0.43989   0.53958   0.00000  Uiso   1.00
O1012  O     0.50000   0.56011   0.46042   0.00000  Uiso   1.00
O1013  O     0.50000   0.43988   0.46039   0.00000  Uiso   1.00
O1014  O     0.50000   0.56012   0.53961   0.00000  Uiso   1.00
O1015  O     0.42495   0.50000   0.53046   0.00000  Uiso   1.00
O1016  O     0.57505   0.50000   0.46954   0.00000  Uiso   1.00
O1017  O     0.42494   0.49999   0.45127   0.00000  Uiso   1.00
O1018  O     0.57506   0.50001   0.54873   0.00000  Uiso   1.00
C1019  C     0.66328   0.44847   0.46756   0.00000  Uiso   1.00
O1020  O     0.33553   0.44023   0.42734   0.00000  Uiso   1.00
O1021  O     0.64240   0.41927   0.49600   0.00000  Uiso   1.00
H1022  H     0.63754   0.39125   0.48075   0.00000  Uiso   1.00
C1023  C     0.33696   0.54883   0.53711   0.00000  Uiso   1.00
O1024  O     0.35140   0.54975   0.57850   0.00000  Uiso   1.00
O1025  O     0.33489   0.58468   0.51140   0.00000  Uiso   1.00
H1026  H     0.34470   0.61001   0.53116   0.00000  Uiso   1.00
C1027  C     0.53446   0.37150   0.41766   0.00000  Uiso   1.00
O1028  O     0.56467   0.40091   0.41977   0.00000  Uiso   1.00
O1029  O     0.51782   0.35353   0.37456   0.00000  Uiso   1.00
H1030  H     0.53199   0.36859   0.34787   0.00000  Uiso   1.00
C1031  C     0.46250   0.62839   0.58008   0.00000  Uiso   1.00
O1032  O     0.43305   0.59866   0.57544   0.00000  Uiso   1.00
O1033  O     0.47362   0.64655   0.62387   0.00000  Uiso   1.00
H1034  H     0.45928   0.62973   0.64916   0.00000  Uiso   1.00
O1035  O     0.42484   0.45641   0.37516   0.00000  Uiso   1.00
C1036  C     0.42742   0.41382   0.36651   0.00000  Uiso   1.00
H1037  H     0.43959   0.39907   0.39979   0.00000  Uiso   1.00
H1038  H     0.45567   0.40630   0.34195   0.00000  Uiso   1.00
C1039  C     0.37457   0.39468   0.34886   0.00000  Uiso   1.00
H1040  H     0.35465   0.38395   0.37877   0.00000  Uiso   1.00
H1041  H     0.35057   0.41737   0.66361   0.00000  Uiso   1.00
C1042  C     0.37805   0.35797   0.65015   0.00000  Uiso   1.00
H1043  H     0.39312   0.66547   0.33752   0.00000  Uiso   1.00
H1044  H     0.40301   0.36513   0.62255   0.00000  Uiso   1.00
H1045  H     0.33977   0.34880   0.63284   0.00000  Uiso   1.00
O1046  O     0.56826   0.54758   0.61853   0.00000  Uiso   1.00
C1047  C     0.60249   0.57791   0.64053   0.00000  Uiso   1.00
H1048  H     0.62349   0.59165   0.61279   0.00000  Uiso   1.00
H1049  H     0.63341   0.56494   0.66334   0.00000  Uiso   1.00
C1050  C     0.57678   0.61391   0.66113   0.00000  Uiso   1.00
H1051  H     0.56400   0.63399   0.63203   0.00000  Uiso   1.00
H1052  H     0.54274   0.60352   0.34477   0.00000  Uiso   1.00
C1053  C     0.61378   0.63907   0.36254   0.00000  Uiso   1.00
H1054  H     0.60261   0.63617   0.39827   0.00000  Uiso   1.00
H1055  H     0.61290   0.33851   0.35374   0.00000  Uiso   1.00
H1056  H     0.65360   0.62957   0.36287   0.00000  Uiso   1.00
C1057  C     0.41556   0.46295   0.61116   0.00000  Uiso   1.00
O1058  O     0.37435   0.47674   0.61672   0.00000  Uiso   1.00
O1059  O     0.41811   0.43020   0.58067   0.00000  Uiso   1.00
H1060  H     0.38350   0.42090   0.56483   0.00000  Uiso   1.00
C1061  C     0.58466   0.53456   0.38996   0.00000  Uiso   1.00
O1062  O     0.58438   0.56368   0.41646   0.00000  Uiso   1.00
O1063  O     0.62940   0.51400   0.38676   0.00000  Uiso   1.00
H1064  H     0.65993   0.52816   0.40527   0.00000  Uiso   1.00
C1065  C     0.83543   0.42092   0.49979   0.00000  Uiso   1.00
C1066  C     0.83170   0.57912   0.50019   0.00000  Uiso   1.00
C1067  C     0.73502   0.49854   0.48905   0.00000  Uiso   1.00
C1068  C     0.93153   0.50138   0.51114   0.00000  Uiso   1.00
C1069  C     0.68090   0.48895   0.48710   0.00000  Uiso   1.00
C1070  C     0.98572   0.50976   0.51446   0.00000  Uiso   1.00
C1071  C     0.84983   0.35346   0.46038   0.00000  Uiso   1.00
C1072  C     0.81757   0.64663   0.53924   0.00000  Uiso   1.00
C1073  C     0.84562   0.64437   0.46167   0.00000  Uiso   1.00
C1074  C     0.82267   0.35565   0.53839   0.00000  Uiso   1.00
C1075  C     0.83057   0.62385   0.50062   0.00000  Uiso   1.00
C1076  C     0.83733   0.37624   0.49930   0.00000  Uiso   1.00
C1077  C     0.79613   0.47855   0.35482   0.00000  Uiso   1.00
C1078  C     0.86980   0.52306   0.64417   0.00000  Uiso   1.00
C1079  C     0.79509   0.47998   0.63867   0.00000  Uiso   1.00
C1080  C     0.87159   0.52067   0.36120   0.00000  Uiso   1.00
Cu1081 Cu    0.83333   0.50001   0.54689   0.00000  Uiso   1.00
Cu1082 Cu    0.83333   0.49999   0.45311   0.00000  Uiso   1.00
H1083  H     0.85558   0.62708   0.43210   0.00000  Uiso   1.00
H1084  H     0.81262   0.37278   0.56801   0.00000  Uiso   1.00
N1085  N     0.83335   0.50001   0.61736   0.00000  Uiso   1.00
N1086  N     0.83332   0.49999   0.38264   0.00000  Uiso   1.00
O1087  O     0.83333   0.43989   0.53958   0.00000  Uiso   1.00
O1088  O     0.83334   0.56011   0.46042   0.00000  Uiso   1.00
O1089  O     0.83333   0.43988   0.46039   0.00000  Uiso   1.00
O1090  O     0.83334   0.56012   0.53961   0.00000  Uiso   1.00
O1091  O     0.75828   0.50000   0.53046   0.00000  Uiso   1.00
O1092  O     0.90839   0.50000   0.46954   0.00000  Uiso   1.00
O1093  O     0.75828   0.49999   0.45127   0.00000  Uiso   1.00
O1094  O     0.90839   0.50001   0.54873   0.00000  Uiso   1.00
C1095  C     0.99661   0.44847   0.46756   0.00000  Uiso   1.00
O1096  O     0.66886   0.44023   0.42734   0.00000  Uiso   1.00
O1097  O     0.97573   0.41927   0.49600   0.00000  Uiso   1.00
H1098  H     0.97087   0.39125   0.48075   0.00000  Uiso   1.00
C1099  C     0.67029   0.54883   0.53711   0.00000  Uiso   1.00
O1100  O     0.68473   0.54975   0.57850   0.00000  Uiso   1.00
O1101  O     0.66822   0.58468   0.51140   0.00000  Uiso   1.00
H1102  H     0.67804   0.61001   0.53116   0.00000  Uiso   1.00
C1103  C     0.86779   0.37150   0.41766   0.00000  Uiso   1.00
O1104  O     0.89801   0.40091   0.41977   0.00000  Uiso   1.00
O1105  O     0.85115   0.35353   0.37456   0.00000  Uiso   1.00
H1106  H     0.86532   0.36859   0.34787   0.00000  Uiso   1.00
C1107  C     0.79584   0.62839   0.58008   0.00000  Uiso   1.00
O1108  O     0.76638   0.59866   0.57544   0.00000  Uiso   1.00
O1109  O     0.80696   0.64655   0.62387   0.00000  Uiso   1.00
H1110  H     0.79261   0.62973   0.64916   0.00000  Uiso   1.00
O1111  O     0.75818   0.45641   0.37516   0.00000  Uiso   1.00
C1112  C     0.76076   0.41382   0.36651   0.00000  Uiso   1.00
H1113  H     0.77292   0.39907   0.39979   0.00000  Uiso   1.00
H1114  H     0.78900   0.40630   0.34195   0.00000  Uiso   1.00
C1115  C     0.70790   0.39468   0.34886   0.00000  Uiso   1.00
H1116  H     0.68799   0.38395   0.37877   0.00000  Uiso   1.00
H1117  H     0.68391   0.41737   0.66361   0.00000  Uiso   1.00
C1118  C     0.71138   0.35797   0.65015   0.00000  Uiso   1.00
H1119  H     0.72646   0.66547   0.33752   0.00000  Uiso   1.00
H1120  H     0.73634   0.36513   0.62255   0.00000  Uiso   1.00
H1121  H     0.67311   0.34880   0.63284   0.00000  Uiso   1.00
O1122  O     0.90160   0.54758   0.61853   0.00000  Uiso   1.00
C1123  C     0.93583   0.57791   0.64053   0.00000  Uiso   1.00
H1124  H     0.95682   0.59165   0.61279   0.00000  Uiso   1.00
H1125  H     0.96674   0.56494   0.66334   0.00000  Uiso   1.00
C1126  C     0.91011   0.61391   0.66113   0.00000  Uiso   1.00
H1127  H     0.89733   0.63399   0.63203   0.00000  Uiso   1.00
H1128  H     0.87607   0.60352   0.34477   0.00000  Uiso   1.00
C1129  C     0.94711   0.63907   0.36254   0.00000  Uiso   1.00
H1130  H     0.93594   0.63617   0.39827   0.00000  Uiso   1.00
H1131  H     0.94623   0.33851   0.35374   0.00000  Uiso   1.00
H1132  H     0.98693   0.62957   0.36287   0.00000  Uiso   1.00
C1133  C     0.74890   0.46295   0.61116   0.00000  Uiso   1.00
O1134  O     0.70769   0.47674   0.61672   0.00000  Uiso   1.00
O1135  O     0.75144   0.43020   0.58067   0.00000  Uiso   1.00
H1136  H     0.71683   0.42090   0.56483   0.00000  Uiso   1.00
C1137  C     0.91799   0.53456   0.38996   0.00000  Uiso   1.00
O1138  O     0.91771   0.56368   0.41646   0.00000  Uiso   1.00
O1139  O     0.96273   0.51400   0.38676   0.00000  Uiso   1.00
H1140  H     0.99326   0.52816   0.40527   0.00000  Uiso   1.00
C1141  C     0.16876   0.75425   0.49979   0.00000  Uiso   1.00
C1142  C     0.16503   0.91245   0.50019   0.00000  Uiso   1.00
C1143  C     0.06836   0.83187   0.48905   0.00000  Uiso   1.00
C1144  C     0.26487   0.83472   0.51114   0.00000  Uiso   1.00
C1145  C     0.01423   0.82229   0.48710   0.00000  Uiso   1.00
C1146  C     0.31905   0.84309   0.51446   0.00000  Uiso   1.00
C1147  C     0.18316   0.68679   0.46038   0.00000  Uiso   1.00
C1148  C     0.15090   0.97997   0.53924   0.00000  Uiso   1.00
C1149  C     0.17895   0.97770   0.46167   0.00000  Uiso   1.00
C1150  C     0.15601   0.68899   0.53839   0.00000  Uiso   1.00
C1151  C     0.16390   0.95718   0.50062   0.00000  Uiso   1.00
C1152  C     0.17067   0.70958   0.49930   0.00000  Uiso   1.00
C1153  C     0.12946   0.81188   0.35482   0.00000  Uiso   1.00
C1154  C     0.20314   0.85639   0.64417   0.00000  Uiso   1.00
C1155  C     0.12842   0.81331   0.63867   0.00000  Uiso   1.00
C1156  C     0.20492   0.85400   0.36120   0.00000  Uiso   1.00
Cu1157 Cu    0.16667   0.83334   0.54689   0.00000  Uiso   1.00
Cu1158 Cu    0.16667   0.83333   0.45311   0.00000  Uiso   1.00
H1159  H     0.18891   0.96041   0.43210   0.00000  Uiso   1.00
H1160  H     0.14595   0.70611   0.56801   0.00000  Uiso   1.00
N1161  N     0.16668   0.83334   0.61736   0.00000  Uiso   1.00
N1162  N     0.16665   0.83332   0.38264   0.00000  Uiso   1.00
O1163  O     0.16666   0.77322   0.53958   0.00000  Uiso   1.00
O1164  O     0.16667   0.89345   0.46042   0.00000  Uiso   1.00
O1165  O     0.16666   0.77321   0.46039   0.00000  Uiso   1.00
O1166  O     0.16667   0.89346   0.53961   0.00000  Uiso   1.00
O1167  O     0.09161   0.83334   0.53046   0.00000  Uiso   1.00
O1168  O     0.24172   0.83333   0.46954   0.00000  Uiso   1.00
O1169  O     0.09161   0.83333   0.45127   0.00000  Uiso   1.00
O1170  O     0.24172   0.83334   0.54873   0.00000  Uiso   1.00
C1171  C     0.32994   0.78180   0.46756   0.00000  Uiso   1.00
O1172  O     0.00220   0.77356   0.42734   0.00000  Uiso   1.00
O1173  O     0.30907   0.75260   0.49600   0.00000  Uiso   1.00
H1174  H     0.30420   0.72459   0.48075   0.00000  Uiso   1.00
C1175  C     0.00362   0.88216   0.53711   0.00000  Uiso   1.00
O1176  O     0.01807   0.88308   0.57850   0.00000  Uiso   1.00
O1177  O     0.00155   0.91801   0.51140   0.00000  Uiso   1.00
H1178  H     0.01137   0.94334   0.53116   0.00000  Uiso   1.00
C1179  C     0.20113   0.70483   0.41766   0.00000  Uiso   1.00
O1180  O     0.23134   0.73424   0.41977   0.00000  Uiso   1.00
O1181  O     0.18449   0.68687   0.37456   0.00000  Uiso   1.00
H1182  H     0.19865   0.70192   0.34787   0.00000  Uiso   1.00
C1183  C     0.12917   0.96173   0.58008   0.00000  Uiso   1.00
O1184  O     0.09972   0.93199   0.57544   0.00000  Uiso   1.00
O1185  O     0.14029   0.97988   0.62387   0.00000  Uiso   1.00
H1186  H     0.12595   0.96306   0.64916   0.00000  Uiso   1.00
O1187  O     0.09151   0.78974   0.37516   0.00000  Uiso   1.00
C1188  C     0.09409   0.74715   0.36651   0.00000  Uiso   1.00
H1189  H     0.10625   0.73240   0.39979   0.00000  Uiso   1.00
H1190  H     0.12234   0.73963   0.34195   0.00000  Uiso   1.00
C1191  C     0.04123   0.72802   0.34886   0.00000  Uiso   1.00
H1192  H     0.02132   0.71728   0.37877   0.00000  Uiso   1.00
H1193  H     0.01724   0.75070   0.66361   0.00000  Uiso   1.00
C1194  C     0.04471   0.69130   0.65015   0.00000  Uiso   1.00
H1195  H     0.05979   0.99880   0.33752   0.00000  Uiso   1.00
H1196  H     0.06967   0.69847   0.62255   0.00000  Uiso   1.00
H1197  H     0.00644   0.68213   0.63284   0.00000  Uiso   1.00
O1198  O     0.23493   0.88092   0.61853   0.00000  Uiso   1.00
C1199  C     0.26916   0.91125   0.64053   0.00000  Uiso   1.00
H1200  H     0.29016   0.92498   0.61279   0.00000  Uiso   1.00
H1201  H     0.30008   0.89828   0.66334   0.00000  Uiso   1.00
C1202  C     0.24345   0.94724   0.66113   0.00000  Uiso   1.00
H1203  H     0.23066   0.96733   0.63203   0.00000  Uiso   1.00
H1204  H     0.20940   0.93685   0.34477   0.00000  Uiso   1.00
C1205  C     0.28045   0.97240   0.36254   0.00000  Uiso   1.00
H1206  H     0.26927   0.96950   0.39827   0.00000  Uiso   1.00
H1207  H     0.27957   0.67184   0.35374   0.00000  Uiso   1.00
H1208  H     0.32026   0.96290   0.36287   0.00000  Uiso   1.00
C1209  C     0.08223   0.79629   0.61116   0.00000  Uiso   1.00
O1210  O     0.04102   0.81008   0.61672   0.00000  Uiso   1.00
O1211  O     0.08477   0.76353   0.58067   0.00000  Uiso   1.00
H1212  H     0.05016   0.75423   0.56483   0.00000  Uiso   1.00
C1213  C     0.25133   0.86790   0.38996   0.00000  Uiso   1.00
O1214  O     0.25105   0.89701   0.41646   0.00000  Uiso   1.00
O1215  O     0.29607   0.84733   0.38676   0.00000  Uiso   1.00
H1216  H     0.32659   0.86149   0.40527   0.00000  Uiso   1.00
C1217  C     0.50209   0.75425   0.49979   0.00000  Uiso   1.00
C1218  C     0.49836   0.91245   0.50019   0.00000  Uiso   1.00
C1219  C     0.40169   0.83187   0.48905   0.00000  Uiso   1.00
C1220  C     0.59820   0.83472   0.51114   0.00000  Uiso   1.00
C1221  C     0.34756   0.82229   0.48710   0.00000  Uiso   1.00
C1222  C     0.65238   0.84309   0.51446   0.00000  Uiso   1.00
C1223  C     0.51649   0.68679   0.46038   0.00000  Uiso   1.00
C1224  C     0.48424   0.97997   0.53924   0.00000  Uiso   1.00
C1225  C     0.51229   0.97770   0.46167   0.00000  Uiso   1.00
C1226  C     0.48934   0.68899   0.53839   0.00000  Uiso   1.00
C1227  C     0.49723   0.95718   0.50062   0.00000  Uiso   1.00
C1228  C     0.50400   0.70958   0.49930   0.00000  Uiso   1.00
C1229  C     0.46280   0.81188   0.35482   0.00000  Uiso   1.00
C1230  C     0.53647   0.85639   0.64417   0.00000  Uiso   1.00
C1231  C     0.46176   0.81331   0.63867   0.00000  Uiso   1.00
C1232  C     0.53825   0.85400   0.36120   0.00000  Uiso   1.00
Cu1233 Cu    0.50000   0.83334   0.54689   0.00000  Uiso   1.00
Cu1234 Cu    0.50000   0.83333   0.45311   0.00000  Uiso   1.00
H1235  H     0.52225   0.96041   0.43210   0.00000  Uiso   1.00
H1236  H     0.47929   0.70611   0.56801   0.00000  Uiso   1.00
N1237  N     0.50001   0.83334   0.61736   0.00000  Uiso   1.00
N1238  N     0.49999   0.83332   0.38264   0.00000  Uiso   1.00
O1239  O     0.50000   0.77322   0.53958   0.00000  Uiso   1.00
O1240  O     0.50000   0.89345   0.46042   0.00000  Uiso   1.00
O1241  O     0.50000   0.77321   0.46039   0.00000  Uiso   1.00
O1242  O     0.50000   0.89346   0.53961   0.00000  Uiso   1.00
O1243  O     0.42495   0.83334   0.53046   0.00000  Uiso   1.00
O1244  O     0.57505   0.83333   0.46954   0.00000  Uiso   1.00
O1245  O     0.42494   0.83333   0.45127   0.00000  Uiso   1.00
O1246  O     0.57506   0.83334   0.54873   0.00000  Uiso   1.00
C1247  C     0.66328   0.78180   0.46756   0.00000  Uiso   1.00
O1248  O     0.33553   0.77356   0.42734   0.00000  Uiso   1.00
O1249  O     0.64240   0.75260   0.49600   0.00000  Uiso   1.00
H1250  H     0.63754   0.72459   0.48075   0.00000  Uiso   1.00
C1251  C     0.33696   0.88216   0.53711   0.00000  Uiso   1.00
O1252  O     0.35140   0.88308   0.57850   0.00000  Uiso   1.00
O1253  O     0.33489   0.91801   0.51140   0.00000  Uiso   1.00
H1254  H     0.34470   0.94334   0.53116   0.00000  Uiso   1.00
C1255  C     0.53446   0.70483   0.41766   0.00000  Uiso   1.00
O1256  O     0.56467   0.73424   0.41977   0.00000  Uiso   1.00
O1257  O     0.51782   0.68687   0.37456   0.00000  Uiso   1.00
H1258  H     0.53199   0.70192   0.34787   0.00000  Uiso   1.00
C1259  C     0.46250   0.96173   0.58008   0.00000  Uiso   1.00
O1260  O     0.43305   0.93199   0.57544   0.00000  Uiso   1.00
O1261  O     0.47362   0.97988   0.62387   0.00000  Uiso   1.00
H1262  H     0.45928   0.96306   0.64916   0.00000  Uiso   1.00
O1263  O     0.42484   0.78974   0.37516   0.00000  Uiso   1.00
C1264  C     0.42742   0.74715   0.36651   0.00000  Uiso   1.00
H1265  H     0.43959   0.73240   0.39979   0.00000  Uiso   1.00
H1266  H     0.45567   0.73963   0.34195   0.00000  Uiso   1.00
C1267  C     0.37457   0.72802   0.34886   0.00000  Uiso   1.00
H1268  H     0.35465   0.71728   0.37877   0.00000  Uiso   1.00
H1269  H     0.35057   0.75070   0.66361   0.00000  Uiso   1.00
C1270  C     0.37805   0.69130   0.65015   0.00000  Uiso   1.00
H1271  H     0.39312   0.99880   0.33752   0.00000  Uiso   1.00
H1272  H     0.40301   0.69847   0.62255   0.00000  Uiso   1.00
H1273  H     0.33977   0.68213   0.63284   0.00000  Uiso   1.00
O1274  O     0.56826   0.88092   0.61853   0.00000  Uiso   1.00
C1275  C     0.60249   0.91125   0.64053   0.00000  Uiso   1.00
H1276  H     0.62349   0.92498   0.61279   0.00000  Uiso   1.00
H1277  H     0.63341   0.89828   0.66334   0.00000  Uiso   1.00
C1278  C     0.57678   0.94724   0.66113   0.00000  Uiso   1.00
H1279  H     0.56400   0.96733   0.63203   0.00000  Uiso   1.00
H1280  H     0.54274   0.93685   0.34477   0.00000  Uiso   1.00
C1281  C     0.61378   0.97240   0.36254   0.00000  Uiso   1.00
H1282  H     0.60261   0.96950   0.39827   0.00000  Uiso   1.00
H1283  H     0.61290   0.67184   0.35374   0.00000  Uiso   1.00
H1284  H     0.65360   0.96290   0.36287   0.00000  Uiso   1.00
C1285  C     0.41556   0.79629   0.61116   0.00000  Uiso   1.00
O1286  O     0.37435   0.81008   0.61672   0.00000  Uiso   1.00
O1287  O     0.41811   0.76353   0.58067   0.00000  Uiso   1.00
H1288  H     0.38350   0.75423   0.56483   0.00000  Uiso   1.00
C1289  C     0.58466   0.86790   0.38996   0.00000  Uiso   1.00
O1290  O     0.58438   0.89701   0.41646   0.00000  Uiso   1.00
O1291  O     0.62940   0.84733   0.38676   0.00000  Uiso   1.00
H1292  H     0.65993   0.86149   0.40527   0.00000  Uiso   1.00
C1293  C     0.83543   0.75425   0.49979   0.00000  Uiso   1.00
C1294  C     0.83170   0.91245   0.50019   0.00000  Uiso   1.00
C1295  C     0.73502   0.83187   0.48905   0.00000  Uiso   1.00
C1296  C     0.93153   0.83472   0.51114   0.00000  Uiso   1.00
C1297  C     0.68090   0.82229   0.48710   0.00000  Uiso   1.00
C1298  C     0.98572   0.84309   0.51446   0.00000  Uiso   1.00
C1299  C     0.84983   0.68679   0.46038   0.00000  Uiso   1.00
C1300  C     0.81757   0.97997   0.53924   0.00000  Uiso   1.00
C1301  C     0.84562   0.97770   0.46167   0.00000  Uiso   1.00
C1302  C     0.82267   0.68899   0.53839   0.00000  Uiso   1.00
C1303  C     0.83057   0.95718   0.50062   0.00000  Uiso   1.00
C1304  C     0.83733   0.70958   0.49930   0.00000  Uiso   1.00
C1305  C     0.79613   0.81188   0.35482   0.00000  Uiso   1.00
C1306  C     0.86980   0.85639   0.64417   0.00000  Uiso   1.00
C1307  C     0.79509   0.81331   0.63867   0.00000  Uiso   1.00
C1308  C     0.87159   0.85400   0.36120   0.00000  Uiso   1.00
Cu1309 Cu    0.83333   0.83334   0.54689   0.00000  Uiso   1.00
Cu1310 Cu    0.83333   0.83333   0.45311   0.00000  Uiso   1.00
H1311  H     0.85558   0.96041   0.43210   0.00000  Uiso   1.00
H1312  H     0.81262   0.70611   0.56801   0.00000  Uiso   1.00
N1313  N     0.83335   0.83334   0.61736   0.00000  Uiso   1.00
N1314  N     0.83332   0.83332   0.38264   0.00000  Uiso   1.00
O1315  O     0.83333   0.77322   0.53958   0.00000  Uiso   1.00
O1316  O     0.83334   0.89345   0.46042   0.00000  Uiso   1.00
O1317  O     0.83333   0.77321   0.46039   0.00000  Uiso   1.00
O1318  O     0.83334   0.89346   0.53961   0.00000  Uiso   1.00
O1319  O     0.75828   0.83334   0.53046   0.00000  Uiso   1.00
O1320  O     0.90839   0.83333   0.46954   0.00000  Uiso   1.00
O1321  O     0.75828   0.83333   0.45127   0.00000  Uiso   1.00
O1322  O     0.90839   0.83334   0.54873   0.00000  Uiso   1.00
C1323  C     0.99661   0.78180   0.46756   0.00000  Uiso   1.00
O1324  O     0.66886   0.77356   0.42734   0.00000  Uiso   1.00
O1325  O     0.97573   0.75260   0.49600   0.00000  Uiso   1.00
H1326  H     0.97087   0.72459   0.48075   0.00000  Uiso   1.00
C1327  C     0.67029   0.88216   0.53711   0.00000  Uiso   1.00
O1328  O     0.68473   0.88308   0.57850   0.00000  Uiso   1.00
O1329  O     0.66822   0.91801   0.51140   0.00000  Uiso   1.00
H1330  H     0.67804   0.94334   0.53116   0.00000  Uiso   1.00
C1331  C     0.86779   0.70483   0.41766   0.00000  Uiso   1.00
O1332  O     0.89801   0.73424   0.41977   0.00000  Uiso   1.00
O1333  O     0.85115   0.68687   0.37456   0.00000  Uiso   1.00
H1334  H     0.86532   0.70192   0.34787   0.00000  Uiso   1.00
C1335  C     0.79584   0.96173   0.58008   0.00000  Uiso   1.00
O1336  O     0.76638   0.93199   0.57544   0.00000  Uiso   1.00
O1337  O     0.80696   0.97988   0.62387   0.00000  Uiso   1.00
H1338  H     0.79261   0.96306   0.64916   0.00000  Uiso   1.00
O1339  O     0.75818   0.78974   0.37516   0.00000  Uiso   1.00
C1340  C     0.76076   0.74715   0.36651   0.00000  Uiso   1.00
H1341  H     0.77292   0.73240   0.39979   0.00000  Uiso   1.00
H1342  H     0.78900   0.73963   0.34195   0.00000  Uiso   1.00
C1343  C     0.70790   0.72802   0.34886   0.00000  Uiso   1.00
H1344  H     0.68799   0.71728   0.37877   0.00000  Uiso   1.00
H1345  H     0.68391   0.75070   0.66361   0.00000  Uiso   1.00
C1346  C     0.71138   0.69130   0.65015   0.00000  Uiso   1.00
H1347  H     0.72646   0.99880   0.33752   0.00000  Uiso   1.00
H1348  H     0.73634   0.69847   0.62255   0.00000  Uiso   1.00
H1349  H     0.67311   0.68213   0.63284   0.00000  Uiso   1.00
O1350  O     0.90160   0.88092   0.61853   0.00000  Uiso   1.00
C1351  C     0.93583   0.91125   0.64053   0.00000  Uiso   1.00
H1352  H     0.95682   0.92498   0.61279   0.00000  Uiso   1.00
H1353  H     0.96674   0.89828   0.66334   0.00000  Uiso   1.00
C1354  C     0.91011   0.94724   0.66113   0.00000  Uiso   1.00
H1355  H     0.89733   0.96733   0.63203   0.00000  Uiso   1.00
H1356  H     0.87607   0.93685   0.34477   0.00000  Uiso   1.00
C1357  C     0.94711   0.97240   0.36254   0.00000  Uiso   1.00
H1358  H     0.93594   0.96950   0.39827   0.00000  Uiso   1.00
H1359  H     0.94623   0.67184   0.35374   0.00000  Uiso   1.00
H1360  H     0.98693   0.96290   0.36287   0.00000  Uiso   1.00
C1361  C     0.74890   0.79629   0.61116   0.00000  Uiso   1.00
O1362  O     0.70769   0.81008   0.61672   0.00000  Uiso   1.00
O1363  O     0.75144   0.76353   0.58067   0.00000  Uiso   1.00
H1364  H     0.71683   0.75423   0.56483   0.00000  Uiso   1.00
C1365  C     0.91799   0.86790   0.38996   0.00000  Uiso   1.00
O1366  O     0.91771   0.89701   0.41646   0.00000  Uiso   1.00
O1367  O     0.96273   0.84733   0.38676   0.00000  Uiso   1.00
H1368  H     0.99326   0.86149   0.40527   0.00000  Uiso   1.00
C1369  C     0.16876   0.08759   0.83313   0.00000  Uiso   1.00
C1370  C     0.16503   0.24579   0.83353   0.00000  Uiso   1.00
C1371  C     0.06836   0.16520   0.82238   0.00000  Uiso   1.00
C1372  C     0.26487   0.16805   0.84447   0.00000  Uiso   1.00
C1373  C     0.01423   0.15562   0.82044   0.00000  Uiso   1.00
C1374  C     0.31905   0.17643   0.84779   0.00000  Uiso   1.00
C1375  C     0.18316   0.02012   0.79371   0.00000  Uiso   1.00
C1376  C     0.15090   0.31330   0.87258   0.00000  Uiso   1.00
C1377  C     0.17895   0.31104   0.79500   0.00000  Uiso   1.00
C1378  C     0.15601   0.02232   0.87172   0.00000  Uiso   1.00
C1379  C     0.16390   0.29052   0.83395   0.00000  Uiso   1.00
C1380  C     0.17067   0.04291   0.83263   0.00000  Uiso   1.00
C1381  C     0.12946   0.14521   0.68816   0.00000  Uiso   1.00
C1382  C     0.20314   0.18972   0.97750   0.00000  Uiso   1.00
C1383  C     0.12842   0.14665   0.97200   0.00000  Uiso   1.00
C1384  C     0.20492   0.18734   0.69454   0.00000  Uiso   1.00
Cu1385 Cu    0.16667   0.16667   0.88022   0.00000  Uiso   1.00
Cu1386 Cu    0.16667   0.16666   0.78645   0.00000  Uiso   1.00
H1387  H     0.18891   0.29375   0.76543   0.00000  Uiso   1.00
H1388  H     0.14595   0.03945   0.90135   0.00000  Uiso   1.00
N1389  N     0.16668   0.16668   0.95069   0.00000  Uiso   1.00
N1390  N     0.16665   0.16666   0.71597   0.00000  Uiso   1.00
O1391  O     0.16666   0.10655   0.87291   0.00000  Uiso   1.00
O1392  O     0.16667   0.22678   0.79375   0.00000  Uiso   1.00
O1393  O     0.16666   0.10654   0.79372   0.00000  Uiso   1.00
O1394  O     0.16667   0.22679   0.87294   0.00000  Uiso   1.00
O1395  O     0.09161   0.16667   0.86379   0.00000  Uiso   1.00
O1396  O     0.24172   0.16666   0.80288   0.00000  Uiso   1.00
O1397  O     0.09161   0.16666   0.78460   0.00000  Uiso   1.00
O1398  O     0.24172   0.16667   0.88207   0.00000  Uiso   1.00
C1399  C     0.32994   0.11514   0.80089   0.00000  Uiso   1.00
O1400  O     0.00220   0.10689   0.76067   0.00000  Uiso   1.00
O1401  O     0.30907   0.08593   0.82933   0.00000  Uiso   1.00
H1402  H     0.30420   0.05792   0.81408   0.00000  Uiso   1.00
C1403  C     0.00362   0.21549   0.87045   0.00000  Uiso   1.00
O1404  O     0.01807   0.21642   0.91183   0.00000  Uiso   1.00
O1405  O     0.00155   0.25135   0.84473   0.00000  Uiso   1.00
H1406  H     0.01137   0.27667   0.86450   0.00000  Uiso   1.00
C1407  C     0.20113   0.03817   0.75099   0.00000  Uiso   1.00
O1408  O     0.23134   0.06758   0.75310   0.00000  Uiso   1.00
O1409  O     0.18449   0.02020   0.70789   0.00000  Uiso   1.00
H1410  H     0.19865   0.03526   0.68120   0.00000  Uiso   1.00
C1411  C     0.12917   0.29506   0.91342   0.00000  Uiso   1.00
O1412  O     0.09972   0.26532   0.90877   0.00000  Uiso   1.00
O1413  O     0.14029   0.31322   0.95721   0.00000  Uiso   1.00
H1414  H     0.12595   0.29639   0.98249   0.00000  Uiso   1.00
O1415  O     0.09151   0.12308   0.70849   0.00000  Uiso   1.00
C1416  C     0.09409   0.08048   0.69984   0.00000  Uiso   1.00
H1417  H     0.10625   0.06573   0.73313   0.00000  Uiso   1.00
H1418  H     0.12234   0.07296   0.67528   0.00000  Uiso   1.00
C1419  C     0.04123   0.06135   0.68220   0.00000  Uiso   1.00
H1420  H     0.02132   0.05062   0.71210   0.00000  Uiso   1.00
H1421  H     0.01724   0.08404   0.99695   0.00000  Uiso   1.00
C1422  C     0.04471   0.02463   0.98349   0.00000  Uiso   1.00
H1423  H     0.05979   0.33213   0.67085   0.00000  Uiso   1.00
H1424  H     0.06967   0.03180   0.95588   0.00000  Uiso   1.00
H1425  H     0.00644   0.01547   0.96618   0.00000  Uiso   1.00
O1426  O     0.23493   0.21425   0.95187   0.00000  Uiso   1.00
C1427  C     0.26916   0.24458   0.97386   0.00000  Uiso   1.00
H1428  H     0.29016   0.25832   0.94612   0.00000  Uiso   1.00
H1429  H     0.30008   0.23161   0.99667   0.00000  Uiso   1.00
C1430  C     0.24345   0.28057   0.99447   0.00000  Uiso   1.00
H1431  H     0.23066   0.30066   0.96536   0.00000  Uiso   1.00
H1432  H     0.20940   0.27019   0.67810   0.00000  Uiso   1.00
C1433  C     0.28045   0.30574   0.69587   0.00000  Uiso   1.00
H1434  H     0.26927   0.30284   0.73161   0.00000  Uiso   1.00
H1435  H     0.27957   0.00517   0.68707   0.00000  Uiso   1.00
H1436  H     0.32026   0.29624   0.69620   0.00000  Uiso   1.00
C1437  C     0.08223   0.12962   0.94449   0.00000  Uiso   1.00
O1438  O     0.04102   0.14341   0.95005   0.00000  Uiso   1.00
O1439  O     0.08477   0.09686   0.91401   0.00000  Uiso   1.00
H1440  H     0.05016   0.08757   0.89817   0.00000  Uiso   1.00
C1441  C     0.25133   0.20123   0.72329   0.00000  Uiso   1.00
O1442  O     0.25105   0.23034   0.74979   0.00000  Uiso   1.00
O1443  O     0.29607   0.18067   0.72009   0.00000  Uiso   1.00
H1444  H     0.32659   0.19482   0.73860   0.00000  Uiso   1.00
C1445  C     0.50209   0.08759   0.83313   0.00000  Uiso   1.00
C1446  C     0.49836   0.24579   0.83353   0.00000  Uiso   1.00
C1447  C     0.40169   0.16520   0.82238   0.00000  Uiso   1.00
C1448  C     0.59820   0.16805   0.84447   0.00000  Uiso   1.00
C1449  C     0.34756   0.15562   0.82044   0.00000  Uiso   1.00
C1450  C     0.65238   0.17643   0.84779   0.00000  Uiso   1.00
C1451  C     0.51649   0.02012   0.79371   0.00000  Uiso   1.00
C1452  C     0.48424   0.31330   0.87258   0.00000  Uiso   1.00
C1453  C     0.51229   0.31104   0.79500   0.00000  Uiso   1.00
C1454  C     0.48934   0.02232   0.87172   0.00000  Uiso   1.00
C1455  C     0.49723   0.29052   0.83395   0.00000  Uiso   1.00
C1456  C     0.50400   0.04291   0.83263   0.00000  Uiso   1.00
C1457  C     0.46280   0.14521   0.68816   0.00000  Uiso   1.00
C1458  C     0.53647   0.18972   0.97750   0.00000  Uiso   1.00
C1459  C     0.46176   0.14665   0.97200   0.00000  Uiso   1.00
C1460  C     0.53825   0.18734   0.69454   0.00000  Uiso   1.00
Cu1461 Cu    0.50000   0.16667   0.88022   0.00000  Uiso   1.00
Cu1462 Cu    0.50000   0.16666   0.78645   0.00000  Uiso   1.00
H1463  H     0.52225   0.29375   0.76543   0.00000  Uiso   1.00
H1464  H     0.47929   0.03945   0.90135   0.00000  Uiso   1.00
N1465  N     0.50001   0.16668   0.95069   0.00000  Uiso   1.00
N1466  N     0.49999   0.16666   0.71597   0.00000  Uiso   1.00
O1467  O     0.50000   0.10655   0.87291   0.00000  Uiso   1.00
O1468  O     0.50000   0.22678   0.79375   0.00000  Uiso   1.00
O1469  O     0.50000   0.10654   0.79372   0.00000  Uiso   1.00
O1470  O     0.50000   0.22679   0.87294   0.00000  Uiso   1.00
O1471  O     0.42495   0.16667   0.86379   0.00000  Uiso   1.00
O1472  O     0.57505   0.16666   0.80288   0.00000  Uiso   1.00
O1473  O     0.42494   0.16666   0.78460   0.00000  Uiso   1.00
O1474  O     0.57506   0.16667   0.88207   0.00000  Uiso   1.00
C1475  C     0.66328   0.11514   0.80089   0.00000  Uiso   1.00
O1476  O     0.33553   0.10689   0.76067   0.00000  Uiso   1.00
O1477  O     0.64240   0.08593   0.82933   0.00000  Uiso   1.00
H1478  H     0.63754   0.05792   0.81408   0.00000  Uiso   1.00
C1479  C     0.33696   0.21549   0.87045   0.00000  Uiso   1.00
O1480  O     0.35140   0.21642   0.91183   0.00000  Uiso   1.00
O1481  O     0.33489   0.25135   0.84473   0.00000  Uiso   1.00
H1482  H     0.34470   0.27667   0.86450   0.00000  Uiso   1.00
C1483  C     0.53446   0.03817   0.75099   0.00000  Uiso   1.00
O1484  O     0.56467   0.06758   0.75310   0.00000  Uiso   1.00
O1485  O     0.51782   0.02020   0.70789   0.00000  Uiso   1.00
H1486  H     0.53199   0.03526   0.68120   0.00000  Uiso   1.00
C1487  C     0.46250   0.29506   0.91342   0.00000  Uiso   1.00
O1488  O     0.43305   0.26532   0.90877   0.00000  Uiso   1.00
O1489  O     0.47362   0.31322   0.95721   0.00000  Uiso   1.00
H1490  H     0.45928   0.29639   0.98249   0.00000  Uiso   1.00
O1491  O     0.42484   0.12308   0.70849   0.00000  Uiso   1.00
C1492  C     0.42742   0.08048   0.69984   0.00000  Uiso   1.00
H1493  H     0.43959   0.06573   0.73313   0.00000  Uiso   1.00
H1494  H     0.45567   0.07296   0.67528   0.00000  Uiso   1.00
C1495  C     0.37457   0.06135   0.68220   0.00000  Uiso   1.00
H1496  H     0.35465   0.05062   0.71210   0.00000  Uiso   1.00
H1497  H     0.35057   0.08404   0.99695   0.00000  Uiso   1.00
C1498  C     0.37805   0.02463   0.98349   0.00000  Uiso   1.00
H1499  H     0.39312   0.33213   0.67085   0.00000  Uiso   1.00
H1500  H     0.40301   0.03180   0.95588   0.00000  Uiso   1.00
H1501  H     0.33977   0.01547   0.96618   0.00000  Uiso   1.00
O1502  O     0.56826   0.21425   0.95187   0.00000  Uiso   1.00
C1503  C     0.60249   0.24458   0.97386   0.00000  Uiso   1.00
H1504  H     0.62349   0.25832   0.94612   0.00000  Uiso   1.00
H1505  H     0.63341   0.23161   0.99667   0.00000  Uiso   1.00
C1506  C     0.57678   0.28057   0.99447   0.00000  Uiso   1.00
H1507  H     0.56400   0.30066   0.96536   0.00000  Uiso   1.00
H1508  H     0.54274   0.27019   0.67810   0.00000  Uiso   1.00
C1509  C     0.61378   0.30574   0.69587   0.00000  Uiso   1.00
H1510  H     0.60261   0.30284   0.73161   0.00000  Uiso   1.00
H1511  H     0.61290   0.00517   0.68707   0.00000  Uiso   1.00
H1512  H     0.65360   0.29624   0.69620   0.00000  Uiso   1.00
C1513  C     0.41556   0.12962   0.94449   0.00000  Uiso   1.00
O1514  O     0.37435   0.14341   0.95005   0.00000  Uiso   1.00
O1515  O     0.41811   0.09686   0.91401   0.00000  Uiso   1.00
H1516  H     0.38350   0.08757   0.89817   0.00000  Uiso   1.00
C1517  C     0.58466   0.20123   0.72329   0.00000  Uiso   1.00
O1518  O     0.58438   0.23034   0.74979   0.00000  Uiso   1.00
O1519  O     0.62940   0.18067   0.72009   0.00000  Uiso   1.00
H1520  H     0.65993   0.19482   0.73860   0.00000  Uiso   1.00
C1521  C     0.83543   0.08759   0.83313   0.00000  Uiso   1.00
C1522  C     0.83170   0.24579   0.83353   0.00000  Uiso   1.00
C1523  C     0.73502   0.16520   0.82238   0.00000  Uiso   1.00
C1524  C     0.93153   0.16805   0.84447   0.00000  Uiso   1.00
C1525  C     0.68090   0.15562   0.82044   0.00000  Uiso   1.00
C1526  C     0.98572   0.17643   0.84779   0.00000  Uiso   1.00
C1527  C     0.84983   0.02012   0.79371   0.00000  Uiso   1.00
C1528  C     0.81757   0.31330   0.87258   0.00000  Uiso   1.00
C1529  C     0.84562   0.31104   0.79500   0.00000  Uiso   1.00
C1530  C     0.82267   0.02232   0.87172   0.00000  Uiso   1.00
C1531  C     0.83057   0.29052   0.83395   0.00000  Uiso   1.00
C1532  C     0.83733   0.04291   0.83263   0.00000  Uiso   1.00
C1533  C     0.79613   0.14521   0.68816   0.00000  Uiso   1.00
C1534  C     0.86980   0.18972   0.97750   0.00000  Uiso   1.00
C1535  C     0.79509   0.14665   0.97200   0.00000  Uiso   1.00
C1536  C     0.87159   0.18734   0.69454   0.00000  Uiso   1.00
Cu1537 Cu    0.83333   0.16667   0.88022   0.00000  Uiso   1.00
Cu1538 Cu    0.83333   0.16666   0.78645   0.00000  Uiso   1.00
H1539  H     0.85558   0.29375   0.76543   0.00000  Uiso   1.00
H1540  H     0.81262   0.03945   0.90135   0.00000  Uiso   1.00
N1541  N     0.83335   0.16668   0.95069   0.00000  Uiso   1.00
N1542  N     0.83332   0.16666   0.71597   0.00000  Uiso   1.00
O1543  O     0.83333   0.10655   0.87291   0.00000  Uiso   1.00
O1544  O     0.83334   0.22678   0.79375   0.00000  Uiso   1.00
O1545  O     0.83333   0.10654   0.79372   0.00000  Uiso   1.00
O1546  O     0.83334   0.22679   0.87294   0.00000  Uiso   1.00
O1547  O     0.75828   0.16667   0.86379   0.00000  Uiso   1.00
O1548  O     0.90839   0.16666   0.80288   0.00000  Uiso   1.00
O1549  O     0.75828   0.16666   0.78460   0.00000  Uiso   1.00
O1550  O     0.90839   0.16667   0.88207   0.00000  Uiso   1.00
C1551  C     0.99661   0.11514   0.80089   0.00000  Uiso   1.00
O1552  O     0.66886   0.10689   0.76067   0.00000  Uiso   1.00
O1553  O     0.97573   0.08593   0.82933   0.00000  Uiso   1.00
H1554  H     0.97087   0.05792   0.81408   0.00000  Uiso   1.00
C1555  C     0.67029   0.21549   0.87045   0.00000  Uiso   1.00
O1556  O     0.68473   0.21642   0.91183   0.00000  Uiso   1.00
O1557  O     0.66822   0.25135   0.84473   0.00000  Uiso   1.00
H1558  H     0.67804   0.27667   0.86450   0.00000  Uiso   1.00
C1559  C     0.86779   0.03817   0.75099   0.00000  Uiso   1.00
O1560  O     0.89801   0.06758   0.75310   0.00000  Uiso   1.00
O1561  O     0.85115   0.02020   0.70789   0.00000  Uiso   1.00
H1562  H     0.86532   0.03526   0.68120   0.00000  Uiso   1.00
C1563  C     0.79584   0.29506   0.91342   0.00000  Uiso   1.00
O1564  O     0.76638   0.26532   0.90877   0.00000  Uiso   1.00
O1565  O     0.80696   0.31322   0.95721   0.00000  Uiso   1.00
H1566  H     0.79261   0.29639   0.98249   0.00000  Uiso   1.00
O1567  O     0.75818   0.12308   0.70849   0.00000  Uiso   1.00
C1568  C     0.76076   0.08048   0.69984   0.00000  Uiso   1.00
H1569  H     0.77292   0.06573   0.73313   0.00000  Uiso   1.00
H1570  H     0.78900   0.07296   0.67528   0.00000  Uiso   1.00
C1571  C     0.70790   0.06135   0.68220   0.00000  Uiso   1.00
H1572  H     0.68799   0.05062   0.71210   0.00000  Uiso   1.00
H1573  H     0.68391   0.08404   0.99695   0.00000  Uiso   1.00
C1574  C     0.71138   0.02463   0.98349   0.00000  Uiso   1.00
H1575  H     0.72646   0.33213   0.67085   0.00000  Uiso   1.00
H1576  H     0.73634   0.03180   0.95588   0.00000  Uiso   1.00
H1577  H     0.67311   0.01547   0.96618   0.00000  Uiso   1.00
O1578  O     0.90160   0.21425   0.95187   0.00000  Uiso   1.00
C1579  C     0.93583   0.24458   0.97386   0.00000  Uiso   1.00
H1580  H     0.95682   0.25832   0.94612   0.00000  Uiso   1.00
H1581  H     0.96674   0.23161   0.99667   0.00000  Uiso   1.00
C1582  C     0.91011   0.28057   0.99447   0.00000  Uiso   1.00
H1583  H     0.89733   0.30066   0.96536   0.00000  Uiso   1.00
H1584  H     0.87607   0.27019   0.67810   0.00000  Uiso   1.00
C1585  C     0.94711   0.30574   0.69587   0.00000  Uiso   1.00
H1586  H     0.93594   0.30284   0.73161   0.00000  Uiso   1.00
H1587  H     0.94623   0.00517   0.68707   0.00000  Uiso   1.00
H1588  H     0.98693   0.29624   0.69620   0.00000  Uiso   1.00
C1589  C     0.74890   0.12962   0.94449   0.00000  Uiso   1.00
O1590  O     0.70769   0.14341   0.95005   0.00000  Uiso   1.00
O1591  O     0.75144   0.09686   0.91401   0.00000  Uiso   1.00
H1592  H     0.71683   0.08757   0.89817   0.00000  Uiso   1.00
C1593  C     0.91799   0.20123   0.72329   0.00000  Uiso   1.00
O1594  O     0.91771   0.23034   0.74979   0.00000  Uiso   1.00
O1595  O     0.96273   0.18067   0.72009   0.00000  Uiso   1.00
H1596  H     0.99326   0.19482   0.73860   0.00000  Uiso   1.00
C1597  C     0.16876   0.42092   0.83313   0.00000  Uiso   1.00
C1598  C     0.16503   0.57912   0.83353   0.00000  Uiso   1.00
C1599  C     0.06836   0.49854   0.82238   0.00000  Uiso   1.00
C1600  C     0.26487   0.50138   0.84447   0.00000  Uiso   1.00
C1601  C     0.01423   0.48895   0.82044   0.00000  Uiso   1.00
C1602  C     0.31905   0.50976   0.84779   0.00000  Uiso   1.00
C1603  C     0.18316   0.35346   0.79371   0.00000  Uiso   1.00
C1604  C     0.15090   0.64663   0.87258   0.00000  Uiso   1.00
C1605  C     0.17895   0.64437   0.79500   0.00000  Uiso   1.00
C1606  C     0.15601   0.35565   0.87172   0.00000  Uiso   1.00
C1607  C     0.16390   0.62385   0.83395   0.00000  Uiso   1.00
C1608  C     0.17067   0.37624   0.83263   0.00000  Uiso   1.00
C1609  C     0.12946   0.47855   0.68816   0.00000  Uiso   1.00
C1610  C     0.20314   0.52306   0.97750   0.00000  Uiso   1.00
C1611  C     0.12842   0.47998   0.97200   0.00000  Uiso   1.00
C1612  C     0.20492   0.52067   0.69454   0.00000  Uiso   1.00
Cu1613 Cu    0.16667   0.50001   0.88022   0.00000  Uiso   1.00
Cu1614 Cu    0.16667   0.49999   0.78645   0.00000  Uiso   1.00
H1615  H     0.18891   0.62708   0.76543   0.00000  Uiso   1.00
H1616  H     0.14595   0.37278   0.90135   0.00000  Uiso   1.00
N1617  N     0.16668   0.50001   0.95069   0.00000  Uiso   1.00
N1618  N     0.16665   0.49999   0.71597   0.00000  Uiso   1.00
O1619  O     0.16666   0.43989   0.87291   0.00000  Uiso   1.00
O1620  O     0.16667   0.56011   0.79375   0.00000  Uiso   1.00
O1621  O     0.16666   0.43988   0.79372   0.00000  Uiso   1.00
O1622  O     0.16667   0.56012   0.87294   0.00000  Uiso   1.00
O1623  O     0.09161   0.50000   0.86379   0.00000  Uiso   1.00
O1624  O     0.24172   0.50000   0.80288   0.00000  Uiso   1.00
O1625  O     0.09161   0.49999   0.78460   0.00000  Uiso   1.00
O1626  O     0.24172   0.50001   0.88207   0.00000  Uiso   1.00
C1627  C     0.32994   0.44847   0.80089   0.00000  Uiso   1.00
O1628  O     0.00220   0.44023   0.76067   0.00000  Uiso   1.00
O1629  O     0.30907   0.41927   0.82933   0.00000  Uiso   1.00
H1630  H     0.30420   0.39125   0.81408   0.00000  Uiso   1.00
C1631  C     0.00362   0.54883   0.87045   0.00000  Uiso   1.00
O1632  O     0.01807   0.54975   0.91183   0.00000  Uiso   1.00
O1633  O     0.00155   0.58468   0.84473   0.00000  Uiso   1.00
H1634  H     0.01137   0.61001   0.86450   0.00000  Uiso   1.00
C1635  C     0.20113   0.37150   0.75099   0.00000  Uiso   1.00
O1636  O     0.23134   0.40091   0.75310   0.00000  Uiso   1.00
O1637  O     0.18449   0.35353   0.70789   0.00000  Uiso   1.00
H1638  H     0.19865   0.36859   0.68120   0.00000  Uiso   1.00
C1639  C     0.12917   0.62839   0.91342   0.00000  Uiso   1.00
O1640  O     0.09972   0.59866   0.90877   0.00000  Uiso   1.00
O1641  O     0.14029   0.64655   0.95721   0.00000  Uiso   1.00
H1642  H     0.12595   0.62973   0.98249   0.00000  Uiso   1.00
O1643  O     0.09151   0.45641   0.70849   0.00000  Uiso   1.00
C1644  C     0.09409   0.41382   0.69984   0.00000  Uiso   1.00
H1645  H     0.10625   0.39907   0.73313   0.00000  Uiso   1.00
H1646  H     0.12234   0.40630   0.67528   0.00000  Uiso   1.00
C1647  C     0.04123   0.39468   0.68220   0.00000  Uiso   1.00
H1648  H     0.02132   0.38395   0.71210   0.00000  Uiso   1.00
H1649  H     0.01724   0.41737   0.99695   0.00000  Uiso   1.00
C1650  C     0.04471   0.35797   0.98349   0.00000  Uiso   1.00
H1651  H     0.05979   0.66547   0.67085   0.00000  Uiso   1.00
H1652  H     0.06967   0.36513   0.95588   0.00000  Uiso   1.00
H1653  H     0.00644   0.34880   0.96618   0.00000  Uiso   1.00
O1654  O     0.23493   0.54758   0.95187   0.00000  Uiso   1.00
C1655  C     0.26916   0.57791   0.97386   0.00000  Uiso   1.00
H1656  H     0.29016   0.59165   0.94612   0.00000  Uiso   1.00
H1657  H     0.30008   0.56494   0.99667   0.00000  Uiso   1.00
C1658  C     0.24345   0.61391   0.99447   0.00000  Uiso   1.00
H1659  H     0.23066   0.63399   0.96536   0.00000  Uiso   1.00
H1660  H     0.20940   0.60352   0.67810   0.00000  Uiso   1.00
C1661  C     0.28045   0.63907   0.69587   0.00000  Uiso   1.00
H1662  H     0.26927   0.63617   0.73161   0.00000  Uiso   1.00
H1663  H     0.27957   0.33851   0.68707   0.00000  Uiso   1.00
H1664  H     0.32026   0.62957   0.69620   0.00000  Uiso   1.00
C1665  C     0.08223   0.46295   0.94449   0.00000  Uiso   1.00
O1666  O     0.04102   0.47674   0.95005   0.00000  Uiso   1.00
O1667  O     0.08477   0.43020   0.91401   0.00000  Uiso   1.00
H1668  H     0.05016   0.42090   0.89817   0.00000  Uiso   1.00
C1669  C     0.25133   0.53456   0.72329   0.00000  Uiso   1.00
O1670  O     0.25105   0.56368   0.74979   0.00000  Uiso   1.00
O1671  O     0.29607   0.51400   0.72009   0.00000  Uiso   1.00
H1672  H     0.32659   0.52816   0.73860   0.00000  Uiso   1.00
C1673  C     0.50209   0.42092   0.83313   0.00000  Uiso   1.00
C1674  C     0.49836   0.57912   0.83353   0.00000  Uiso   1.00
C1675  C     0.40169   0.49854   0.82238   0.00000  Uiso   1.00
C1676  C     0.59820   0.50138   0.84447   0.00000  Uiso   1.00
C1677  C     0.34756   0.48895   0.82044   0.00000  Uiso   1.00
C1678  C     0.65238   0.50976   0.84779   0.00000  Uiso   1.00
C1679  C     0.51649   0.35346   0.79371   0.00000  Uiso   1.00
C1680  C     0.48424   0.64663   0.87258   0.00000  Uiso   1.00
C1681  C     0.51229   0.64437   0.79500   0.00000  Uiso   1.00
C1682  C     0.48934   0.35565   0.87172   0.00000  Uiso   1.00
C1683  C     0.49723   0.62385   0.83395   0.00000  Uiso   1.00
C1684  C     0.50400   0.37624   0.83263   0.00000  Uiso   1.00
C1685  C     0.46280   0.47855   0.68816   0.00000  Uiso   1.00
C1686  C     0.53647   0.52306   0.97750   0.00000  Uiso   1.00
C1687  C     0.46176   0.47998   0.97200   0.00000  Uiso   1.00
C1688  C     0.53825   0.52067   0.69454   0.00000  Uiso   1.00
Cu1689 Cu    0.50000   0.50001   0.88022   0.00000  Uiso   1.00
Cu1690 Cu    0.50000   0.49999   0.78645   0.00000  Uiso   1.00
H1691  H     0.52225   0.62708   0.76543   0.00000  Uiso   1.00
H1692  H     0.47929   0.37278   0.90135   0.00000  Uiso   1.00
N1693  N     0.50001   0.50001   0.95069   0.00000  Uiso   1.00
N1694  N     0.49999   0.49999   0.71597   0.00000  Uiso   1.00
O1695  O     0.50000   0.43989   0.87291   0.00000  Uiso   1.00
O1696  O     0.50000   0.56011   0.79375   0.00000  Uiso   1.00
O1697  O     0.50000   0.43988   0.79372   0.00000  Uiso   1.00
O1698  O     0.50000   0.56012   0.87294   0.00000  Uiso   1.00
O1699  O     0.42495   0.50000   0.86379   0.00000  Uiso   1.00
O1700  O     0.57505   0.50000   0.80288   0.00000  Uiso   1.00
O1701  O     0.42494   0.49999   0.78460   0.00000  Uiso   1.00
O1702  O     0.57506   0.50001   0.88207   0.00000  Uiso   1.00
C1703  C     0.66328   0.44847   0.80089   0.00000  Uiso   1.00
O1704  O     0.33553   0.44023   0.76067   0.00000  Uiso   1.00
O1705  O     0.64240   0.41927   0.82933   0.00000  Uiso   1.00
H1706  H     0.63754   0.39125   0.81408   0.00000  Uiso   1.00
C1707  C     0.33696   0.54883   0.87045   0.00000  Uiso   1.00
O1708  O     0.35140   0.54975   0.91183   0.00000  Uiso   1.00
O1709  O     0.33489   0.58468   0.84473   0.00000  Uiso   1.00
H1710  H     0.34470   0.61001   0.86450   0.00000  Uiso   1.00
C1711  C     0.53446   0.37150   0.75099   0.00000  Uiso   1.00
O1712  O     0.56467   0.40091   0.75310   0.00000  Uiso   1.00
O1713  O     0.51782   0.35353   0.70789   0.00000  Uiso   1.00
H1714  H     0.53199   0.36859   0.68120   0.00000  Uiso   1.00
C1715  C     0.46250   0.62839   0.91342   0.00000  Uiso   1.00
O1716  O     0.43305   0.59866   0.90877   0.00000  Uiso   1.00
O1717  O     0.47362   0.64655   0.95721   0.00000  Uiso   1.00
H1718  H     0.45928   0.62973   0.98249   0.00000  Uiso   1.00
O1719  O     0.42484   0.45641   0.70849   0.00000  Uiso   1.00
C1720  C     0.42742   0.41382   0.69984   0.00000  Uiso   1.00
H1721  H     0.43959   0.39907   0.73313   0.00000  Uiso   1.00
H1722  H     0.45567   0.40630   0.67528   0.00000  Uiso   1.00
C1723  C     0.37457   0.39468   0.68220   0.00000  Uiso   1.00
H1724  H     0.35465   0.38395   0.71210   0.00000  Uiso   1.00
H1725  H     0.35057   0.41737   0.99695   0.00000  Uiso   1.00
C1726  C     0.37805   0.35797   0.98349   0.00000  Uiso   1.00
H1727  H     0.39312   0.66547   0.67085   0.00000  Uiso   1.00
H1728  H     0.40301   0.36513   0.95588   0.00000  Uiso   1.00
H1729  H     0.33977   0.34880   0.96618   0.00000  Uiso   1.00
O1730  O     0.56826   0.54758   0.95187   0.00000  Uiso   1.00
C1731  C     0.60249   0.57791   0.97386   0.00000  Uiso   1.00
H1732  H     0.62349   0.59165   0.94612   0.00000  Uiso   1.00
H1733  H     0.63341   0.56494   0.99667   0.00000  Uiso   1.00
C1734  C     0.57678   0.61391   0.99447   0.00000  Uiso   1.00
H1735  H     0.56400   0.63399   0.96536   0.00000  Uiso   1.00
H1736  H     0.54274   0.60352   0.67810   0.00000  Uiso   1.00
C1737  C     0.61378   0.63907   0.69587   0.00000  Uiso   1.00
H1738  H     0.60261   0.63617   0.73161   0.00000  Uiso   1.00
H1739  H     0.61290   0.33851   0.68707   0.00000  Uiso   1.00
H1740  H     0.65360   0.62957   0.69620   0.00000  Uiso   1.00
C1741  C     0.41556   0.46295   0.94449   0.00000  Uiso   1.00
O1742  O     0.37435   0.47674   0.95005   0.00000  Uiso   1.00
O1743  O     0.41811   0.43020   0.91401   0.00000  Uiso   1.00
H1744  H     0.38350   0.42090   0.89817   0.00000  Uiso   1.00
C1745  C     0.58466   0.53456   0.72329   0.00000  Uiso   1.00
O1746  O     0.58438   0.56368   0.74979   0.00000  Uiso   1.00
O1747  O     0.62940   0.51400   0.72009   0.00000  Uiso   1.00
H1748  H     0.65993   0.52816   0.73860   0.00000  Uiso   1.00
C1749  C     0.83543   0.42092   0.83313   0.00000  Uiso   1.00
C1750  C     0.83170   0.57912   0.83353   0.00000  Uiso   1.00
C1751  C     0.73502   0.49854   0.82238   0.00000  Uiso   1.00
C1752  C     0.93153   0.50138   0.84447   0.00000  Uiso   1.00
C1753  C     0.68090   0.48895   0.82044   0.00000  Uiso   1.00
C1754  C     0.98572   0.50976   0.84779   0.00000  Uiso   1.00
C1755  C     0.84983   0.35346   0.79371   0.00000  Uiso   1.00
C1756  C     0.81757   0.64663   0.87258   0.00000  Uiso   1.00
C1757  C     0.84562   0.64437   0.79500   0.00000  Uiso   1.00
C1758  C     0.82267   0.35565   0.87172   0.00000  Uiso   1.00
C1759  C     0.83057   0.62385   0.83395   0.00000  Uiso   1.00
C1760  C     0.83733   0.37624   0.83263   0.00000  Uiso   1.00
C1761  C     0.79613   0.47855   0.68816   0.00000  Uiso   1.00
C1762  C     0.86980   0.52306   0.97750   0.00000  Uiso   1.00
C1763  C     0.79509   0.47998   0.97200   0.00000  Uiso   1.00
C1764  C     0.87159   0.52067   0.69454   0.00000  Uiso   1.00
Cu1765 Cu    0.83333   0.50001   0.88022   0.00000  Uiso   1.00
Cu1766 Cu    0.83333   0.49999   0.78645   0.00000  Uiso   1.00
H1767  H     0.85558   0.62708   0.76543   0.00000  Uiso   1.00
H1768  H     0.81262   0.37278   0.90135   0.00000  Uiso   1.00
N1769  N     0.83335   0.50001   0.95069   0.00000  Uiso   1.00
N1770  N     0.83332   0.49999   0.71597   0.00000  Uiso   1.00
O1771  O     0.83333   0.43989   0.87291   0.00000  Uiso   1.00
O1772  O     0.83334   0.56011   0.79375   0.00000  Uiso   1.00
O1773  O     0.83333   0.43988   0.79372   0.00000  Uiso   1.00
O1774  O     0.83334   0.56012   0.87294   0.00000  Uiso   1.00
O1775  O     0.75828   0.50000   0.86379   0.00000  Uiso   1.00
O1776  O     0.90839   0.50000   0.80288   0.00000  Uiso   1.00
O1777  O     0.75828   0.49999   0.78460   0.00000  Uiso   1.00
O1778  O     0.90839   0.50001   0.88207   0.00000  Uiso   1.00
C1779  C     0.99661   0.44847   0.80089   0.00000  Uiso   1.00
O1780  O     0.66886   0.44023   0.76067   0.00000  Uiso   1.00
O1781  O     0.97573   0.41927   0.82933   0.00000  Uiso   1.00
H1782  H     0.97087   0.39125   0.81408   0.00000  Uiso   1.00
C1783  C     0.67029   0.54883   0.87045   0.00000  Uiso   1.00
O1784  O     0.68473   0.54975   0.91183   0.00000  Uiso   1.00
O1785  O     0.66822   0.58468   0.84473   0.00000  Uiso   1.00
H1786  H     0.67804   0.61001   0.86450   0.00000  Uiso   1.00
C1787  C     0.86779   0.37150   0.75099   0.00000  Uiso   1.00
O1788  O     0.89801   0.40091   0.75310   0.00000  Uiso   1.00
O1789  O     0.85115   0.35353   0.70789   0.00000  Uiso   1.00
H1790  H     0.86532   0.36859   0.68120   0.00000  Uiso   1.00
C1791  C     0.79584   0.62839   0.91342   0.00000  Uiso   1.00
O1792  O     0.76638   0.59866   0.90877   0.00000  Uiso   1.00
O1793  O     0.80696   0.64655   0.95721   0.00000  Uiso   1.00
H1794  H     0.79261   0.62973   0.98249   0.00000  Uiso   1.00
O1795  O     0.75818   0.45641   0.70849   0.00000  Uiso   1.00
C1796  C     0.76076   0.41382   0.69984   0.00000  Uiso   1.00
H1797  H     0.77292   0.39907   0.73313   0.00000  Uiso   1.00
H1798  H     0.78900   0.40630   0.67528   0.00000  Uiso   1.00
C1799  C     0.70790   0.39468   0.68220   0.00000  Uiso   1.00
H1800  H     0.68799   0.38395   0.71210   0.00000  Uiso   1.00
H1801  H     0.68391   0.41737   0.99695   0.00000  Uiso   1.00
C1802  C     0.71138   0.35797   0.98349   0.00000  Uiso   1.00
H1803  H     0.72646   0.66547   0.67085   0.00000  Uiso   1.00
H1804  H     0.73634   0.36513   0.95588   0.00000  Uiso   1.00
H1805  H     0.67311   0.34880   0.96618   0.00000  Uiso   1.00
O1806  O     0.90160   0.54758   0.95187   0.00000  Uiso   1.00
C1807  C     0.93583   0.57791   0.97386   0.00000  Uiso   1.00
H1808  H     0.95682   0.59165   0.94612   0.00000  Uiso   1.00
H1809  H     0.96674   0.56494   0.99667   0.00000  Uiso   1.00
C1810  C     0.91011   0.61391   0.99447   0.00000  Uiso   1.00
H1811  H     0.89733   0.63399   0.96536   0.00000  Uiso   1.00
H1812  H     0.87607   0.60352   0.67810   0.00000  Uiso   1.00
C1813  C     0.94711   0.63907   0.69587   0.00000  Uiso   1.00
H1814  H     0.93594   0.63617   0.73161   0.00000  Uiso   1.00
H1815  H     0.94623   0.33851   0.68707   0.00000  Uiso   1.00
H1816  H     0.98693   0.62957   0.69620   0.00000  Uiso   1.00
C1817  C     0.74890   0.46295   0.94449   0.00000  Uiso   1.00
O1818  O     0.70769   0.47674   0.95005   0.00000  Uiso   1.00
O1819  O     0.75144   0.43020   0.91401   0.00000  Uiso   1.00
H1820  H     0.71683   0.42090   0.89817   0.00000  Uiso   1.00
C1821  C     0.91799   0.53456   0.72329   0.00000  Uiso   1.00
O1822  O     0.91771   0.56368   0.74979   0.00000  Uiso   1.00
O1823  O     0.96273   0.51400   0.72009   0.00000  Uiso   1.00
H1824  H     0.99326   0.52816   0.73860   0.00000  Uiso   1.00
C1825  C     0.16876   0.75425   0.83313   0.00000  Uiso   1.00
C1826  C     0.16503   0.91245   0.83353   0.00000  Uiso   1.00
C1827  C     0.06836   0.83187   0.82238   0.00000  Uiso   1.00
C1828  C     0.26487   0.83472   0.84447   0.00000  Uiso   1.00
C1829  C     0.01423   0.82229   0.82044   0.00000  Uiso   1.00
C1830  C     0.31905   0.84309   0.84779   0.00000  Uiso   1.00
C1831  C     0.18316   0.68679   0.79371   0.00000  Uiso   1.00
C1832  C     0.15090   0.97997   0.87258   0.00000  Uiso   1.00
C1833  C     0.17895   0.97770   0.79500   0.00000  Uiso   1.00
C1834  C     0.15601   0.68899   0.87172   0.00000  Uiso   1.00
C1835  C     0.16390   0.95718   0.83395   0.00000  Uiso   1.00
C1836  C     0.17067   0.70958   0.83263   0.00000  Uiso   1.00
C1837  C     0.12946   0.81188   0.68816   0.00000  Uiso   1.00
C1838  C     0.20314   0.85639   0.97750   0.00000  Uiso   1.00
C1839  C     0.12842   0.81331   0.97200   0.00000  Uiso   1.00
C1840  C     0.20492   0.85400   0.69454   0.00000  Uiso   1.00
Cu1841 Cu    0.16667   0.83334   0.88022   0.00000  Uiso   1.00
Cu1842 Cu    0.16667   0.83333   0.78645   0.00000  Uiso   1.00
H1843  H     0.18891   0.96041   0.76543   0.00000  Uiso   1.00
H1844  H     0.14595   0.70611   0.90135   0.00000  Uiso   1.00
N1845  N     0.16668   0.83334   0.95069   0.00000  Uiso   1.00
N1846  N     0.16665   0.83332   0.71597   0.00000  Uiso   1.00
O1847  O     0.16666   0.77322   0.87291   0.00000  Uiso   1.00
O1848  O     0.16667   0.89345   0.79375   0.00000  Uiso   1.00
O1849  O     0.16666   0.77321   0.79372   0.00000  Uiso   1.00
O1850  O     0.16667   0.89346   0.87294   0.00000  Uiso   1.00
O1851  O     0.09161   0.83334   0.86379   0.00000  Uiso   1.00
O1852  O     0.24172   0.83333   0.80288   0.00000  Uiso   1.00
O1853  O     0.09161   0.83333   0.78460   0.00000  Uiso   1.00
O1854  O     0.24172   0.83334   0.88207   0.00000  Uiso   1.00
C1855  C     0.32994   0.78180   0.80089   0.00000  Uiso   1.00
O1856  O     0.00220   0.77356   0.76067   0.00000  Uiso   1.00
O1857  O     0.30907   0.75260   0.82933   0.00000  Uiso   1.00
H1858  H     0.30420   0.72459   0.81408   0.00000  Uiso   1.00
C1859  C     0.00362   0.88216   0.87045   0.00000  Uiso   1.00
O1860  O     0.01807   0.88308   0.91183   0.00000  Uiso   1.00
O1861  O     0.00155   0.91801   0.84473   0.00000  Uiso   1.00
H1862  H     0.01137   0.94334   0.86450   0.00000  Uiso   1.00
C1863  C     0.20113   0.70483   0.75099   0.00000  Uiso   1.00
O1864  O     0.23134   0.73424   0.75310   0.00000  Uiso   1.00
O1865  O     0.18449   0.68687   0.70789   0.00000  Uiso   1.00
H1866  H     0.19865   0.70192   0.68120   0.00000  Uiso   1.00
C1867  C     0.12917   0.96173   0.91342   0.00000  Uiso   1.00
O1868  O     0.09972   0.93199   0.90877   0.00000  Uiso   1.00
O1869  O     0.14029   0.97988   0.95721   0.00000  Uiso   1.00
H1870  H     0.12595   0.96306   0.98249   0.00000  Uiso   1.00
O1871  O     0.09151   0.78974   0.70849   0.00000  Uiso   1.00
C1872  C     0.09409   0.74715   0.69984   0.00000  Uiso   1.00
H1873  H     0.10625   0.73240   0.73313   0.00000  Uiso   1.00
H1874  H     0.12234   0.73963   0.67528   0.00000  Uiso   1.00
C1875  C     0.04123   0.72802   0.68220   0.00000  Uiso   1.00
H1876  H     0.02132   0.71728   0.71210   0.00000  Uiso   1.00
H1877  H     0.01724   0.75070   0.99695   0.00000  Uiso   1.00
C1878  C     0.04471   0.69130   0.98349   0.00000  Uiso   1.00
H1879  H     0.05979   0.99880   0.67085   0.00000  Uiso   1.00
H1880  H     0.06967   0.69847   0.95588   0.00000  Uiso   1.00
H1881  H     0.00644   0.68213   0.96618   0.00000  Uiso   1.00
O1882  O     0.23493   0.88092   0.95187   0.00000  Uiso   1.00
C1883  C     0.26916   0.91125   0.97386   0.00000  Uiso   1.00
H1884  H     0.29016   0.92498   0.94612   0.00000  Uiso   1.00
H1885  H     0.30008   0.89828   0.99667   0.00000  Uiso   1.00
C1886  C     0.24345   0.94724   0.99447   0.00000  Uiso   1.00
H1887  H     0.23066   0.96733   0.96536   0.00000  Uiso   1.00
H1888  H     0.20940   0.93685   0.67810   0.00000  Uiso   1.00
C1889  C     0.28045   0.97240   0.69587   0.00000  Uiso   1.00
H1890  H     0.26927   0.96950   0.73161   0.00000  Uiso   1.00
H1891  H     0.27957   0.67184   0.68707   0.00000  Uiso   1.00
H1892  H     0.32026   0.96290   0.69620   0.00000  Uiso   1.00
C1893  C     0.08223   0.79629   0.94449   0.00000  Uiso   1.00
O1894  O     0.04102   0.81008   0.95005   0.00000  Uiso   1.00
O1895  O     0.08477   0.76353   0.91401   0.00000  Uiso   1.00
H1896  H     0.05016   0.75423   0.89817   0.00000  Uiso   1.00
C1897  C     0.25133   0.86790   0.72329   0.00000  Uiso   1.00
O1898  O     0.25105   0.89701   0.74979   0.00000  Uiso   1.00
O1899  O     0.29607   0.84733   0.72009   0.00000  Uiso   1.00
H1900  H     0.32659   0.86149   0.73860   0.00000  Uiso   1.00
C1901  C     0.50209   0.75425   0.83313   0.00000  Uiso   1.00
C1902  C     0.49836   0.91245   0.83353   0.00000  Uiso   1.00
C1903  C     0.40169   0.83187   0.82238   0.00000  Uiso   1.00
C1904  C     0.59820   0.83472   0.84447   0.00000  Uiso   1.00
C1905  C     0.34756   0.82229   0.82044   0.00000  Uiso   1.00
C1906  C     0.65238   0.84309   0.84779   0.00000  Uiso   1.00
C1907  C     0.51649   0.68679   0.79371   0.00000  Uiso   1.00
C1908  C     0.48424   0.97997   0.87258   0.00000  Uiso   1.00
C1909  C     0.51229   0.97770   0.79500   0.00000  Uiso   1.00
C1910  C     0.48934   0.68899   0.87172   0.00000  Uiso   1.00
C1911  C     0.49723   0.95718   0.83395   0.00000  Uiso   1.00
C1912  C     0.50400   0.70958   0.83263   0.00000  Uiso   1.00
C1913  C     0.46280   0.81188   0.68816   0.00000  Uiso   1.00
C1914  C     0.53647   0.85639   0.97750   0.00000  Uiso   1.00
C1915  C     0.46176   0.81331   0.97200   0.00000  Uiso   1.00
C1916  C     0.53825   0.85400   0.69454   0.00000  Uiso   1.00
Cu1917 Cu    0.50000   0.83334   0.88022   0.00000  Uiso   1.00
Cu1918 Cu    0.50000   0.83333   0.78645   0.00000  Uiso   1.00
H1919  H     0.52225   0.96041   0.76543   0.00000  Uiso   1.00
H1920  H     0.47929   0.70611   0.90135   0.00000  Uiso   1.00
N1921  N     0.50001   0.83334   0.95069   0.00000  Uiso   1.00
N1922  N     0.49999   0.83332   0.71597   0.00000  Uiso   1.00
O1923  O     0.50000   0.77322   0.87291   0.00000  Uiso   1.00
O1924  O     0.50000   0.89345   0.79375   0.00000  Uiso   1.00
O1925  O     0.50000   0.77321   0.79372   0.00000  Uiso   1.00
O1926  O     0.50000   0.89346   0.87294   0.00000  Uiso   1.00
O1927  O     0.42495   0.83334   0.86379   0.00000  Uiso   1.00
O1928  O     0.57505   0.83333   0.80288   0.00000  Uiso   1.00
O1929  O     0.42494   0.83333   0.78460   0.00000  Uiso   1.00
O1930  O     0.57506   0.83334   0.88207   0.00000  Uiso   1.00
C1931  C     0.66328   0.78180   0.80089   0.00000  Uiso   1.00
O1932  O     0.33553   0.77356   0.76067   0.00000  Uiso   1.00
O1933  O     0.64240   0.75260   0.82933   0.00000  Uiso   1.00
H1934  H     0.63754   0.72459   0.81408   0.00000  Uiso   1.00
C1935  C     0.33696   0.88216   0.87045   0.00000  Uiso   1.00
O1936  O     0.35140   0.88308   0.91183   0.00000  Uiso   1.00
O1937  O     0.33489   0.91801   0.84473   0.00000  Uiso   1.00
H1938  H     0.34470   0.94334   0.86450   0.00000  Uiso   1.00
C1939  C     0.53446   0.70483   0.75099   0.00000  Uiso   1.00
O1940  O     0.56467   0.73424   0.75310   0.00000  Uiso   1.00
O1941  O     0.51782   0.68687   0.70789   0.00000  Uiso   1.00
H1942  H     0.53199   0.70192   0.68120   0.00000  Uiso   1.00
C1943  C     0.46250   0.96173   0.91342   0.00000  Uiso   1.00
O1944  O     0.43305   0.93199   0.90877   0.00000  Uiso   1.00
O1945  O     0.47362   0.97988   0.95721   0.00000  Uiso   1.00
H1946  H     0.45928   0.96306   0.98249   0.00000  Uiso   1.00
O1947  O     0.42484   0.78974   0.70849   0.00000  Uiso   1.00
C1948  C     0.42742   0.74715   0.69984   0.00000  Uiso   1.00
H1949  H     0.43959   0.73240   0.73313   0.00000  Uiso   1.00
H1950  H     0.45567   0.73963   0.67528   0.00000  Uiso   1.00
C1951  C     0.37457   0.72802   0.68220   0.00000  Uiso   1.00
H1952  H     0.35465   0.71728   0.71210   0.00000  Uiso   1.00
H1953  H     0.35057   0.75070   0.99695   0.00000  Uiso   1.00
C1954  C     0.37805   0.69130   0.98349   0.00000  Uiso   1.00
H1955  H     0.39312   0.99880   0.67085   0.00000  Uiso   1.00
H1956  H     0.40301   0.69847   0.95588   0.00000  Uiso   1.00
H1957  H     0.33977   0.68213   0.96618   0.00000  Uiso   1.00
O1958  O     0.56826   0.88092   0.95187   0.00000  Uiso   1.00
C1959  C     0.60249   0.91125   0.97386   0.00000  Uiso   1.00
H1960  H     0.62349   0.92498   0.94612   0.00000  Uiso   1.00
H1961  H     0.63341   0.89828   0.99667   0.00000  Uiso   1.00
C1962  C     0.57678   0.94724   0.99447   0.00000  Uiso   1.00
H1963  H     0.56400   0.96733   0.96536   0.00000  Uiso   1.00
H1964  H     0.54274   0.93685   0.67810   0.00000  Uiso   1.00
C1965  C     0.61378   0.97240   0.69587   0.00000  Uiso   1.00
H1966  H     0.60261   0.96950   0.73161   0.00000  Uiso   1.00
H1967  H     0.61290   0.67184   0.68707   0.00000  Uiso   1.00
H1968  H     0.65360   0.96290   0.69620   0.00000  Uiso   1.00
C1969  C     0.41556   0.79629   0.94449   0.00000  Uiso   1.00
O1970  O     0.37435   0.81008   0.95005   0.00000  Uiso   1.00
O1971  O     0.41811   0.76353   0.91401   0.00000  Uiso   1.00
H1972  H     0.38350   0.75423   0.89817   0.00000  Uiso   1.00
C1973  C     0.58466   0.86790   0.72329   0.00000  Uiso   1.00
O1974  O     0.58438   0.89701   0.74979   0.00000  Uiso   1.00
O1975  O     0.62940   0.84733   0.72009   0.00000  Uiso   1.00
H1976  H     0.65993   0.86149   0.73860   0.00000  Uiso   1.00
C1977  C     0.83543   0.75425   0.83313   0.00000  Uiso   1.00
C1978  C     0.83170   0.91245   0.83353   0.00000  Uiso   1.00
C1979  C     0.73502   0.83187   0.82238   0.00000  Uiso   1.00
C1980  C     0.93153   0.83472   0.84447   0.00000  Uiso   1.00
C1981  C     0.68090   0.82229   0.82044   0.00000  Uiso   1.00
C1982  C     0.98572   0.84309   0.84779   0.00000  Uiso   1.00
C1983  C     0.84983   0.68679   0.79371   0.00000  Uiso   1.00
C1984  C     0.81757   0.97997   0.87258   0.00000  Uiso   1.00
C1985  C     0.84562   0.97770   0.79500   0.00000  Uiso   1.00
C1986  C     0.82267   0.68899   0.87172   0.00000  Uiso   1.00
C1987  C     0.83057   0.95718   0.83395   0.00000  Uiso   1.00
C1988  C     0.83733   0.70958   0.83263   0.00000  Uiso   1.00
C1989  C     0.79613   0.81188   0.68816   0.00000  Uiso   1.00
C1990  C     0.86980   0.85639   0.97750   0.00000  Uiso   1.00
C1991  C     0.79509   0.81331   0.97200   0.00000  Uiso   1.00
C1992  C     0.87159   0.85400   0.69454   0.00000  Uiso   1.00
Cu1993 Cu    0.83333   0.83334   0.88022   0.00000  Uiso   1.00
Cu1994 Cu    0.83333   0.83333   0.78645   0.00000  Uiso   1.00
H1995  H     0.85558   0.96041   0.76543   0.00000  Uiso   1.00
H1996  H     0.81262   0.70611   0.90135   0.00000  Uiso   1.00
N1997  N     0.83335   0.83334   0.95069   0.00000  Uiso   1.00
N1998  N     0.83332   0.83332   0.71597   0.00000  Uiso   1.00
O1999  O     0.83333   0.77322   0.87291   0.00000  Uiso   1.00
O2000  O     0.83334   0.89345   0.79375   0.00000  Uiso   1.00
O2001  O     0.83333   0.77321   0.79372   0.00000  Uiso   1.00
O2002  O     0.83334   0.89346   0.87294   0.00000  Uiso   1.00
O2003  O     0.75828   0.83334   0.86379   0.00000  Uiso   1.00
O2004  O     0.90839   0.83333   0.80288   0.00000  Uiso   1.00
O2005  O     0.75828   0.83333   0.78460   0.00000  Uiso   1.00
O2006  O     0.90839   0.83334   0.88207   0.00000  Uiso   1.00
C2007  C     0.99661   0.78180   0.80089   0.00000  Uiso   1.00
O2008  O     0.66886   0.77356   0.76067   0.00000  Uiso   1.00
O2009  O     0.97573   0.75260   0.82933   0.00000  Uiso   1.00
H2010  H     0.97087   0.72459   0.81408   0.00000  Uiso   1.00
C2011  C     0.67029   0.88216   0.87045   0.00000  Uiso   1.00
O2012  O     0.68473   0.88308   0.91183   0.00000  Uiso   1.00
O2013  O     0.66822   0.91801   0.84473   0.00000  Uiso   1.00
H2014  H     0.67804   0.94334   0.86450   0.00000  Uiso   1.00
C2015  C     0.86779   0.70483   0.75099   0.00000  Uiso   1.00
O2016  O     0.89801   0.73424   0.75310   0.00000  Uiso   1.00
O2017  O     0.85115   0.68687   0.70789   0.00000  Uiso   1.00
H2018  H     0.86532   0.70192   0.68120   0.00000  Uiso   1.00
C2019  C     0.79584   0.96173   0.91342   0.00000  Uiso   1.00
O2020  O     0.76638   0.93199   0.90877   0.00000  Uiso   1.00
O2021  O     0.80696   0.97988   0.95721   0.00000  Uiso   1.00
H2022  H     0.79261   0.96306   0.98249   0.00000  Uiso   1.00
O2023  O     0.75818   0.78974   0.70849   0.00000  Uiso   1.00
C2024  C     0.76076   0.74715   0.69984   0.00000  Uiso   1.00
H2025  H     0.77292   0.73240   0.73313   0.00000  Uiso   1.00
H2026  H     0.78900   0.73963   0.67528   0.00000  Uiso   1.00
C2027  C     0.70790   0.72802   0.68220   0.00000  Uiso   1.00
H2028  H     0.68799   0.71728   0.71210   0.00000  Uiso   1.00
H2029  H     0.68391   0.75070   0.99695   0.00000  Uiso   1.00
C2030  C     0.71138   0.69130   0.98349   0.00000  Uiso   1.00
H2031  H     0.72646   0.99880   0.67085   0.00000  Uiso   1.00
H2032  H     0.73634   0.69847   0.95588   0.00000  Uiso   1.00
H2033  H     0.67311   0.68213   0.96618   0.00000  Uiso   1.00
O2034  O     0.90160   0.88092   0.95187   0.00000  Uiso   1.00
C2035  C     0.93583   0.91125   0.97386   0.00000  Uiso   1.00
H2036  H     0.95682   0.92498   0.94612   0.00000  Uiso   1.00
H2037  H     0.96674   0.89828   0.99667   0.00000  Uiso   1.00
C2038  C     0.91011   0.94724   0.99447   0.00000  Uiso   1.00
H2039  H     0.89733   0.96733   0.96536   0.00000  Uiso   1.00
H2040  H     0.87607   0.93685   0.67810   0.00000  Uiso   1.00
C2041  C     0.94711   0.97240   0.69587   0.00000  Uiso   1.00
H2042  H     0.93594   0.96950   0.73161   0.00000  Uiso   1.00
H2043  H     0.94623   0.67184   0.68707   0.00000  Uiso   1.00
H2044  H     0.98693   0.96290   0.69620   0.00000  Uiso   1.00
C2045  C     0.74890   0.79629   0.94449   0.00000  Uiso   1.00
O2046  O     0.70769   0.81008   0.95005   0.00000  Uiso   1.00
O2047  O     0.75144   0.76353   0.91401   0.00000  Uiso   1.00
H2048  H     0.71683   0.75423   0.89817   0.00000  Uiso   1.00
C2049  C     0.91799   0.86790   0.72329   0.00000  Uiso   1.00
O2050  O     0.91771   0.89701   0.74979   0.00000  Uiso   1.00
O2051  O     0.96273   0.84733   0.72009   0.00000  Uiso   1.00
H2052  H     0.99326   0.86149   0.73860   0.00000  Uiso   1.00
loop_
_geom_bond_atom_site_label_1
_geom_bond_atom_site_label_2
_geom_bond_distance
_geom_bond_site_symmetry_2
_ccdc_geom_bond_type
C1     O25     1.301   .     A
C1     O23     1.311   .     A
C1     C12     1.469   .     S
C2     O24     1.310   .     A
C2     C11     1.469   .     S
C2     O26     1.303   .     A
C3     C5      1.444   .     S
C3     O29     1.307   .     A
C3     O27     1.290   .     A
C4     C6      1.438   .     S
C4     O28     1.293   .     A
C4     O30     1.300   .     A
C5     C158    1.348   1_455 S
C5     C183    1.476   1_455 S
C6     C81     1.348   .     S
C6     C111    1.471   .     S
C7     C12     1.421   .     A
C7     C39     1.486   .     S
C7     C465    1.392   1_545 S
C8     C43     1.484   .     S
C8     C11     1.418   .     A
C8     C238    1.391   .     S
C9     C11     1.400   .     A
C9     H19     1.083   .     S
C9     C235    1.392   .     S
C10    C12     1.401   .     A
C10    H20     1.082   .     S
C10    C464    1.391   1_545 S
C13    N22     1.369   .     A
C13    O47     1.392   .     S
C13    C1383   1.431   1_554 S
C14    N21     1.368   .     A
C14    O58     1.406   .     S
C14    C700    1.457   .     S
C15    C69     1.472   .     S
C15    N21     1.380   .     A
C15    C697    1.431   .     S
C16    N22     1.392   .     A
C16    C73     1.462   .     S
C16    C1382   1.457   1_554 S
Cu17   Cu18    2.714   .     S
Cu17   O30     1.977   .     S
Cu17   O23     1.982   .     S
Cu17   O26     1.985   .     S
Cu17   O27     1.991   .     S
Cu17   N21     2.039   .     S
Cu18   O24     1.982   .     S
Cu18   O29     1.977   .     S
Cu18   O25     1.985   .     S
Cu18   O28     1.991   .     S
Cu18   N22     2.039   .     S
C31    O33     1.399   .     S
C31    C81     1.476   .     S
C31    O108    1.217   .     S
O32    C183    1.217   1_455 S
O33    H34     1.013   .     S
C35    O36     1.219   .     D
C35    O37     1.398   .     S
C35    C158    1.471   1_455 S
O37    H38     1.013   .     S
C39    O41     1.396   .     S
C39    O40     1.220   .     D
O41    H42     1.014   .     S
C43    O44     1.217   .     D
C43    O45     1.394   .     S
O45    H46     1.014   .     S
O47    C48     1.423   .     S
C48    H50     1.115   .     S
C48    H49     1.107   .     S
C48    C51     1.540   .     S
C51    H52     1.109   .     S
C51    H1421   1.107   1_554 S
C51    C1422   1.525   1_554 S
H53    C735    1.107   .     S
C54    H56     1.106   .     S
C54    H57     1.109   .     S
C54    C735    1.525   .     S
C54    H1195   1.108   1_545 S
H55    C1650   1.108   1_554 S
O58    C59     1.415   .     S
C59    H60     1.108   .     S
C59    H61     1.101   .     S
C59    C62     1.534   .     S
C62    H63     1.109   .     S
C62    H748    1.109   .     S
C62    C749    1.536   .     S
H64    C1430   1.109   1_554 S
C65    H68     1.109   .     S
C65    H66     1.107   .     S
C65    C1430   1.536   1_554 S
C65    H295    1.108   .     S
H67    C521    1.108   1_545 S
C69    O71     1.392   .     S
C69    O70     1.222   .     D
O71    H72     1.013   .     S
C73    O75     1.397   .     S
C73    O74     1.220   .     D
O75    H76     1.013   .     S
C77    O101    1.301   .     A
C77    O99     1.311   .     A
C77    C88     1.469   .     S
C78    O100    1.310   .     A
C78    C87     1.469   .     S
C78    O102    1.303   .     A
C79    C81     1.444   .     S
C79    O105    1.307   .     A
C79    O103    1.290   .     A
C80    C82     1.438   .     S
C80    O104    1.293   .     A
C80    O106    1.300   .     A
C82    C157    1.348   .     S
C82    C187    1.471   .     S
C83    C88     1.421   .     A
C83    C115    1.486   .     S
C83    C541    1.392   1_545 S
C84    C119    1.484   .     S
C84    C87     1.418   .     A
C84    C314    1.391   .     S
C85    C87     1.400   .     A
C85    H95     1.083   .     S
C85    C311    1.392   .     S
C86    C88     1.401   .     A
C86    H96     1.082   .     S
C86    C540    1.391   1_545 S
C89    N98     1.369   .     A
C89    O123    1.392   .     S
C89    C1459   1.431   1_554 S
C90    N97     1.368   .     A
C90    O134    1.406   .     S
C90    C776    1.457   .     S
C91    C145    1.472   .     S
C91    N97     1.380   .     A
C91    C773    1.431   .     S
C92    N98     1.392   .     A
C92    C149    1.462   .     S
C92    C1458   1.457   1_554 S
Cu93   Cu94    2.714   .     S
Cu93   O106    1.977   .     S
Cu93   O99     1.982   .     S
Cu93   O102    1.985   .     S
Cu93   O103    1.991   .     S
Cu93   N97     2.039   .     S
Cu94   O100    1.982   .     S
Cu94   O105    1.977   .     S
Cu94   O101    1.985   .     S
Cu94   O104    1.991   .     S
Cu94   N98     2.039   .     S
C107   O109    1.399   .     S
C107   C157    1.476   .     S
C107   O184    1.217   .     S
O109   H110    1.013   .     S
C111   O112    1.219   .     D
C111   O113    1.398   .     S
O113   H114    1.013   .     S
C115   O117    1.396   .     S
C115   O116    1.220   .     D
O117   H118    1.014   .     S
C119   O120    1.217   .     D
C119   O121    1.394   .     S
O121   H122    1.014   .     S
O123   C124    1.423   .     S
C124   H126    1.115   .     S
C124   H125    1.107   .     S
C124   C127    1.540   .     S
C127   H128    1.109   .     S
C127   H1497   1.107   1_554 S
C127   C1498   1.525   1_554 S
H129   C811    1.107   .     S
C130   H132    1.106   .     S
C130   H133    1.109   .     S
C130   C811    1.525   .     S
C130   H1271   1.108   1_545 S
H131   C1726   1.108   1_554 S
O134   C135    1.415   .     S
C135   H136    1.108   .     S
C135   H137    1.101   .     S
C135   C138    1.534   .     S
C138   H139    1.109   .     S
C138   H824    1.109   .     S
C138   C825    1.536   .     S
H140   C1506   1.109   1_554 S
C141   H144    1.109   .     S
C141   H142    1.107   .     S
C141   C1506   1.536   1_554 S
C141   H371    1.108   .     S
H143   C597    1.108   1_545 S
C145   O147    1.392   .     S
C145   O146    1.222   .     D
O147   H148    1.013   .     S
C149   O151    1.397   .     S
C149   O150    1.220   .     D
O151   H152    1.013   .     S
C153   O177    1.301   .     A
C153   O175    1.311   .     A
C153   C164    1.469   .     S
C154   O176    1.310   .     A
C154   C163    1.469   .     S
C154   O178    1.303   .     A
C155   C157    1.444   .     S
C155   O181    1.307   .     A
C155   O179    1.290   .     A
C156   C158    1.438   .     S
C156   O180    1.293   .     A
C156   O182    1.300   .     A
C158   C5      1.348   1_655 S
C158   C35     1.471   1_655 S
C159   C164    1.421   .     A
C159   C191    1.486   .     S
C159   C617    1.392   1_545 S
C160   C195    1.484   .     S
C160   C163    1.418   .     A
C160   C390    1.391   .     S
C161   C163    1.400   .     A
C161   H171    1.083   .     S
C161   C387    1.392   .     S
C162   C164    1.401   .     A
C162   H172    1.082   .     S
C162   C616    1.391   1_545 S
C165   N174    1.369   .     A
C165   O199    1.392   .     S
C165   C1535   1.431   1_554 S
C166   N173    1.368   .     A
C166   O210    1.406   .     S
C166   C852    1.457   .     S
C167   C221    1.472   .     S
C167   N173    1.380   .     A
C167   C849    1.431   .     S
C168   N174    1.392   .     A
C168   C225    1.462   .     S
C168   C1534   1.457   1_554 S
Cu169  Cu170   2.714   .     S
Cu169  O182    1.977   .     S
Cu169  O175    1.982   .     S
Cu169  O178    1.985   .     S
Cu169  O179    1.991   .     S
Cu169  N173    2.039   .     S
Cu170  O176    1.982   .     S
Cu170  O181    1.977   .     S
Cu170  O177    1.985   .     S
Cu170  O180    1.991   .     S
Cu170  N174    2.039   .     S
C183   O185    1.399   .     S
C183   C5      1.476   1_655 S
C183   O32     1.217   1_655 S
O185   H186    1.013   .     S
C187   O188    1.219   .     D
C187   O189    1.398   .     S
O189   H190    1.013   .     S
C191   O193    1.396   .     S
C191   O192    1.220   .     D
O193   H194    1.014   .     S
C195   O196    1.217   .     D
C195   O197    1.394   .     S
O197   H198    1.014   .     S
O199   C200    1.423   .     S
C200   H202    1.115   .     S
C200   H201    1.107   .     S
C200   C203    1.540   .     S
C203   H204    1.109   .     S
C203   H1573   1.107   1_554 S
C203   C1574   1.525   1_554 S
H205   C887    1.107   .     S
C206   H208    1.106   .     S
C206   H209    1.109   .     S
C206   C887    1.525   .     S
C206   H1347   1.108   1_545 S
H207   C1802   1.108   1_554 S
O210   C211    1.415   .     S
C211   H212    1.108   .     S
C211   H213    1.101   .     S
C211   C214    1.534   .     S
C214   H215    1.109   .     S
C214   H900    1.109   .     S
C214   C901    1.536   .     S
H216   C1582   1.109   1_554 S
C217   H220    1.109   .     S
C217   H218    1.107   .     S
C217   C1582   1.536   1_554 S
C217   H447    1.108   .     S
H219   C673    1.108   1_545 S
C221   O223    1.392   .     S
C221   O222    1.222   .     D
O223   H224    1.013   .     S
C225   O227    1.397   .     S
C225   O226    1.220   .     D
O227   H228    1.013   .     S
C229   O253    1.301   .     A
C229   O251    1.311   .     A
C229   C240    1.469   .     S
C230   O252    1.310   .     A
C230   C239    1.469   .     S
C230   O254    1.303   .     A
C231   C233    1.444   .     S
C231   O257    1.307   .     A
C231   O255    1.290   .     A
C232   C234    1.438   .     S
C232   O256    1.293   .     A
C232   O258    1.300   .     A
C233   C386    1.348   1_455 S
C233   C411    1.476   1_455 S
C234   C309    1.348   .     S
C234   C339    1.471   .     S
C235   C240    1.421   .     A
C235   C267    1.486   .     S
C236   C271    1.484   .     S
C236   C239    1.418   .     A
C236   C466    1.391   .     S
C237   C239    1.400   .     A
C237   H247    1.083   .     S
C237   C463    1.392   .     S
C238   C240    1.401   .     A
C238   H248    1.082   .     S
C241   N250    1.369   .     A
C241   O275    1.392   .     S
C241   C1611   1.431   1_554 S
C242   N249    1.368   .     A
C242   O286    1.406   .     S
C242   C928    1.457   .     S
C243   C297    1.472   .     S
C243   N249    1.380   .     A
C243   C925    1.431   .     S
C244   N250    1.392   .     A
C244   C301    1.462   .     S
C244   C1610   1.457   1_554 S
Cu245  Cu246   2.714   .     S
Cu245  O258    1.977   .     S
Cu245  O251    1.982   .     S
Cu245  O254    1.985   .     S
Cu245  O255    1.991   .     S
Cu245  N249    2.039   .     S
Cu246  O252    1.982   .     S
Cu246  O257    1.977   .     S
Cu246  O253    1.985   .     S
Cu246  O256    1.991   .     S
Cu246  N250    2.039   .     S
C259   O261    1.399   .     S
C259   C309    1.476   .     S
C259   O336    1.217   .     S
O260   C411    1.217   1_455 S
O261   H262    1.013   .     S
C263   O264    1.219   .     D
C263   O265    1.398   .     S
C263   C386    1.471   1_455 S
O265   H266    1.013   .     S
C267   O269    1.396   .     S
C267   O268    1.220   .     D
O269   H270    1.014   .     S
C271   O272    1.217   .     D
C271   O273    1.394   .     S
O273   H274    1.014   .     S
O275   C276    1.423   .     S
C276   H278    1.115   .     S
C276   H277    1.107   .     S
C276   C279    1.540   .     S
C279   H280    1.109   .     S
C279   H1649   1.107   1_554 S
C279   C1650   1.525   1_554 S
H281   C963    1.107   .     S
C282   H284    1.106   .     S
C282   H285    1.109   .     S
C282   C963    1.525   .     S
C282   H739    1.108   .     S
H283   C1878   1.108   1_554 S
O286   C287    1.415   .     S
C287   H288    1.108   .     S
C287   H289    1.101   .     S
C287   C290    1.534   .     S
C290   H291    1.109   .     S
C290   H976    1.109   .     S
C290   C977    1.536   .     S
H292   C1658   1.109   1_554 S
C293   H296    1.109   .     S
C293   H294    1.107   .     S
C293   C1658   1.536   1_554 S
C293   H523    1.108   .     S
C297   O299    1.392   .     S
C297   O298    1.222   .     D
O299   H300    1.013   .     S
C301   O303    1.397   .     S
C301   O302    1.220   .     D
O303   H304    1.013   .     S
C305   O329    1.301   .     A
C305   O327    1.311   .     A
C305   C316    1.469   .     S
C306   O328    1.310   .     A
C306   C315    1.469   .     S
C306   O330    1.303   .     A
C307   C309    1.444   .     S
C307   O333    1.307   .     A
C307   O331    1.290   .     A
C308   C310    1.438   .     S
C308   O332    1.293   .     A
C308   O334    1.300   .     A
C310   C385    1.348   .     S
C310   C415    1.471   .     S
C311   C316    1.421   .     A
C311   C343    1.486   .     S
C312   C347    1.484   .     S
C312   C315    1.418   .     A
C312   C542    1.391   .     S
C313   C315    1.400   .     A
C313   H323    1.083   .     S
C313   C539    1.392   .     S
C314   C316    1.401   .     A
C314   H324    1.082   .     S
C317   N326    1.369   .     A
C317   O351    1.392   .     S
C317   C1687   1.431   1_554 S
C318   N325    1.368   .     A
C318   O362    1.406   .     S
C318   C1004   1.457   .     S
C319   C373    1.472   .     S
C319   N325    1.380   .     A
C319   C1001   1.431   .     S
C320   N326    1.392   .     A
C320   C377    1.462   .     S
C320   C1686   1.457   1_554 S
Cu321  Cu322   2.714   .     S
Cu321  O334    1.977   .     S
Cu321  O327    1.982   .     S
Cu321  O330    1.985   .     S
Cu321  O331    1.991   .     S
Cu321  N325    2.039   .     S
Cu322  O328    1.982   .     S
Cu322  O333    1.977   .     S
Cu322  O329    1.985   .     S
Cu322  O332    1.991   .     S
Cu322  N326    2.039   .     S
C335   O337    1.399   .     S
C335   C385    1.476   .     S
C335   O412    1.217   .     S
O337   H338    1.013   .     S
C339   O340    1.219   .     D
C339   O341    1.398   .     S
O341   H342    1.013   .     S
C343   O345    1.396   .     S
C343   O344    1.220   .     D
O345   H346    1.014   .     S
C347   O348    1.217   .     D
C347   O349    1.394   .     S
O349   H350    1.014   .     S
O351   C352    1.423   .     S
C352   H354    1.115   .     S
C352   H353    1.107   .     S
C352   C355    1.540   .     S
C355   H356    1.109   .     S
C355   H1725   1.107   1_554 S
C355   C1726   1.525   1_554 S
H357   C1039   1.107   .     S
C358   H360    1.106   .     S
C358   H361    1.109   .     S
C358   C1039   1.525   .     S
C358   H815    1.108   .     S
H359   C1954   1.108   1_554 S
O362   C363    1.415   .     S
C363   H364    1.108   .     S
C363   H365    1.101   .     S
C363   C366    1.534   .     S
C366   H367    1.109   .     S
C366   H1052   1.109   .     S
C366   C1053   1.536   .     S
H368   C1734   1.109   1_554 S
C369   H372    1.109   .     S
C369   H370    1.107   .     S
C369   C1734   1.536   1_554 S
C369   H599    1.108   .     S
C373   O375    1.392   .     S
C373   O374    1.222   .     D
O375   H376    1.013   .     S
C377   O379    1.397   .     S
C377   O378    1.220   .     D
O379   H380    1.013   .     S
C381   O405    1.301   .     A
C381   O403    1.311   .     A
C381   C392    1.469   .     S
C382   O404    1.310   .     A
C382   C391    1.469   .     S
C382   O406    1.303   .     A
C383   C385    1.444   .     S
C383   O409    1.307   .     A
C383   O407    1.290   .     A
C384   C386    1.438   .     S
C384   O408    1.293   .     A
C384   O410    1.300   .     A
C386   C233    1.348   1_655 S
C386   C263    1.471   1_655 S
C387   C392    1.421   .     A
C387   C419    1.486   .     S
C388   C423    1.484   .     S
C388   C391    1.418   .     A
C388   C618    1.391   .     S
C389   C391    1.400   .     A
C389   H399    1.083   .     S
C389   C615    1.392   .     S
C390   C392    1.401   .     A
C390   H400    1.082   .     S
C393   N402    1.369   .     A
C393   O427    1.392   .     S
C393   C1763   1.431   1_554 S
C394   N401    1.368   .     A
C394   O438    1.406   .     S
C394   C1080   1.457   .     S
C395   C449    1.472   .     S
C395   N401    1.380   .     A
C395   C1077   1.431   .     S
C396   N402    1.392   .     A
C396   C453    1.462   .     S
C396   C1762   1.457   1_554 S
Cu397  Cu398   2.714   .     S
Cu397  O410    1.977   .     S
Cu397  O403    1.982   .     S
Cu397  O406    1.985   .     S
Cu397  O407    1.991   .     S
Cu397  N401    2.039   .     S
Cu398  O404    1.982   .     S
Cu398  O409    1.977   .     S
Cu398  O405    1.985   .     S
Cu398  O408    1.991   .     S
Cu398  N402    2.039   .     S
C411   O413    1.399   .     S
C411   C233    1.476   1_655 S
C411   O260    1.217   1_655 S
O413   H414    1.013   .     S
C415   O416    1.219   .     D
C415   O417    1.398   .     S
O417   H418    1.013   .     S
C419   O421    1.396   .     S
C419   O420    1.220   .     D
O421   H422    1.014   .     S
C423   O424    1.217   .     D
C423   O425    1.394   .     S
O425   H426    1.014   .     S
O427   C428    1.423   .     S
C428   H430    1.115   .     S
C428   H429    1.107   .     S
C428   C431    1.540   .     S
C431   H432    1.109   .     S
C431   H1801   1.107   1_554 S
C431   C1802   1.525   1_554 S
H433   C1115   1.107   .     S
C434   H436    1.106   .     S
C434   H437    1.109   .     S
C434   C1115   1.525   .     S
C434   H891    1.108   .     S
H435   C2030   1.108   1_554 S
O438   C439    1.415   .     S
C439   H440    1.108   .     S
C439   H441    1.101   .     S
C439   C442    1.534   .     S
C442   H443    1.109   .     S
C442   H1128   1.109   .     S
C442   C1129   1.536   .     S
H444   C1810   1.109   1_554 S
C445   H448    1.109   .     S
C445   H446    1.107   .     S
C445   C1810   1.536   1_554 S
C445   H675    1.108   .     S
C449   O451    1.392   .     S
C449   O450    1.222   .     D
O451   H452    1.013   .     S
C453   O455    1.397   .     S
C453   O454    1.220   .     D
O455   H456    1.013   .     S
C457   O481    1.301   .     A
C457   O479    1.311   .     A
C457   C468    1.469   .     S
C458   O480    1.310   .     A
C458   C467    1.469   .     S
C458   O482    1.303   .     A
C459   C461    1.444   .     S
C459   O485    1.307   .     A
C459   O483    1.290   .     A
C460   C462    1.438   .     S
C460   O484    1.293   .     A
C460   O486    1.300   .     A
C461   C614    1.348   1_455 S
C461   C639    1.476   1_455 S
C462   C537    1.348   .     S
C462   C567    1.471   .     S
C463   C468    1.421   .     A
C463   C495    1.486   .     S
C464   C499    1.484   .     S
C464   C467    1.418   .     A
C464   C10     1.391   1_565 S
C465   C467    1.400   .     A
C465   H475    1.083   .     S
C465   C7      1.392   1_565 S
C466   C468    1.401   .     A
C466   H476    1.082   .     S
C469   N478    1.369   .     A
C469   O503    1.392   .     S
C469   C1839   1.431   1_554 S
C470   N477    1.368   .     A
C470   O514    1.406   .     S
C470   C1156   1.457   .     S
C471   C525    1.472   .     S
C471   N477    1.380   .     A
C471   C1153   1.431   .     S
C472   N478    1.392   .     A
C472   C529    1.462   .     S
C472   C1838   1.457   1_554 S
Cu473  Cu474   2.714   .     S
Cu473  O486    1.977   .     S
Cu473  O479    1.982   .     S
Cu473  O482    1.985   .     S
Cu473  O483    1.991   .     S
Cu473  N477    2.039   .     S
Cu474  O480    1.982   .     S
Cu474  O485    1.977   .     S
Cu474  O481    1.985   .     S
Cu474  O484    1.991   .     S
Cu474  N478    2.039   .     S
C487   O489    1.399   .     S
C487   C537    1.476   .     S
C487   O564    1.217   .     S
O488   C639    1.217   1_455 S
O489   H490    1.013   .     S
C491   O492    1.219   .     D
C491   O493    1.398   .     S
C491   C614    1.471   1_455 S
O493   H494    1.013   .     S
C495   O497    1.396   .     S
C495   O496    1.220   .     D
O497   H498    1.014   .     S
C499   O500    1.217   .     D
C499   O501    1.394   .     S
O501   H502    1.014   .     S
O503   C504    1.423   .     S
C504   H506    1.115   .     S
C504   H505    1.107   .     S
C504   C507    1.540   .     S
C507   H508    1.109   .     S
C507   H1877   1.107   1_554 S
C507   C1878   1.525   1_554 S
H509   C1191   1.107   .     S
C510   H512    1.106   .     S
C510   H513    1.109   .     S
C510   C1191   1.525   .     S
C510   H967    1.108   .     S
H511   C1422   1.108   1_564 S
O514   C515    1.415   .     S
C515   H516    1.108   .     S
C515   H517    1.101   .     S
C515   C518    1.534   .     S
C518   H519    1.109   .     S
C518   H1204   1.109   .     S
C518   C1205   1.536   .     S
H520   C1886   1.109   1_554 S
C521   H524    1.109   .     S
C521   H522    1.107   .     S
C521   C1886   1.536   1_554 S
C521   H67     1.108   1_565 S
C525   O527    1.392   .     S
C525   O526    1.222   .     D
O527   H528    1.013   .     S
C529   O531    1.397   .     S
C529   O530    1.220   .     D
O531   H532    1.013   .     S
C533   O557    1.301   .     A
C533   O555    1.311   .     A
C533   C544    1.469   .     S
C534   O556    1.310   .     A
C534   C543    1.469   .     S
C534   O558    1.303   .     A
C535   C537    1.444   .     S
C535   O561    1.307   .     A
C535   O559    1.290   .     A
C536   C538    1.438   .     S
C536   O560    1.293   .     A
C536   O562    1.300   .     A
C538   C613    1.348   .     S
C538   C643    1.471   .     S
C539   C544    1.421   .     A
C539   C571    1.486   .     S
C540   C575    1.484   .     S
C540   C543    1.418   .     A
C540   C86     1.391   1_565 S
C541   C543    1.400   .     A
C541   H551    1.083   .     S
C541   C83     1.392   1_565 S
C542   C544    1.401   .     A
C542   H552    1.082   .     S
C545   N554    1.369   .     A
C545   O579    1.392   .     S
C545   C1915   1.431   1_554 S
C546   N553    1.368   .     A
C546   O590    1.406   .     S
C546   C1232   1.457   .     S
C547   C601    1.472   .     S
C547   N553    1.380   .     A
C547   C1229   1.431   .     S
C548   N554    1.392   .     A
C548   C605    1.462   .     S
C548   C1914   1.457   1_554 S
Cu549  Cu550   2.714   .     S
Cu549  O562    1.977   .     S
Cu549  O555    1.982   .     S
Cu549  O558    1.985   .     S
Cu549  O559    1.991   .     S
Cu549  N553    2.039   .     S
Cu550  O556    1.982   .     S
Cu550  O561    1.977   .     S
Cu550  O557    1.985   .     S
Cu550  O560    1.991   .     S
Cu550  N554    2.039   .     S
C563   O565    1.399   .     S
C563   C613    1.476   .     S
C563   O640    1.217   .     S
O565   H566    1.013   .     S
C567   O568    1.219   .     D
C567   O569    1.398   .     S
O569   H570    1.013   .     S
C571   O573    1.396   .     S
C571   O572    1.220   .     D
O573   H574    1.014   .     S
C575   O576    1.217   .     D
C575   O577    1.394   .     S
O577   H578    1.014   .     S
O579   C580    1.423   .     S
C580   H582    1.115   .     S
C580   H581    1.107   .     S
C580   C583    1.540   .     S
C583   H584    1.109   .     S
C583   H1953   1.107   1_554 S
C583   C1954   1.525   1_554 S
H585   C1267   1.107   .     S
C586   H588    1.106   .     S
C586   H589    1.109   .     S
C586   C1267   1.525   .     S
C586   H1043   1.108   .     S
H587   C1498   1.108   1_564 S
O590   C591    1.415   .     S
C591   H592    1.108   .     S
C591   H593    1.101   .     S
C591   C594    1.534   .     S
C594   H595    1.109   .     S
C594   H1280   1.109   .     S
C594   C1281   1.536   .     S
H596   C1962   1.109   1_554 S
C597   H600    1.109   .     S
C597   H598    1.107   .     S
C597   C1962   1.536   1_554 S
C597   H143    1.108   1_565 S
C601   O603    1.392   .     S
C601   O602    1.222   .     D
O603   H604    1.013   .     S
C605   O607    1.397   .     S
C605   O606    1.220   .     D
O607   H608    1.013   .     S
C609   O633    1.301   .     A
C609   O631    1.311   .     A
C609   C620    1.469   .     S
C610   O632    1.310   .     A
C610   C619    1.469   .     S
C610   O634    1.303   .     A
C611   C613    1.444   .     S
C611   O637    1.307   .     A
C611   O635    1.290   .     A
C612   C614    1.438   .     S
C612   O636    1.293   .     A
C612   O638    1.300   .     A
C614   C461    1.348   1_655 S
C614   C491    1.471   1_655 S
C615   C620    1.421   .     A
C615   C647    1.486   .     S
C616   C651    1.484   .     S
C616   C619    1.418   .     A
C616   C162    1.391   1_565 S
C617   C619    1.400   .     A
C617   H627    1.083   .     S
C617   C159    1.392   1_565 S
C618   C620    1.401   .     A
C618   H628    1.082   .     S
C621   N630    1.369   .     A
C621   O655    1.392   .     S
C621   C1991   1.431   1_554 S
C622   N629    1.368   .     A
C622   O666    1.406   .     S
C622   C1308   1.457   .     S
C623   C677    1.472   .     S
C623   N629    1.380   .     A
C623   C1305   1.431   .     S
C624   N630    1.392   .     A
C624   C681    1.462   .     S
C624   C1990   1.457   1_554 S
Cu625  Cu626   2.714   .     S
Cu625  O638    1.977   .     S
Cu625  O631    1.982   .     S
Cu625  O634    1.985   .     S
Cu625  O635    1.991   .     S
Cu625  N629    2.039   .     S
Cu626  O632    1.982   .     S
Cu626  O637    1.977   .     S
Cu626  O633    1.985   .     S
Cu626  O636    1.991   .     S
Cu626  N630    2.039   .     S
C639   O641    1.399   .     S
C639   C461    1.476   1_655 S
C639   O488    1.217   1_655 S
O641   H642    1.013   .     S
C643   O644    1.219   .     D
C643   O645    1.398   .     S
O645   H646    1.013   .     S
C647   O649    1.396   .     S
C647   O648    1.220   .     D
O649   H650    1.014   .     S
C651   O652    1.217   .     D
C651   O653    1.394   .     S
O653   H654    1.014   .     S
O655   C656    1.423   .     S
C656   H658    1.115   .     S
C656   H657    1.107   .     S
C656   C659    1.540   .     S
C659   H660    1.109   .     S
C659   H2029   1.107   1_554 S
C659   C2030   1.525   1_554 S
H661   C1343   1.107   .     S
C662   H664    1.106   .     S
C662   H665    1.109   .     S
C662   C1343   1.525   .     S
C662   H1119   1.108   .     S
H663   C1574   1.108   1_564 S
O666   C667    1.415   .     S
C667   H668    1.108   .     S
C667   H669    1.101   .     S
C667   C670    1.534   .     S
C670   H671    1.109   .     S
C670   H1356   1.109   .     S
C670   C1357   1.536   .     S
H672   C2038   1.109   1_554 S
C673   H676    1.109   .     S
C673   H674    1.107   .     S
C673   C2038   1.536   1_554 S
C673   H219    1.108   1_565 S
C677   O679    1.392   .     S
C677   O678    1.222   .     D
O679   H680    1.013   .     S
C681   O683    1.397   .     S
C681   O682    1.220   .     D
O683   H684    1.013   .     S
C685   O709    1.301   .     A
C685   O707    1.311   .     A
C685   C696    1.469   .     S
C686   O708    1.310   .     A
C686   C695    1.469   .     S
C686   O710    1.303   .     A
C687   C689    1.444   .     S
C687   O713    1.307   .     A
C687   O711    1.290   .     A
C688   C690    1.438   .     S
C688   O712    1.293   .     A
C688   O714    1.300   .     A
C689   C842    1.348   1_455 S
C689   C867    1.476   1_455 S
C690   C765    1.348   .     S
C690   C795    1.471   .     S
C691   C696    1.421   .     A
C691   C723    1.486   .     S
C691   C1149   1.392   1_545 S
C692   C727    1.484   .     S
C692   C695    1.418   .     A
C692   C922    1.391   .     S
C693   C695    1.400   .     A
C693   H703    1.083   .     S
C693   C919    1.392   .     S
C694   C696    1.401   .     A
C694   H704    1.082   .     S
C694   C1148   1.391   1_545 S
C697   N706    1.369   .     A
C697   O731    1.392   .     S
C698   N705    1.368   .     A
C698   O742    1.406   .     S
C698   C1384   1.457   .     S
C699   C753    1.472   .     S
C699   N705    1.380   .     A
C699   C1381   1.431   .     S
C700   N706    1.392   .     A
C700   C757    1.462   .     S
Cu701  Cu702   2.714   .     S
Cu701  O714    1.977   .     S
Cu701  O707    1.982   .     S
Cu701  O710    1.985   .     S
Cu701  O711    1.991   .     S
Cu701  N705    2.039   .     S
Cu702  O708    1.982   .     S
Cu702  O713    1.977   .     S
Cu702  O709    1.985   .     S
Cu702  O712    1.991   .     S
Cu702  N706    2.039   .     S
C715   O717    1.399   .     S
C715   C765    1.476   .     S
C715   O792    1.217   .     S
O716   C867    1.217   1_455 S
O717   H718    1.013   .     S
C719   O720    1.219   .     D
C719   O721    1.398   .     S
C719   C842    1.471   1_455 S
O721   H722    1.013   .     S
C723   O725    1.396   .     S
C723   O724    1.220   .     D
O725   H726    1.014   .     S
C727   O728    1.217   .     D
C727   O729    1.394   .     S
O729   H730    1.014   .     S
O731   C732    1.423   .     S
C732   H734    1.115   .     S
C732   H733    1.107   .     S
C732   C735    1.540   .     S
C735   H736    1.109   .     S
H737   C1419   1.107   .     S
C738   H740    1.106   .     S
C738   H741    1.109   .     S
C738   C1419   1.525   .     S
C738   H1879   1.108   1_545 S
O742   C743    1.415   .     S
C743   H744    1.108   .     S
C743   H745    1.101   .     S
C743   C746    1.534   .     S
C746   H747    1.109   .     S
C746   H1432   1.109   .     S
C746   C1433   1.536   .     S
C749   H752    1.109   .     S
C749   H750    1.107   .     S
C749   H979    1.108   .     S
H751   C1205   1.108   1_545 S
C753   O755    1.392   .     S
C753   O754    1.222   .     D
O755   H756    1.013   .     S
C757   O759    1.397   .     S
C757   O758    1.220   .     D
O759   H760    1.013   .     S
C761   O785    1.301   .     A
C761   O783    1.311   .     A
C761   C772    1.469   .     S
C762   O784    1.310   .     A
C762   C771    1.469   .     S
C762   O786    1.303   .     A
C763   C765    1.444   .     S
C763   O789    1.307   .     A
C763   O787    1.290   .     A
C764   C766    1.438   .     S
C764   O788    1.293   .     A
C764   O790    1.300   .     A
C766   C841    1.348   .     S
C766   C871    1.471   .     S
C767   C772    1.421   .     A
C767   C799    1.486   .     S
C767   C1225   1.392   1_545 S
C768   C803    1.484   .     S
C768   C771    1.418   .     A
C768   C998    1.391   .     S
C769   C771    1.400   .     A
C769   H779    1.083   .     S
C769   C995    1.392   .     S
C770   C772    1.401   .     A
C770   H780    1.082   .     S
C770   C1224   1.391   1_545 S
C773   N782    1.369   .     A
C773   O807    1.392   .     S
C774   N781    1.368   .     A
C774   O818    1.406   .     S
C774   C1460   1.457   .     S
C775   C829    1.472   .     S
C775   N781    1.380   .     A
C775   C1457   1.431   .     S
C776   N782    1.392   .     A
C776   C833    1.462   .     S
Cu777  Cu778   2.714   .     S
Cu777  O790    1.977   .     S
Cu777  O783    1.982   .     S
Cu777  O786    1.985   .     S
Cu777  O787    1.991   .     S
Cu777  N781    2.039   .     S
Cu778  O784    1.982   .     S
Cu778  O789    1.977   .     S
Cu778  O785    1.985   .     S
Cu778  O788    1.991   .     S
Cu778  N782    2.039   .     S
C791   O793    1.399   .     S
C791   C841    1.476   .     S
C791   O868    1.217   .     S
O793   H794    1.013   .     S
C795   O796    1.219   .     D
C795   O797    1.398   .     S
O797   H798    1.013   .     S
C799   O801    1.396   .     S
C799   O800    1.220   .     D
O801   H802    1.014   .     S
C803   O804    1.217   .     D
C803   O805    1.394   .     S
O805   H806    1.014   .     S
O807   C808    1.423   .     S
C808   H810    1.115   .     S
C808   H809    1.107   .     S
C808   C811    1.540   .     S
C811   H812    1.109   .     S
H813   C1495   1.107   .     S
C814   H816    1.106   .     S
C814   H817    1.109   .     S
C814   C1495   1.525   .     S
C814   H1955   1.108   1_545 S
O818   C819    1.415   .     S
C819   H820    1.108   .     S
C819   H821    1.101   .     S
C819   C822    1.534   .     S
C822   H823    1.109   .     S
C822   H1508   1.109   .     S
C822   C1509   1.536   .     S
C825   H828    1.109   .     S
C825   H826    1.107   .     S
C825   H1055   1.108   .     S
H827   C1281   1.108   1_545 S
C829   O831    1.392   .     S
C829   O830    1.222   .     D
O831   H832    1.013   .     S
C833   O835    1.397   .     S
C833   O834    1.220   .     D
O835   H836    1.013   .     S
C837   O861    1.301   .     A
C837   O859    1.311   .     A
C837   C848    1.469   .     S
C838   O860    1.310   .     A
C838   C847    1.469   .     S
C838   O862    1.303   .     A
C839   C841    1.444   .     S
C839   O865    1.307   .     A
C839   O863    1.290   .     A
C840   C842    1.438   .     S
C840   O864    1.293   .     A
C840   O866    1.300   .     A
C842   C689    1.348   1_655 S
C842   C719    1.471   1_655 S
C843   C848    1.421   .     A
C843   C875    1.486   .     S
C843   C1301   1.392   1_545 S
C844   C879    1.484   .     S
C844   C847    1.418   .     A
C844   C1074   1.391   .     S
C845   C847    1.400   .     A
C845   H855    1.083   .     S
C845   C1071   1.392   .     S
C846   C848    1.401   .     A
C846   H856    1.082   .     S
C846   C1300   1.391   1_545 S
C849   N858    1.369   .     A
C849   O883    1.392   .     S
C850   N857    1.368   .     A
C850   O894    1.406   .     S
C850   C1536   1.457   .     S
C851   C905    1.472   .     S
C851   N857    1.380   .     A
C851   C1533   1.431   .     S
C852   N858    1.392   .     A
C852   C909    1.462   .     S
Cu853  Cu854   2.714   .     S
Cu853  O866    1.977   .     S
Cu853  O859    1.982   .     S
Cu853  O862    1.985   .     S
Cu853  O863    1.991   .     S
Cu853  N857    2.039   .     S
Cu854  O860    1.982   .     S
Cu854  O865    1.977   .     S
Cu854  O861    1.985   .     S
Cu854  O864    1.991   .     S
Cu854  N858    2.039   .     S
C867   O869    1.399   .     S
C867   C689    1.476   1_655 S
C867   O716    1.217   1_655 S
O869   H870    1.013   .     S
C871   O872    1.219   .     D
C871   O873    1.398   .     S
O873   H874    1.013   .     S
C875   O877    1.396   .     S
C875   O876    1.220   .     D
O877   H878    1.014   .     S
C879   O880    1.217   .     D
C879   O881    1.394   .     S
O881   H882    1.014   .     S
O883   C884    1.423   .     S
C884   H886    1.115   .     S
C884   H885    1.107   .     S
C884   C887    1.540   .     S
C887   H888    1.109   .     S
H889   C1571   1.107   .     S
C890   H892    1.106   .     S
C890   H893    1.109   .     S
C890   C1571   1.525   .     S
C890   H2031   1.108   1_545 S
O894   C895    1.415   .     S
C895   H896    1.108   .     S
C895   H897    1.101   .     S
C895   C898    1.534   .     S
C898   H899    1.109   .     S
C898   H1584   1.109   .     S
C898   C1585   1.536   .     S
C901   H904    1.109   .     S
C901   H902    1.107   .     S
C901   H1131   1.108   .     S
H903   C1357   1.108   1_545 S
C905   O907    1.392   .     S
C905   O906    1.222   .     D
O907   H908    1.013   .     S
C909   O911    1.397   .     S
C909   O910    1.220   .     D
O911   H912    1.013   .     S
C913   O937    1.301   .     A
C913   O935    1.311   .     A
C913   C924    1.469   .     S
C914   O936    1.310   .     A
C914   C923    1.469   .     S
C914   O938    1.303   .     A
C915   C917    1.444   .     S
C915   O941    1.307   .     A
C915   O939    1.290   .     A
C916   C918    1.438   .     S
C916   O940    1.293   .     A
C916   O942    1.300   .     A
C917   C1070   1.348   1_455 S
C917   C1095   1.476   1_455 S
C918   C993    1.348   .     S
C918   C1023   1.471   .     S
C919   C924    1.421   .     A
C919   C951    1.486   .     S
C920   C955    1.484   .     S
C920   C923    1.418   .     A
C920   C1150   1.391   .     S
C921   C923    1.400   .     A
C921   H931    1.083   .     S
C921   C1147   1.392   .     S
C922   C924    1.401   .     A
C922   H932    1.082   .     S
C925   N934    1.369   .     A
C925   O959    1.392   .     S
C926   N933    1.368   .     A
C926   O970    1.406   .     S
C926   C1612   1.457   .     S
C927   C981    1.472   .     S
C927   N933    1.380   .     A
C927   C1609   1.431   .     S
C928   N934    1.392   .     A
C928   C985    1.462   .     S
Cu929  Cu930   2.714   .     S
Cu929  O942    1.977   .     S
Cu929  O935    1.982   .     S
Cu929  O938    1.985   .     S
Cu929  O939    1.991   .     S
Cu929  N933    2.039   .     S
Cu930  O936    1.982   .     S
Cu930  O941    1.977   .     S
Cu930  O937    1.985   .     S
Cu930  O940    1.991   .     S
Cu930  N934    2.039   .     S
C943   O945    1.399   .     S
C943   C993    1.476   .     S
C943   O1020   1.217   .     S
O944   C1095   1.217   1_455 S
O945   H946    1.013   .     S
C947   O948    1.219   .     D
C947   O949    1.398   .     S
C947   C1070   1.471   1_455 S
O949   H950    1.013   .     S
C951   O953    1.396   .     S
C951   O952    1.220   .     D
O953   H954    1.014   .     S
C955   O956    1.217   .     D
C955   O957    1.394   .     S
O957   H958    1.014   .     S
O959   C960    1.423   .     S
C960   H962    1.115   .     S
C960   H961    1.107   .     S
C960   C963    1.540   .     S
C963   H964    1.109   .     S
H965   C1647   1.107   .     S
C966   H968    1.106   .     S
C966   H969    1.109   .     S
C966   C1647   1.525   .     S
C966   H1423   1.108   .     S
O970   C971    1.415   .     S
C971   H972    1.108   .     S
C971   H973    1.101   .     S
C971   C974    1.534   .     S
C974   H975    1.109   .     S
C974   H1660   1.109   .     S
C974   C1661   1.536   .     S
C977   H980    1.109   .     S
C977   H978    1.107   .     S
C977   H1207   1.108   .     S
C981   O983    1.392   .     S
C981   O982    1.222   .     D
O983   H984    1.013   .     S
C985   O987    1.397   .     S
C985   O986    1.220   .     D
O987   H988    1.013   .     S
C989   O1013   1.301   .     A
C989   O1011   1.311   .     A
C989   C1000   1.469   .     S
C990   O1012   1.310   .     A
C990   C999    1.469   .     S
C990   O1014   1.303   .     A
C991   C993    1.444   .     S
C991   O1017   1.307   .     A
C991   O1015   1.290   .     A
C992   C994    1.438   .     S
C992   O1016   1.293   .     A
C992   O1018   1.300   .     A
C994   C1069   1.348   .     S
C994   C1099   1.471   .     S
C995   C1000   1.421   .     A
C995   C1027   1.486   .     S
C996   C1031   1.484   .     S
C996   C999    1.418   .     A
C996   C1226   1.391   .     S
C997   C999    1.400   .     A
C997   H1007   1.083   .     S
C997   C1223   1.392   .     S
C998   C1000   1.401   .     A
C998   H1008   1.082   .     S
C1001  N1010   1.369   .     A
C1001  O1035   1.392   .     S
C1002  N1009   1.368   .     A
C1002  O1046   1.406   .     S
C1002  C1688   1.457   .     S
C1003  C1057   1.472   .     S
C1003  N1009   1.380   .     A
C1003  C1685   1.431   .     S
C1004  N1010   1.392   .     A
C1004  C1061   1.462   .     S
Cu1005 Cu1006  2.714   .     S
Cu1005 O1018   1.977   .     S
Cu1005 O1011   1.982   .     S
Cu1005 O1014   1.985   .     S
Cu1005 O1015   1.991   .     S
Cu1005 N1009   2.039   .     S
Cu1006 O1012   1.982   .     S
Cu1006 O1017   1.977   .     S
Cu1006 O1013   1.985   .     S
Cu1006 O1016   1.991   .     S
Cu1006 N1010   2.039   .     S
C1019  O1021   1.399   .     S
C1019  C1069   1.476   .     S
C1019  O1096   1.217   .     S
O1021  H1022   1.013   .     S
C1023  O1024   1.219   .     D
C1023  O1025   1.398   .     S
O1025  H1026   1.013   .     S
C1027  O1029   1.396   .     S
C1027  O1028   1.220   .     D
O1029  H1030   1.014   .     S
C1031  O1032   1.217   .     D
C1031  O1033   1.394   .     S
O1033  H1034   1.014   .     S
O1035  C1036   1.423   .     S
C1036  H1038   1.115   .     S
C1036  H1037   1.107   .     S
C1036  C1039   1.540   .     S
C1039  H1040   1.109   .     S
H1041  C1723   1.107   .     S
C1042  H1044   1.106   .     S
C1042  H1045   1.109   .     S
C1042  C1723   1.525   .     S
C1042  H1499   1.108   .     S
O1046  C1047   1.415   .     S
C1047  H1048   1.108   .     S
C1047  H1049   1.101   .     S
C1047  C1050   1.534   .     S
C1050  H1051   1.109   .     S
C1050  H1736   1.109   .     S
C1050  C1737   1.536   .     S
C1053  H1056   1.109   .     S
C1053  H1054   1.107   .     S
C1053  H1283   1.108   .     S
C1057  O1059   1.392   .     S
C1057  O1058   1.222   .     D
O1059  H1060   1.013   .     S
C1061  O1063   1.397   .     S
C1061  O1062   1.220   .     D
O1063  H1064   1.013   .     S
C1065  O1089   1.301   .     A
C1065  O1087   1.311   .     A
C1065  C1076   1.469   .     S
C1066  O1088   1.310   .     A
C1066  C1075   1.469   .     S
C1066  O1090   1.303   .     A
C1067  C1069   1.444   .     S
C1067  O1093   1.307   .     A
C1067  O1091   1.290   .     A
C1068  C1070   1.438   .     S
C1068  O1092   1.293   .     A
C1068  O1094   1.300   .     A
C1070  C917    1.348   1_655 S
C1070  C947    1.471   1_655 S
C1071  C1076   1.421   .     A
C1071  C1103   1.486   .     S
C1072  C1107   1.484   .     S
C1072  C1075   1.418   .     A
C1072  C1302   1.391   .     S
C1073  C1075   1.400   .     A
C1073  H1083   1.083   .     S
C1073  C1299   1.392   .     S
C1074  C1076   1.401   .     A
C1074  H1084   1.082   .     S
C1077  N1086   1.369   .     A
C1077  O1111   1.392   .     S
C1078  N1085   1.368   .     A
C1078  O1122   1.406   .     S
C1078  C1764   1.457   .     S
C1079  C1133   1.472   .     S
C1079  N1085   1.380   .     A
C1079  C1761   1.431   .     S
C1080  N1086   1.392   .     A
C1080  C1137   1.462   .     S
Cu1081 Cu1082  2.714   .     S
Cu1081 O1094   1.977   .     S
Cu1081 O1087   1.982   .     S
Cu1081 O1090   1.985   .     S
Cu1081 O1091   1.991   .     S
Cu1081 N1085   2.039   .     S
Cu1082 O1088   1.982   .     S
Cu1082 O1093   1.977   .     S
Cu1082 O1089   1.985   .     S
Cu1082 O1092   1.991   .     S
Cu1082 N1086   2.039   .     S
C1095  O1097   1.399   .     S
C1095  C917    1.476   1_655 S
C1095  O944    1.217   1_655 S
O1097  H1098   1.013   .     S
C1099  O1100   1.219   .     D
C1099  O1101   1.398   .     S
O1101  H1102   1.013   .     S
C1103  O1105   1.396   .     S
C1103  O1104   1.220   .     D
O1105  H1106   1.014   .     S
C1107  O1108   1.217   .     D
C1107  O1109   1.394   .     S
O1109  H1110   1.014   .     S
O1111  C1112   1.423   .     S
C1112  H1114   1.115   .     S
C1112  H1113   1.107   .     S
C1112  C1115   1.540   .     S
C1115  H1116   1.109   .     S
H1117  C1799   1.107   .     S
C1118  H1120   1.106   .     S
C1118  H1121   1.109   .     S
C1118  C1799   1.525   .     S
C1118  H1575   1.108   .     S
O1122  C1123   1.415   .     S
C1123  H1124   1.108   .     S
C1123  H1125   1.101   .     S
C1123  C1126   1.534   .     S
C1126  H1127   1.109   .     S
C1126  H1812   1.109   .     S
C1126  C1813   1.536   .     S
C1129  H1132   1.109   .     S
C1129  H1130   1.107   .     S
C1129  H1359   1.108   .     S
C1133  O1135   1.392   .     S
C1133  O1134   1.222   .     D
O1135  H1136   1.013   .     S
C1137  O1139   1.397   .     S
C1137  O1138   1.220   .     D
O1139  H1140   1.013   .     S
C1141  O1165   1.301   .     A
C1141  O1163   1.311   .     A
C1141  C1152   1.469   .     S
C1142  O1164   1.310   .     A
C1142  C1151   1.469   .     S
C1142  O1166   1.303   .     A
C1143  C1145   1.444   .     S
C1143  O1169   1.307   .     A
C1143  O1167   1.290   .     A
C1144  C1146   1.438   .     S
C1144  O1168   1.293   .     A
C1144  O1170   1.300   .     A
C1145  C1298   1.348   1_455 S
C1145  C1323   1.476   1_455 S
C1146  C1221   1.348   .     S
C1146  C1251   1.471   .     S
C1147  C1152   1.421   .     A
C1147  C1179   1.486   .     S
C1148  C1183   1.484   .     S
C1148  C1151   1.418   .     A
C1148  C694    1.391   1_565 S
C1149  C1151   1.400   .     A
C1149  H1159   1.083   .     S
C1149  C691    1.392   1_565 S
C1150  C1152   1.401   .     A
C1150  H1160   1.082   .     S
C1153  N1162   1.369   .     A
C1153  O1187   1.392   .     S
C1154  N1161   1.368   .     A
C1154  O1198   1.406   .     S
C1154  C1840   1.457   .     S
C1155  C1209   1.472   .     S
C1155  N1161   1.380   .     A
C1155  C1837   1.431   .     S
C1156  N1162   1.392   .     A
C1156  C1213   1.462   .     S
Cu1157 Cu1158  2.714   .     S
Cu1157 O1170   1.977   .     S
Cu1157 O1163   1.982   .     S
Cu1157 O1166   1.985   .     S
Cu1157 O1167   1.991   .     S
Cu1157 N1161   2.039   .     S
Cu1158 O1164   1.982   .     S
Cu1158 O1169   1.977   .     S
Cu1158 O1165   1.985   .     S
Cu1158 O1168   1.991   .     S
Cu1158 N1162   2.039   .     S
C1171  O1173   1.399   .     S
C1171  C1221   1.476   .     S
C1171  O1248   1.217   .     S
O1172  C1323   1.217   1_455 S
O1173  H1174   1.013   .     S
C1175  O1176   1.219   .     D
C1175  O1177   1.398   .     S
C1175  C1298   1.471   1_455 S
O1177  H1178   1.013   .     S
C1179  O1181   1.396   .     S
C1179  O1180   1.220   .     D
O1181  H1182   1.014   .     S
C1183  O1184   1.217   .     D
C1183  O1185   1.394   .     S
O1185  H1186   1.014   .     S
O1187  C1188   1.423   .     S
C1188  H1190   1.115   .     S
C1188  H1189   1.107   .     S
C1188  C1191   1.540   .     S
C1191  H1192   1.109   .     S
H1193  C1875   1.107   .     S
C1194  H1196   1.106   .     S
C1194  H1197   1.109   .     S
C1194  C1875   1.525   .     S
C1194  H1651   1.108   .     S
H1195  C54     1.108   1_565 S
O1198  C1199   1.415   .     S
C1199  H1200   1.108   .     S
C1199  H1201   1.101   .     S
C1199  C1202   1.534   .     S
C1202  H1203   1.109   .     S
C1202  H1888   1.109   .     S
C1202  C1889   1.536   .     S
C1205  H1208   1.109   .     S
C1205  H1206   1.107   .     S
C1205  H751    1.108   1_565 S
C1209  O1211   1.392   .     S
C1209  O1210   1.222   .     D
O1211  H1212   1.013   .     S
C1213  O1215   1.397   .     S
C1213  O1214   1.220   .     D
O1215  H1216   1.013   .     S
C1217  O1241   1.301   .     A
C1217  O1239   1.311   .     A
C1217  C1228   1.469   .     S
C1218  O1240   1.310   .     A
C1218  C1227   1.469   .     S
C1218  O1242   1.303   .     A
C1219  C1221   1.444   .     S
C1219  O1245   1.307   .     A
C1219  O1243   1.290   .     A
C1220  C1222   1.438   .     S
C1220  O1244   1.293   .     A
C1220  O1246   1.300   .     A
C1222  C1297   1.348   .     S
C1222  C1327   1.471   .     S
C1223  C1228   1.421   .     A
C1223  C1255   1.486   .     S
C1224  C1259   1.484   .     S
C1224  C1227   1.418   .     A
C1224  C770    1.391   1_565 S
C1225  C1227   1.400   .     A
C1225  H1235   1.083   .     S
C1225  C767    1.392   1_565 S
C1226  C1228   1.401   .     A
C1226  H1236   1.082   .     S
C1229  N1238   1.369   .     A
C1229  O1263   1.392   .     S
C1230  N1237   1.368   .     A
C1230  O1274   1.406   .     S
C1230  C1916   1.457   .     S
C1231  C1285   1.472   .     S
C1231  N1237   1.380   .     A
C1231  C1913   1.431   .     S
C1232  N1238   1.392   .     A
C1232  C1289   1.462   .     S
Cu1233 Cu1234  2.714   .     S
Cu1233 O1246   1.977   .     S
Cu1233 O1239   1.982   .     S
Cu1233 O1242   1.985   .     S
Cu1233 O1243   1.991   .     S
Cu1233 N1237   2.039   .     S
Cu1234 O1240   1.982   .     S
Cu1234 O1245   1.977   .     S
Cu1234 O1241   1.985   .     S
Cu1234 O1244   1.991   .     S
Cu1234 N1238   2.039   .     S
C1247  O1249   1.399   .     S
C1247  C1297   1.476   .     S
C1247  O1324   1.217   .     S
O1249  H1250   1.013   .     S
C1251  O1252   1.219   .     D
C1251  O1253   1.398   .     S
O1253  H1254   1.013   .     S
C1255  O1257   1.396   .     S
C1255  O1256   1.220   .     D
O1257  H1258   1.014   .     S
C1259  O1260   1.217   .     D
C1259  O1261   1.394   .     S
O1261  H1262   1.014   .     S
O1263  C1264   1.423   .     S
C1264  H1266   1.115   .     S
C1264  H1265   1.107   .     S
C1264  C1267   1.540   .     S
C1267  H1268   1.109   .     S
H1269  C1951   1.107   .     S
C1270  H1272   1.106   .     S
C1270  H1273   1.109   .     S
C1270  C1951   1.525   .     S
C1270  H1727   1.108   .     S
H1271  C130    1.108   1_565 S
O1274  C1275   1.415   .     S
C1275  H1276   1.108   .     S
C1275  H1277   1.101   .     S
C1275  C1278   1.534   .     S
C1278  H1279   1.109   .     S
C1278  H1964   1.109   .     S
C1278  C1965   1.536   .     S
C1281  H1284   1.109   .     S
C1281  H1282   1.107   .     S
C1281  H827    1.108   1_565 S
C1285  O1287   1.392   .     S
C1285  O1286   1.222   .     D
O1287  H1288   1.013   .     S
C1289  O1291   1.397   .     S
C1289  O1290   1.220   .     D
O1291  H1292   1.013   .     S
C1293  O1317   1.301   .     A
C1293  O1315   1.311   .     A
C1293  C1304   1.469   .     S
C1294  O1316   1.310   .     A
C1294  C1303   1.469   .     S
C1294  O1318   1.303   .     A
C1295  C1297   1.444   .     S
C1295  O1321   1.307   .     A
C1295  O1319   1.290   .     A
C1296  C1298   1.438   .     S
C1296  O1320   1.293   .     A
C1296  O1322   1.300   .     A
C1298  C1145   1.348   1_655 S
C1298  C1175   1.471   1_655 S
C1299  C1304   1.421   .     A
C1299  C1331   1.486   .     S
C1300  C1335   1.484   .     S
C1300  C1303   1.418   .     A
C1300  C846    1.391   1_565 S
C1301  C1303   1.400   .     A
C1301  H1311   1.083   .     S
C1301  C843    1.392   1_565 S
C1302  C1304   1.401   .     A
C1302  H1312   1.082   .     S
C1305  N1314   1.369   .     A
C1305  O1339   1.392   .     S
C1306  N1313   1.368   .     A
C1306  O1350   1.406   .     S
C1306  C1992   1.457   .     S
C1307  C1361   1.472   .     S
C1307  N1313   1.380   .     A
C1307  C1989   1.431   .     S
C1308  N1314   1.392   .     A
C1308  C1365   1.462   .     S
Cu1309 Cu1310  2.714   .     S
Cu1309 O1322   1.977   .     S
Cu1309 O1315   1.982   .     S
Cu1309 O1318   1.985   .     S
Cu1309 O1319   1.991   .     S
Cu1309 N1313   2.039   .     S
Cu1310 O1316   1.982   .     S
Cu1310 O1321   1.977   .     S
Cu1310 O1317   1.985   .     S
Cu1310 O1320   1.991   .     S
Cu1310 N1314   2.039   .     S
C1323  O1325   1.399   .     S
C1323  C1145   1.476   1_655 S
C1323  O1172   1.217   1_655 S
O1325  H1326   1.013   .     S
C1327  O1328   1.219   .     D
C1327  O1329   1.398   .     S
O1329  H1330   1.013   .     S
C1331  O1333   1.396   .     S
C1331  O1332   1.220   .     D
O1333  H1334   1.014   .     S
C1335  O1336   1.217   .     D
C1335  O1337   1.394   .     S
O1337  H1338   1.014   .     S
O1339  C1340   1.423   .     S
C1340  H1342   1.115   .     S
C1340  H1341   1.107   .     S
C1340  C1343   1.540   .     S
C1343  H1344   1.109   .     S
H1345  C2027   1.107   .     S
C1346  H1348   1.106   .     S
C1346  H1349   1.109   .     S
C1346  C2027   1.525   .     S
C1346  H1803   1.108   .     S
H1347  C206    1.108   1_565 S
O1350  C1351   1.415   .     S
C1351  H1352   1.108   .     S
C1351  H1353   1.101   .     S
C1351  C1354   1.534   .     S
C1354  H1355   1.109   .     S
C1354  H2040   1.109   .     S
C1354  C2041   1.536   .     S
C1357  H1360   1.109   .     S
C1357  H1358   1.107   .     S
C1357  H903    1.108   1_565 S
C1361  O1363   1.392   .     S
C1361  O1362   1.222   .     D
O1363  H1364   1.013   .     S
C1365  O1367   1.397   .     S
C1365  O1366   1.220   .     D
O1367  H1368   1.013   .     S
C1369  O1393   1.301   .     A
C1369  O1391   1.311   .     A
C1369  C1380   1.469   .     S
C1370  O1392   1.310   .     A
C1370  C1379   1.469   .     S
C1370  O1394   1.303   .     A
C1371  C1373   1.444   .     S
C1371  O1397   1.307   .     A
C1371  O1395   1.290   .     A
C1372  C1374   1.438   .     S
C1372  O1396   1.293   .     A
C1372  O1398   1.300   .     A
C1373  C1526   1.348   1_455 S
C1373  C1551   1.476   1_455 S
C1374  C1449   1.348   .     S
C1374  C1479   1.471   .     S
C1375  C1380   1.421   .     A
C1375  C1407   1.486   .     S
C1375  C1833   1.392   1_545 S
C1376  C1411   1.484   .     S
C1376  C1379   1.418   .     A
C1376  C1606   1.391   .     S
C1377  C1379   1.400   .     A
C1377  H1387   1.083   .     S
C1377  C1603   1.392   .     S
C1378  C1380   1.401   .     A
C1378  H1388   1.082   .     S
C1378  C1832   1.391   1_545 S
C1381  N1390   1.369   .     A
C1381  O1415   1.392   .     S
C1382  N1389   1.368   .     A
C1382  O1426   1.406   .     S
C1382  C16     1.457   1_556 S
C1383  C1437   1.472   .     S
C1383  N1389   1.380   .     A
C1383  C13     1.431   1_556 S
C1384  N1390   1.392   .     A
C1384  C1441   1.462   .     S
Cu1385 Cu1386  2.714   .     S
Cu1385 O1398   1.977   .     S
Cu1385 O1391   1.982   .     S
Cu1385 O1394   1.985   .     S
Cu1385 O1395   1.991   .     S
Cu1385 N1389   2.039   .     S
Cu1386 O1392   1.982   .     S
Cu1386 O1397   1.977   .     S
Cu1386 O1393   1.985   .     S
Cu1386 O1396   1.991   .     S
Cu1386 N1390   2.039   .     S
C1399  O1401   1.399   .     S
C1399  C1449   1.476   .     S
C1399  O1476   1.217   .     S
O1400  C1551   1.217   1_455 S
O1401  H1402   1.013   .     S
C1403  O1404   1.219   .     D
C1403  O1405   1.398   .     S
C1403  C1526   1.471   1_455 S
O1405  H1406   1.013   .     S
C1407  O1409   1.396   .     S
C1407  O1408   1.220   .     D
O1409  H1410   1.014   .     S
C1411  O1412   1.217   .     D
C1411  O1413   1.394   .     S
O1413  H1414   1.014   .     S
O1415  C1416   1.423   .     S
C1416  H1418   1.115   .     S
C1416  H1417   1.107   .     S
C1416  C1419   1.540   .     S
C1419  H1420   1.109   .     S
H1421  C51     1.107   1_556 S
C1422  H1424   1.106   .     S
C1422  H1425   1.109   .     S
C1422  C51     1.525   1_556 S
C1422  H511    1.108   1_546 S
O1426  C1427   1.415   .     S
C1427  H1428   1.108   .     S
C1427  H1429   1.101   .     S
C1427  C1430   1.534   .     S
C1430  H1431   1.109   .     S
C1430  H64     1.109   1_556 S
C1430  C65     1.536   1_556 S
C1433  H1436   1.109   .     S
C1433  H1434   1.107   .     S
C1433  H1663   1.108   .     S
H1435  C1889   1.108   1_545 S
C1437  O1439   1.392   .     S
C1437  O1438   1.222   .     D
O1439  H1440   1.013   .     S
C1441  O1443   1.397   .     S
C1441  O1442   1.220   .     D
O1443  H1444   1.013   .     S
C1445  O1469   1.301   .     A
C1445  O1467   1.311   .     A
C1445  C1456   1.469   .     S
C1446  O1468   1.310   .     A
C1446  C1455   1.469   .     S
C1446  O1470   1.303   .     A
C1447  C1449   1.444   .     S
C1447  O1473   1.307   .     A
C1447  O1471   1.290   .     A
C1448  C1450   1.438   .     S
C1448  O1472   1.293   .     A
C1448  O1474   1.300   .     A
C1450  C1525   1.348   .     S
C1450  C1555   1.471   .     S
C1451  C1456   1.421   .     A
C1451  C1483   1.486   .     S
C1451  C1909   1.392   1_545 S
C1452  C1487   1.484   .     S
C1452  C1455   1.418   .     A
C1452  C1682   1.391   .     S
C1453  C1455   1.400   .     A
C1453  H1463   1.083   .     S
C1453  C1679   1.392   .     S
C1454  C1456   1.401   .     A
C1454  H1464   1.082   .     S
C1454  C1908   1.391   1_545 S
C1457  N1466   1.369   .     A
C1457  O1491   1.392   .     S
C1458  N1465   1.368   .     A
C1458  O1502   1.406   .     S
C1458  C92     1.457   1_556 S
C1459  C1513   1.472   .     S
C1459  N1465   1.380   .     A
C1459  C89     1.431   1_556 S
C1460  N1466   1.392   .     A
C1460  C1517   1.462   .     S
Cu1461 Cu1462  2.714   .     S
Cu1461 O1474   1.977   .     S
Cu1461 O1467   1.982   .     S
Cu1461 O1470   1.985   .     S
Cu1461 O1471   1.991   .     S
Cu1461 N1465   2.039   .     S
Cu1462 O1468   1.982   .     S
Cu1462 O1473   1.977   .     S
Cu1462 O1469   1.985   .     S
Cu1462 O1472   1.991   .     S
Cu1462 N1466   2.039   .     S
C1475  O1477   1.399   .     S
C1475  C1525   1.476   .     S
C1475  O1552   1.217   .     S
O1477  H1478   1.013   .     S
C1479  O1480   1.219   .     D
C1479  O1481   1.398   .     S
O1481  H1482   1.013   .     S
C1483  O1485   1.396   .     S
C1483  O1484   1.220   .     D
O1485  H1486   1.014   .     S
C1487  O1488   1.217   .     D
C1487  O1489   1.394   .     S
O1489  H1490   1.014   .     S
O1491  C1492   1.423   .     S
C1492  H1494   1.115   .     S
C1492  H1493   1.107   .     S
C1492  C1495   1.540   .     S
C1495  H1496   1.109   .     S
H1497  C127    1.107   1_556 S
C1498  H1500   1.106   .     S
C1498  H1501   1.109   .     S
C1498  C127    1.525   1_556 S
C1498  H587    1.108   1_546 S
O1502  C1503   1.415   .     S
C1503  H1504   1.108   .     S
C1503  H1505   1.101   .     S
C1503  C1506   1.534   .     S
C1506  H1507   1.109   .     S
C1506  H140    1.109   1_556 S
C1506  C141    1.536   1_556 S
C1509  H1512   1.109   .     S
C1509  H1510   1.107   .     S
C1509  H1739   1.108   .     S
H1511  C1965   1.108   1_545 S
C1513  O1515   1.392   .     S
C1513  O1514   1.222   .     D
O1515  H1516   1.013   .     S
C1517  O1519   1.397   .     S
C1517  O1518   1.220   .     D
O1519  H1520   1.013   .     S
C1521  O1545   1.301   .     A
C1521  O1543   1.311   .     A
C1521  C1532   1.469   .     S
C1522  O1544   1.310   .     A
C1522  C1531   1.469   .     S
C1522  O1546   1.303   .     A
C1523  C1525   1.444   .     S
C1523  O1549   1.307   .     A
C1523  O1547   1.290   .     A
C1524  C1526   1.438   .     S
C1524  O1548   1.293   .     A
C1524  O1550   1.300   .     A
C1526  C1373   1.348   1_655 S
C1526  C1403   1.471   1_655 S
C1527  C1532   1.421   .     A
C1527  C1559   1.486   .     S
C1527  C1985   1.392   1_545 S
C1528  C1563   1.484   .     S
C1528  C1531   1.418   .     A
C1528  C1758   1.391   .     S
C1529  C1531   1.400   .     A
C1529  H1539   1.083   .     S
C1529  C1755   1.392   .     S
C1530  C1532   1.401   .     A
C1530  H1540   1.082   .     S
C1530  C1984   1.391   1_545 S
C1533  N1542   1.369   .     A
C1533  O1567   1.392   .     S
C1534  N1541   1.368   .     A
C1534  O1578   1.406   .     S
C1534  C168    1.457   1_556 S
C1535  C1589   1.472   .     S
C1535  N1541   1.380   .     A
C1535  C165    1.431   1_556 S
C1536  N1542   1.392   .     A
C1536  C1593   1.462   .     S
Cu1537 Cu1538  2.714   .     S
Cu1537 O1550   1.977   .     S
Cu1537 O1543   1.982   .     S
Cu1537 O1546   1.985   .     S
Cu1537 O1547   1.991   .     S
Cu1537 N1541   2.039   .     S
Cu1538 O1544   1.982   .     S
Cu1538 O1549   1.977   .     S
Cu1538 O1545   1.985   .     S
Cu1538 O1548   1.991   .     S
Cu1538 N1542   2.039   .     S
C1551  O1553   1.399   .     S
C1551  C1373   1.476   1_655 S
C1551  O1400   1.217   1_655 S
O1553  H1554   1.013   .     S
C1555  O1556   1.219   .     D
C1555  O1557   1.398   .     S
O1557  H1558   1.013   .     S
C1559  O1561   1.396   .     S
C1559  O1560   1.220   .     D
O1561  H1562   1.014   .     S
C1563  O1564   1.217   .     D
C1563  O1565   1.394   .     S
O1565  H1566   1.014   .     S
O1567  C1568   1.423   .     S
C1568  H1570   1.115   .     S
C1568  H1569   1.107   .     S
C1568  C1571   1.540   .     S
C1571  H1572   1.109   .     S
H1573  C203    1.107   1_556 S
C1574  H1576   1.106   .     S
C1574  H1577   1.109   .     S
C1574  C203    1.525   1_556 S
C1574  H663    1.108   1_546 S
O1578  C1579   1.415   .     S
C1579  H1580   1.108   .     S
C1579  H1581   1.101   .     S
C1579  C1582   1.534   .     S
C1582  H1583   1.109   .     S
C1582  H216    1.109   1_556 S
C1582  C217    1.536   1_556 S
C1585  H1588   1.109   .     S
C1585  H1586   1.107   .     S
C1585  H1815   1.108   .     S
H1587  C2041   1.108   1_545 S
C1589  O1591   1.392   .     S
C1589  O1590   1.222   .     D
O1591  H1592   1.013   .     S
C1593  O1595   1.397   .     S
C1593  O1594   1.220   .     D
O1595  H1596   1.013   .     S
C1597  O1621   1.301   .     A
C1597  O1619   1.311   .     A
C1597  C1608   1.469   .     S
C1598  O1620   1.310   .     A
C1598  C1607   1.469   .     S
C1598  O1622   1.303   .     A
C1599  C1601   1.444   .     S
C1599  O1625   1.307   .     A
C1599  O1623   1.290   .     A
C1600  C1602   1.438   .     S
C1600  O1624   1.293   .     A
C1600  O1626   1.300   .     A
C1601  C1754   1.348   1_455 S
C1601  C1779   1.476   1_455 S
C1602  C1677   1.348   .     S
C1602  C1707   1.471   .     S
C1603  C1608   1.421   .     A
C1603  C1635   1.486   .     S
C1604  C1639   1.484   .     S
C1604  C1607   1.418   .     A
C1604  C1834   1.391   .     S
C1605  C1607   1.400   .     A
C1605  H1615   1.083   .     S
C1605  C1831   1.392   .     S
C1606  C1608   1.401   .     A
C1606  H1616   1.082   .     S
C1609  N1618   1.369   .     A
C1609  O1643   1.392   .     S
C1610  N1617   1.368   .     A
C1610  O1654   1.406   .     S
C1610  C244    1.457   1_556 S
C1611  C1665   1.472   .     S
C1611  N1617   1.380   .     A
C1611  C241    1.431   1_556 S
C1612  N1618   1.392   .     A
C1612  C1669   1.462   .     S
Cu1613 Cu1614  2.714   .     S
Cu1613 O1626   1.977   .     S
Cu1613 O1619   1.982   .     S
Cu1613 O1622   1.985   .     S
Cu1613 O1623   1.991   .     S
Cu1613 N1617   2.039   .     S
Cu1614 O1620   1.982   .     S
Cu1614 O1625   1.977   .     S
Cu1614 O1621   1.985   .     S
Cu1614 O1624   1.991   .     S
Cu1614 N1618   2.039   .     S
C1627  O1629   1.399   .     S
C1627  C1677   1.476   .     S
C1627  O1704   1.217   .     S
O1628  C1779   1.217   1_455 S
O1629  H1630   1.013   .     S
C1631  O1632   1.219   .     D
C1631  O1633   1.398   .     S
C1631  C1754   1.471   1_455 S
O1633  H1634   1.013   .     S
C1635  O1637   1.396   .     S
C1635  O1636   1.220   .     D
O1637  H1638   1.014   .     S
C1639  O1640   1.217   .     D
C1639  O1641   1.394   .     S
O1641  H1642   1.014   .     S
O1643  C1644   1.423   .     S
C1644  H1646   1.115   .     S
C1644  H1645   1.107   .     S
C1644  C1647   1.540   .     S
C1647  H1648   1.109   .     S
H1649  C279    1.107   1_556 S
C1650  H1652   1.106   .     S
C1650  H1653   1.109   .     S
C1650  C279    1.525   1_556 S
C1650  H55     1.108   1_556 S
O1654  C1655   1.415   .     S
C1655  H1656   1.108   .     S
C1655  H1657   1.101   .     S
C1655  C1658   1.534   .     S
C1658  H1659   1.109   .     S
C1658  H292    1.109   1_556 S
C1658  C293    1.536   1_556 S
C1661  H1664   1.109   .     S
C1661  H1662   1.107   .     S
C1661  H1891   1.108   .     S
C1665  O1667   1.392   .     S
C1665  O1666   1.222   .     D
O1667  H1668   1.013   .     S
C1669  O1671   1.397   .     S
C1669  O1670   1.220   .     D
O1671  H1672   1.013   .     S
C1673  O1697   1.301   .     A
C1673  O1695   1.311   .     A
C1673  C1684   1.469   .     S
C1674  O1696   1.310   .     A
C1674  C1683   1.469   .     S
C1674  O1698   1.303   .     A
C1675  C1677   1.444   .     S
C1675  O1701   1.307   .     A
C1675  O1699   1.290   .     A
C1676  C1678   1.438   .     S
C1676  O1700   1.293   .     A
C1676  O1702   1.300   .     A
C1678  C1753   1.348   .     S
C1678  C1783   1.471   .     S
C1679  C1684   1.421   .     A
C1679  C1711   1.486   .     S
C1680  C1715   1.484   .     S
C1680  C1683   1.418   .     A
C1680  C1910   1.391   .     S
C1681  C1683   1.400   .     A
C1681  H1691   1.083   .     S
C1681  C1907   1.392   .     S
C1682  C1684   1.401   .     A
C1682  H1692   1.082   .     S
C1685  N1694   1.369   .     A
C1685  O1719   1.392   .     S
C1686  N1693   1.368   .     A
C1686  O1730   1.406   .     S
C1686  C320    1.457   1_556 S
C1687  C1741   1.472   .     S
C1687  N1693   1.380   .     A
C1687  C317    1.431   1_556 S
C1688  N1694   1.392   .     A
C1688  C1745   1.462   .     S
Cu1689 Cu1690  2.714   .     S
Cu1689 O1702   1.977   .     S
Cu1689 O1695   1.982   .     S
Cu1689 O1698   1.985   .     S
Cu1689 O1699   1.991   .     S
Cu1689 N1693   2.039   .     S
Cu1690 O1696   1.982   .     S
Cu1690 O1701   1.977   .     S
Cu1690 O1697   1.985   .     S
Cu1690 O1700   1.991   .     S
Cu1690 N1694   2.039   .     S
C1703  O1705   1.399   .     S
C1703  C1753   1.476   .     S
C1703  O1780   1.217   .     S
O1705  H1706   1.013   .     S
C1707  O1708   1.219   .     D
C1707  O1709   1.398   .     S
O1709  H1710   1.013   .     S
C1711  O1713   1.396   .     S
C1711  O1712   1.220   .     D
O1713  H1714   1.014   .     S
C1715  O1716   1.217   .     D
C1715  O1717   1.394   .     S
O1717  H1718   1.014   .     S
O1719  C1720   1.423   .     S
C1720  H1722   1.115   .     S
C1720  H1721   1.107   .     S
C1720  C1723   1.540   .     S
C1723  H1724   1.109   .     S
H1725  C355    1.107   1_556 S
C1726  H1728   1.106   .     S
C1726  H1729   1.109   .     S
C1726  C355    1.525   1_556 S
C1726  H131    1.108   1_556 S
O1730  C1731   1.415   .     S
C1731  H1732   1.108   .     S
C1731  H1733   1.101   .     S
C1731  C1734   1.534   .     S
C1734  H1735   1.109   .     S
C1734  H368    1.109   1_556 S
C1734  C369    1.536   1_556 S
C1737  H1740   1.109   .     S
C1737  H1738   1.107   .     S
C1737  H1967   1.108   .     S
C1741  O1743   1.392   .     S
C1741  O1742   1.222   .     D
O1743  H1744   1.013   .     S
C1745  O1747   1.397   .     S
C1745  O1746   1.220   .     D
O1747  H1748   1.013   .     S
C1749  O1773   1.301   .     A
C1749  O1771   1.311   .     A
C1749  C1760   1.469   .     S
C1750  O1772   1.310   .     A
C1750  C1759   1.469   .     S
C1750  O1774   1.303   .     A
C1751  C1753   1.444   .     S
C1751  O1777   1.307   .     A
C1751  O1775   1.290   .     A
C1752  C1754   1.438   .     S
C1752  O1776   1.293   .     A
C1752  O1778   1.300   .     A
C1754  C1601   1.348   1_655 S
C1754  C1631   1.471   1_655 S
C1755  C1760   1.421   .     A
C1755  C1787   1.486   .     S
C1756  C1791   1.484   .     S
C1756  C1759   1.418   .     A
C1756  C1986   1.391   .     S
C1757  C1759   1.400   .     A
C1757  H1767   1.083   .     S
C1757  C1983   1.392   .     S
C1758  C1760   1.401   .     A
C1758  H1768   1.082   .     S
C1761  N1770   1.369   .     A
C1761  O1795   1.392   .     S
C1762  N1769   1.368   .     A
C1762  O1806   1.406   .     S
C1762  C396    1.457   1_556 S
C1763  C1817   1.472   .     S
C1763  N1769   1.380   .     A
C1763  C393    1.431   1_556 S
C1764  N1770   1.392   .     A
C1764  C1821   1.462   .     S
Cu1765 Cu1766  2.714   .     S
Cu1765 O1778   1.977   .     S
Cu1765 O1771   1.982   .     S
Cu1765 O1774   1.985   .     S
Cu1765 O1775   1.991   .     S
Cu1765 N1769   2.039   .     S
Cu1766 O1772   1.982   .     S
Cu1766 O1777   1.977   .     S
Cu1766 O1773   1.985   .     S
Cu1766 O1776   1.991   .     S
Cu1766 N1770   2.039   .     S
C1779  O1781   1.399   .     S
C1779  C1601   1.476   1_655 S
C1779  O1628   1.217   1_655 S
O1781  H1782   1.013   .     S
C1783  O1784   1.219   .     D
C1783  O1785   1.398   .     S
O1785  H1786   1.013   .     S
C1787  O1789   1.396   .     S
C1787  O1788   1.220   .     D
O1789  H1790   1.014   .     S
C1791  O1792   1.217   .     D
C1791  O1793   1.394   .     S
O1793  H1794   1.014   .     S
O1795  C1796   1.423   .     S
C1796  H1798   1.115   .     S
C1796  H1797   1.107   .     S
C1796  C1799   1.540   .     S
C1799  H1800   1.109   .     S
H1801  C431    1.107   1_556 S
C1802  H1804   1.106   .     S
C1802  H1805   1.109   .     S
C1802  C431    1.525   1_556 S
C1802  H207    1.108   1_556 S
O1806  C1807   1.415   .     S
C1807  H1808   1.108   .     S
C1807  H1809   1.101   .     S
C1807  C1810   1.534   .     S
C1810  H1811   1.109   .     S
C1810  H444    1.109   1_556 S
C1810  C445    1.536   1_556 S
C1813  H1816   1.109   .     S
C1813  H1814   1.107   .     S
C1813  H2043   1.108   .     S
C1817  O1819   1.392   .     S
C1817  O1818   1.222   .     D
O1819  H1820   1.013   .     S
C1821  O1823   1.397   .     S
C1821  O1822   1.220   .     D
O1823  H1824   1.013   .     S
C1825  O1849   1.301   .     A
C1825  O1847   1.311   .     A
C1825  C1836   1.469   .     S
C1826  O1848   1.310   .     A
C1826  C1835   1.469   .     S
C1826  O1850   1.303   .     A
C1827  C1829   1.444   .     S
C1827  O1853   1.307   .     A
C1827  O1851   1.290   .     A
C1828  C1830   1.438   .     S
C1828  O1852   1.293   .     A
C1828  O1854   1.300   .     A
C1829  C1982   1.348   1_455 S
C1829  C2007   1.476   1_455 S
C1830  C1905   1.348   .     S
C1830  C1935   1.471   .     S
C1831  C1836   1.421   .     A
C1831  C1863   1.486   .     S
C1832  C1867   1.484   .     S
C1832  C1835   1.418   .     A
C1832  C1378   1.391   1_565 S
C1833  C1835   1.400   .     A
C1833  H1843   1.083   .     S
C1833  C1375   1.392   1_565 S
C1834  C1836   1.401   .     A
C1834  H1844   1.082   .     S
C1837  N1846   1.369   .     A
C1837  O1871   1.392   .     S
C1838  N1845   1.368   .     A
C1838  O1882   1.406   .     S
C1838  C472    1.457   1_556 S
C1839  C1893   1.472   .     S
C1839  N1845   1.380   .     A
C1839  C469    1.431   1_556 S
C1840  N1846   1.392   .     A
C1840  C1897   1.462   .     S
Cu1841 Cu1842  2.714   .     S
Cu1841 O1854   1.977   .     S
Cu1841 O1847   1.982   .     S
Cu1841 O1850   1.985   .     S
Cu1841 O1851   1.991   .     S
Cu1841 N1845   2.039   .     S
Cu1842 O1848   1.982   .     S
Cu1842 O1853   1.977   .     S
Cu1842 O1849   1.985   .     S
Cu1842 O1852   1.991   .     S
Cu1842 N1846   2.039   .     S
C1855  O1857   1.399   .     S
C1855  C1905   1.476   .     S
C1855  O1932   1.217   .     S
O1856  C2007   1.217   1_455 S
O1857  H1858   1.013   .     S
C1859  O1860   1.219   .     D
C1859  O1861   1.398   .     S
C1859  C1982   1.471   1_455 S
O1861  H1862   1.013   .     S
C1863  O1865   1.396   .     S
C1863  O1864   1.220   .     D
O1865  H1866   1.014   .     S
C1867  O1868   1.217   .     D
C1867  O1869   1.394   .     S
O1869  H1870   1.014   .     S
O1871  C1872   1.423   .     S
C1872  H1874   1.115   .     S
C1872  H1873   1.107   .     S
C1872  C1875   1.540   .     S
C1875  H1876   1.109   .     S
H1877  C507    1.107   1_556 S
C1878  H1880   1.106   .     S
C1878  H1881   1.109   .     S
C1878  C507    1.525   1_556 S
C1878  H283    1.108   1_556 S
H1879  C738    1.108   1_565 S
O1882  C1883   1.415   .     S
C1883  H1884   1.108   .     S
C1883  H1885   1.101   .     S
C1883  C1886   1.534   .     S
C1886  H1887   1.109   .     S
C1886  H520    1.109   1_556 S
C1886  C521    1.536   1_556 S
C1889  H1892   1.109   .     S
C1889  H1890   1.107   .     S
C1889  H1435   1.108   1_565 S
C1893  O1895   1.392   .     S
C1893  O1894   1.222   .     D
O1895  H1896   1.013   .     S
C1897  O1899   1.397   .     S
C1897  O1898   1.220   .     D
O1899  H1900   1.013   .     S
C1901  O1925   1.301   .     A
C1901  O1923   1.311   .     A
C1901  C1912   1.469   .     S
C1902  O1924   1.310   .     A
C1902  C1911   1.469   .     S
C1902  O1926   1.303   .     A
C1903  C1905   1.444   .     S
C1903  O1929   1.307   .     A
C1903  O1927   1.290   .     A
C1904  C1906   1.438   .     S
C1904  O1928   1.293   .     A
C1904  O1930   1.300   .     A
C1906  C1981   1.348   .     S
C1906  C2011   1.471   .     S
C1907  C1912   1.421   .     A
C1907  C1939   1.486   .     S
C1908  C1943   1.484   .     S
C1908  C1911   1.418   .     A
C1908  C1454   1.391   1_565 S
C1909  C1911   1.400   .     A
C1909  H1919   1.083   .     S
C1909  C1451   1.392   1_565 S
C1910  C1912   1.401   .     A
C1910  H1920   1.082   .     S
C1913  N1922   1.369   .     A
C1913  O1947   1.392   .     S
C1914  N1921   1.368   .     A
C1914  O1958   1.406   .     S
C1914  C548    1.457   1_556 S
C1915  C1969   1.472   .     S
C1915  N1921   1.380   .     A
C1915  C545    1.431   1_556 S
C1916  N1922   1.392   .     A
C1916  C1973   1.462   .     S
Cu1917 Cu1918  2.714   .     S
Cu1917 O1930   1.977   .     S
Cu1917 O1923   1.982   .     S
Cu1917 O1926   1.985   .     S
Cu1917 O1927   1.991   .     S
Cu1917 N1921   2.039   .     S
Cu1918 O1924   1.982   .     S
Cu1918 O1929   1.977   .     S
Cu1918 O1925   1.985   .     S
Cu1918 O1928   1.991   .     S
Cu1918 N1922   2.039   .     S
C1931  O1933   1.399   .     S
C1931  C1981   1.476   .     S
C1931  O2008   1.217   .     S
O1933  H1934   1.013   .     S
C1935  O1936   1.219   .     D
C1935  O1937   1.398   .     S
O1937  H1938   1.013   .     S
C1939  O1941   1.396   .     S
C1939  O1940   1.220   .     D
O1941  H1942   1.014   .     S
C1943  O1944   1.217   .     D
C1943  O1945   1.394   .     S
O1945  H1946   1.014   .     S
O1947  C1948   1.423   .     S
C1948  H1950   1.115   .     S
C1948  H1949   1.107   .     S
C1948  C1951   1.540   .     S
C1951  H1952   1.109   .     S
H1953  C583    1.107   1_556 S
C1954  H1956   1.106   .     S
C1954  H1957   1.109   .     S
C1954  C583    1.525   1_556 S
C1954  H359    1.108   1_556 S
H1955  C814    1.108   1_565 S
O1958  C1959   1.415   .     S
C1959  H1960   1.108   .     S
C1959  H1961   1.101   .     S
C1959  C1962   1.534   .     S
C1962  H1963   1.109   .     S
C1962  H596    1.109   1_556 S
C1962  C597    1.536   1_556 S
C1965  H1968   1.109   .     S
C1965  H1966   1.107   .     S
C1965  H1511   1.108   1_565 S
C1969  O1971   1.392   .     S
C1969  O1970   1.222   .     D
O1971  H1972   1.013   .     S
C1973  O1975   1.397   .     S
C1973  O1974   1.220   .     D
O1975  H1976   1.013   .     S
C1977  O2001   1.301   .     A
C1977  O1999   1.311   .     A
C1977  C1988   1.469   .     S
C1978  O2000   1.310   .     A
C1978  C1987   1.469   .     S
C1978  O2002   1.303   .     A
C1979  C1981   1.444   .     S
C1979  O2005   1.307   .     A
C1979  O2003   1.290   .     A
C1980  C1982   1.438   .     S
C1980  O2004   1.293   .     A
C1980  O2006   1.300   .     A
C1982  C1829   1.348   1_655 S
C1982  C1859   1.471   1_655 S
C1983  C1988   1.421   .     A
C1983  C2015   1.486   .     S
C1984  C2019   1.484   .     S
C1984  C1987   1.418   .     A
C1984  C1530   1.391   1_565 S
C1985  C1987   1.400   .     A
C1985  H1995   1.083   .     S
C1985  C1527   1.392   1_565 S
C1986  C1988   1.401   .     A
C1986  H1996   1.082   .     S
C1989  N1998   1.369   .     A
C1989  O2023   1.392   .     S
C1990  N1997   1.368   .     A
C1990  O2034   1.406   .     S
C1990  C624    1.457   1_556 S
C1991  C2045   1.472   .     S
C1991  N1997   1.380   .     A
C1991  C621    1.431   1_556 S
C1992  N1998   1.392   .     A
C1992  C2049   1.462   .     S
Cu1993 Cu1994  2.714   .     S
Cu1993 O2006   1.977   .     S
Cu1993 O1999   1.982   .     S
Cu1993 O2002   1.985   .     S
Cu1993 O2003   1.991   .     S
Cu1993 N1997   2.039   .     S
Cu1994 O2000   1.982   .     S
Cu1994 O2005   1.977   .     S
Cu1994 O2001   1.985   .     S
Cu1994 O2004   1.991   .     S
Cu1994 N1998   2.039   .     S
C2007  O2009   1.399   .     S
C2007  C1829   1.476   1_655 S
C2007  O1856   1.217   1_655 S
O2009  H2010   1.013   .     S
C2011  O2012   1.219   .     D
C2011  O2013   1.398   .     S
O2013  H2014   1.013   .     S
C2015  O2017   1.396   .     S
C2015  O2016   1.220   .     D
O2017  H2018   1.014   .     S
C2019  O2020   1.217   .     D
C2019  O2021   1.394   .     S
O2021  H2022   1.014   .     S
O2023  C2024   1.423   .     S
C2024  H2026   1.115   .     S
C2024  H2025   1.107   .     S
C2024  C2027   1.540   .     S
C2027  H2028   1.109   .     S
H2029  C659    1.107   1_556 S
C2030  H2032   1.106   .     S
C2030  H2033   1.109   .     S
C2030  C659    1.525   1_556 S
C2030  H435    1.108   1_556 S
H2031  C890    1.108   1_565 S
O2034  C2035   1.415   .     S
C2035  H2036   1.108   .     S
C2035  H2037   1.101   .     S
C2035  C2038   1.534   .     S
C2038  H2039   1.109   .     S
C2038  H672    1.109   1_556 S
C2038  C673    1.536   1_556 S
C2041  H2044   1.109   .     S
C2041  H2042   1.107   .     S
C2041  H1587   1.108   1_565 S
C2045  O2047   1.392   .     S
C2045  O2046   1.222   .     D
O2047  H2048   1.013   .     S
C2049  O2051   1.397   .     S
C2049  O2050   1.220   .     D
O2051  H2052   1.013   .     S
