data_str_m2_o1_o2_pcu_sym.47
_audit_creation_date              2020-01-03
_audit_creation_method            'Materials Studio'
_symmetry_space_group_name_H-M    'P1'
_symmetry_Int_Tables_number       1
_symmetry_cell_setting            triclinic
loop_
_symmetry_equiv_pos_as_xyz
  x,y,z
_cell_length_a                    32.5155
_cell_length_b                    28.9804
_cell_length_c                    30.2924
_cell_angle_alpha                 91.0695
_cell_angle_beta                  93.3293
_cell_angle_gamma                 91.5169
loop_
_atom_site_label
_atom_site_type_symbol
_atom_site_fract_x
_atom_site_fract_y
_atom_site_fract_z
_atom_site_U_iso_or_equiv
_atom_site_adp_type
_atom_site_occupancy
C1     C     0.08750   0.16634   0.24968   0.00000  Uiso   1.00
C2     C     0.31458   0.20161   0.27468   0.00000  Uiso   1.00
C3     C     0.30902   0.13776   0.22064   0.00000  Uiso   1.00
C4     C     0.02414   0.19734   0.27839   0.00000  Uiso   1.00
C5     C     0.18462   0.21058   0.04985   0.00000  Uiso   1.00
C6     C     0.20400   0.14610   0.45225   0.00000  Uiso   1.00
C7     C     0.14523   0.19694   0.45224   0.00000  Uiso   1.00
C8     C     0.16850   0.12791   0.04399   0.00000  Uiso   1.00
C9     C     0.18298   0.20876   0.09571   0.00000  Uiso   1.00
C10    C     0.20030   0.14398   0.40625   0.00000  Uiso   1.00
C11    C     0.14334   0.19638   0.40602   0.00000  Uiso   1.00
C12    C     0.24580   0.16737   0.25016   0.00000  Uiso   1.00
C13    C     0.16603   0.12684   0.09000   0.00000  Uiso   1.00
C14    C     0.17254   0.16713   0.11637   0.00000  Uiso   1.00
C15    C     0.16999   0.16877   0.38301   0.00000  Uiso   1.00
C16    C     0.17655   0.17024   0.02394   0.00000  Uiso   1.00
C17    C     0.17582   0.17193   0.47550   0.00000  Uiso   1.00
C18    C     0.29042   0.16896   0.24870   0.00000  Uiso   1.00
C19    C     0.04273   0.16670   0.24960   0.00000  Uiso   1.00
C20    C     0.09799   0.05235   0.17243   0.00000  Uiso   1.00
C21    C     0.21514   0.29078   0.35284   0.00000  Uiso   1.00
C22    C     0.24607   0.05352   0.31254   0.00000  Uiso   1.00
C23    C     0.16820   0.16652   0.16492   0.00000  Uiso   1.00
C24    C     0.09650   0.27335   0.17377   0.00000  Uiso   1.00
C25    C     0.23208   0.26050   0.02342   0.00000  Uiso   1.00
C26    C     0.26863   0.14626   0.48548   0.00000  Uiso   1.00
C27    C     0.08154   0.19589   0.47897   0.00000  Uiso   1.00
C28    C     0.18311   0.05185   0.02818   0.00000  Uiso   1.00
C29    C     0.02788   0.14888   0.14415   0.00000  Uiso   1.00
C30    C     0.29521   0.27653   0.27018   0.00000  Uiso   1.00
C31    C     0.29629   0.06256   0.19637   0.00000  Uiso   1.00
C32    C     0.05601   0.26558   0.30404   0.00000  Uiso   1.00
C33    C     0.16732   0.16717   0.33479   0.00000  Uiso   1.00
C34    C     0.15121   0.02321   0.21426   0.00000  Uiso   1.00
C35    C     0.17905   0.30979   0.28745   0.00000  Uiso   1.00
C36    C     0.18298   0.02583   0.28562   0.00000  Uiso   1.00
C37    C     0.15170   0.30759   0.21386   0.00000  Uiso   1.00
C38    C     0.01849   0.14134   0.21737   0.00000  Uiso   1.00
Cu39   Cu    0.16667   0.21355   0.25000   0.00000  Uiso   1.00
Cu40   Cu    0.16667   0.11978   0.25000   0.00000  Uiso   1.00
F41    F     0.19216   0.24811   0.11964   0.00000  Uiso   1.00
F42    F     0.22752   0.11894   0.38443   0.00000  Uiso   1.00
F43    F     0.11454   0.22146   0.38375   0.00000  Uiso   1.00
F44    F     0.15561   0.08655   0.10814   0.00000  Uiso   1.00
H45    H     0.08293   0.05244   0.20462   0.00000  Uiso   1.00
H46    H     0.09186   0.23566   0.17660   0.00000  Uiso   1.00
H47    H     0.08264   0.28191   0.14073   0.00000  Uiso   1.00
H48    H     0.07912   0.29149   0.19925   0.00000  Uiso   1.00
H49    H     0.24047   0.24110   0.49347   0.00000  Uiso   1.00
H50    H     0.25261   0.25166   0.05263   0.00000  Uiso   1.00
H51    H     0.23746   0.29769   0.01717   0.00000  Uiso   1.00
H52    H     0.26416   0.16769   0.01547   0.00000  Uiso   1.00
H53    H     0.27831   0.16816   0.45784   0.00000  Uiso   1.00
H54    H     0.29425   0.12284   0.49382   0.00000  Uiso   1.00
H55    H     0.08797   0.16401   0.49782   0.00000  Uiso   1.00
H56    H     0.08179   0.02727   0.14912   0.00000  Uiso   1.00
H57    H     0.06602   0.18690   0.44611   0.00000  Uiso   1.00
H58    H     0.05982   0.21634   0.49778   0.00000  Uiso   1.00
H59    H     0.18727   0.03149   0.49747   0.00000  Uiso   1.00
H60    H     0.16770   0.02862   0.05123   0.00000  Uiso   1.00
H61    H     0.21446   0.06252   0.04225   0.00000  Uiso   1.00
H62    H     0.03554   0.18612   0.15077   0.00000  Uiso   1.00
H63    H     0.32846   0.14439   0.13185   0.00000  Uiso   1.00
H64    H     0.04712   0.13714   0.11727   0.00000  Uiso   1.00
H65    H     0.30413   0.30744   0.29099   0.00000  Uiso   1.00
H66    H     0.26335   0.28155   0.25646   0.00000  Uiso   1.00
H67    H     0.09455   0.08633   0.15713   0.00000  Uiso   1.00
H68    H     0.31589   0.27604   0.24202   0.00000  Uiso   1.00
H69    H     0.30904   0.05419   0.23016   0.00000  Uiso   1.00
H70    H     0.31893   0.05413   0.17159   0.00000  Uiso   1.00
H71    H     0.26866   0.03978   0.18911   0.00000  Uiso   1.00
H72    H     0.05280   0.27413   0.26835   0.00000  Uiso   1.00
H73    H     0.08836   0.27418   0.31551   0.00000  Uiso   1.00
H74    H     0.03608   0.28784   0.32330   0.00000  Uiso   1.00
H75    H     0.24188   0.29033   0.33195   0.00000  Uiso   1.00
H76    H     0.21691   0.25961   0.37349   0.00000  Uiso   1.00
H77    H     0.21696   0.32095   0.37600   0.00000  Uiso   1.00
H78    H     0.25675   0.09005   0.31615   0.00000  Uiso   1.00
H79    H     0.25458   0.04062   0.27946   0.00000  Uiso   1.00
H80    H     0.26403   0.03479   0.33835   0.00000  Uiso   1.00
N81    N     0.16667   0.28402   0.25000   0.00000  Uiso   1.00
N82    N     0.16667   0.04931   0.25000   0.00000  Uiso   1.00
O83    O     0.10655   0.20625   0.25000   0.00000  Uiso   1.00
O84    O     0.17698   0.28941   0.32829   0.00000  Uiso   1.00
O85    O     0.20345   0.05008   0.32020   0.00000  Uiso   1.00
O86    O     0.13914   0.28447   0.17496   0.00000  Uiso   1.00
O87    O     0.19000   0.25305   0.03052   0.00000  Uiso   1.00
O88    O     0.23288   0.11913   0.47401   0.00000  Uiso   1.00
O89    O     0.11776   0.22289   0.47468   0.00000  Uiso   1.00
O90    O     0.15772   0.08937   0.01737   0.00000  Uiso   1.00
O91    O     0.03644   0.12182   0.18175   0.00000  Uiso   1.00
O92    O     0.29657   0.23694   0.29720   0.00000  Uiso   1.00
O93    O     0.28441   0.10895   0.19231   0.00000  Uiso   1.00
O94    O     0.22679   0.12709   0.25001   0.00000  Uiso   1.00
O95    O     0.04748   0.21877   0.31311   0.00000  Uiso   1.00
O96    O     0.22679   0.20625   0.25001   0.00000  Uiso   1.00
O97    O     0.10655   0.12709   0.25000   0.00000  Uiso   1.00
O98    O     0.16666   0.20626   0.18573   0.00000  Uiso   1.00
O99    O     0.16667   0.12707   0.31427   0.00000  Uiso   1.00
O100   O     0.16667   0.20626   0.31427   0.00000  Uiso   1.00
O101   O     0.16666   0.12707   0.18573   0.00000  Uiso   1.00
O102   O     0.14044   0.04409   0.17538   0.00000  Uiso   1.00
C103   C     0.42083   0.16634   0.24968   0.00000  Uiso   1.00
C104   C     0.64791   0.20161   0.27468   0.00000  Uiso   1.00
C105   C     0.64235   0.13776   0.22064   0.00000  Uiso   1.00
C106   C     0.35747   0.19734   0.27839   0.00000  Uiso   1.00
C107   C     0.51796   0.21058   0.04985   0.00000  Uiso   1.00
C108   C     0.53733   0.14610   0.45225   0.00000  Uiso   1.00
C109   C     0.47857   0.19694   0.45224   0.00000  Uiso   1.00
C110   C     0.50183   0.12791   0.04399   0.00000  Uiso   1.00
C111   C     0.51632   0.20876   0.09571   0.00000  Uiso   1.00
C112   C     0.53363   0.14398   0.40625   0.00000  Uiso   1.00
C113   C     0.47668   0.19638   0.40602   0.00000  Uiso   1.00
C114   C     0.57914   0.16737   0.25016   0.00000  Uiso   1.00
C115   C     0.49936   0.12684   0.09000   0.00000  Uiso   1.00
C116   C     0.50587   0.16713   0.11637   0.00000  Uiso   1.00
C117   C     0.50333   0.16877   0.38301   0.00000  Uiso   1.00
C118   C     0.50989   0.17024   0.02394   0.00000  Uiso   1.00
C119   C     0.50915   0.17193   0.47550   0.00000  Uiso   1.00
C120   C     0.62376   0.16896   0.24870   0.00000  Uiso   1.00
C121   C     0.37606   0.16670   0.24960   0.00000  Uiso   1.00
C122   C     0.43133   0.05235   0.17243   0.00000  Uiso   1.00
C123   C     0.54847   0.29078   0.35284   0.00000  Uiso   1.00
C124   C     0.57941   0.05352   0.31254   0.00000  Uiso   1.00
C125   C     0.50154   0.16652   0.16492   0.00000  Uiso   1.00
C126   C     0.42983   0.27335   0.17377   0.00000  Uiso   1.00
C127   C     0.56542   0.26050   0.02342   0.00000  Uiso   1.00
C128   C     0.60197   0.14626   0.48548   0.00000  Uiso   1.00
C129   C     0.41488   0.19589   0.47897   0.00000  Uiso   1.00
C130   C     0.51644   0.05185   0.02818   0.00000  Uiso   1.00
C131   C     0.36121   0.14888   0.14415   0.00000  Uiso   1.00
C132   C     0.62854   0.27653   0.27018   0.00000  Uiso   1.00
C133   C     0.62962   0.06256   0.19637   0.00000  Uiso   1.00
C134   C     0.38934   0.26558   0.30404   0.00000  Uiso   1.00
C135   C     0.50066   0.16717   0.33479   0.00000  Uiso   1.00
C136   C     0.48455   0.02321   0.21426   0.00000  Uiso   1.00
C137   C     0.51239   0.30979   0.28745   0.00000  Uiso   1.00
C138   C     0.51631   0.02583   0.28562   0.00000  Uiso   1.00
C139   C     0.48504   0.30759   0.21386   0.00000  Uiso   1.00
C140   C     0.35182   0.14134   0.21737   0.00000  Uiso   1.00
Cu141  Cu    0.50000   0.21355   0.25000   0.00000  Uiso   1.00
Cu142  Cu    0.50000   0.11978   0.25000   0.00000  Uiso   1.00
F143   F     0.52549   0.24811   0.11964   0.00000  Uiso   1.00
F144   F     0.56085   0.11894   0.38443   0.00000  Uiso   1.00
F145   F     0.44787   0.22146   0.38375   0.00000  Uiso   1.00
F146   F     0.48894   0.08655   0.10814   0.00000  Uiso   1.00
H147   H     0.41627   0.05244   0.20462   0.00000  Uiso   1.00
H148   H     0.42519   0.23566   0.17660   0.00000  Uiso   1.00
H149   H     0.41598   0.28191   0.14073   0.00000  Uiso   1.00
H150   H     0.41245   0.29149   0.19925   0.00000  Uiso   1.00
H151   H     0.57381   0.24110   0.49347   0.00000  Uiso   1.00
H152   H     0.58594   0.25166   0.05263   0.00000  Uiso   1.00
H153   H     0.57079   0.29769   0.01717   0.00000  Uiso   1.00
H154   H     0.59750   0.16769   0.01547   0.00000  Uiso   1.00
H155   H     0.61165   0.16816   0.45784   0.00000  Uiso   1.00
H156   H     0.62759   0.12284   0.49382   0.00000  Uiso   1.00
H157   H     0.42130   0.16401   0.49782   0.00000  Uiso   1.00
H158   H     0.41512   0.02727   0.14912   0.00000  Uiso   1.00
H159   H     0.39936   0.18690   0.44611   0.00000  Uiso   1.00
H160   H     0.39316   0.21634   0.49778   0.00000  Uiso   1.00
H161   H     0.52060   0.03149   0.49747   0.00000  Uiso   1.00
H162   H     0.50103   0.02862   0.05123   0.00000  Uiso   1.00
H163   H     0.54779   0.06252   0.04225   0.00000  Uiso   1.00
H164   H     0.36888   0.18612   0.15077   0.00000  Uiso   1.00
H165   H     0.66179   0.14439   0.13185   0.00000  Uiso   1.00
H166   H     0.38045   0.13714   0.11727   0.00000  Uiso   1.00
H167   H     0.63746   0.30744   0.29099   0.00000  Uiso   1.00
H168   H     0.59668   0.28155   0.25646   0.00000  Uiso   1.00
H169   H     0.42789   0.08633   0.15713   0.00000  Uiso   1.00
H170   H     0.64922   0.27604   0.24202   0.00000  Uiso   1.00
H171   H     0.64237   0.05419   0.23016   0.00000  Uiso   1.00
H172   H     0.65226   0.05413   0.17159   0.00000  Uiso   1.00
H173   H     0.60199   0.03978   0.18911   0.00000  Uiso   1.00
H174   H     0.38614   0.27413   0.26835   0.00000  Uiso   1.00
H175   H     0.42169   0.27418   0.31551   0.00000  Uiso   1.00
H176   H     0.36942   0.28784   0.32330   0.00000  Uiso   1.00
H177   H     0.57521   0.29033   0.33195   0.00000  Uiso   1.00
H178   H     0.55024   0.25961   0.37349   0.00000  Uiso   1.00
H179   H     0.55029   0.32095   0.37600   0.00000  Uiso   1.00
H180   H     0.59008   0.09005   0.31615   0.00000  Uiso   1.00
H181   H     0.58791   0.04062   0.27946   0.00000  Uiso   1.00
H182   H     0.59736   0.03479   0.33835   0.00000  Uiso   1.00
N183   N     0.50000   0.28402   0.25000   0.00000  Uiso   1.00
N184   N     0.50000   0.04931   0.25000   0.00000  Uiso   1.00
O185   O     0.43988   0.20625   0.25000   0.00000  Uiso   1.00
O186   O     0.51031   0.28941   0.32829   0.00000  Uiso   1.00
O187   O     0.53678   0.05008   0.32020   0.00000  Uiso   1.00
O188   O     0.47248   0.28447   0.17496   0.00000  Uiso   1.00
O189   O     0.52333   0.25305   0.03052   0.00000  Uiso   1.00
O190   O     0.56621   0.11913   0.47401   0.00000  Uiso   1.00
O191   O     0.45110   0.22289   0.47468   0.00000  Uiso   1.00
O192   O     0.49106   0.08937   0.01737   0.00000  Uiso   1.00
O193   O     0.36978   0.12182   0.18175   0.00000  Uiso   1.00
O194   O     0.62990   0.23694   0.29720   0.00000  Uiso   1.00
O195   O     0.61774   0.10895   0.19231   0.00000  Uiso   1.00
O196   O     0.56012   0.12709   0.25001   0.00000  Uiso   1.00
O197   O     0.38082   0.21877   0.31311   0.00000  Uiso   1.00
O198   O     0.56012   0.20625   0.25001   0.00000  Uiso   1.00
O199   O     0.43988   0.12709   0.25000   0.00000  Uiso   1.00
O200   O     0.50000   0.20626   0.18573   0.00000  Uiso   1.00
O201   O     0.50000   0.12707   0.31427   0.00000  Uiso   1.00
O202   O     0.50000   0.20626   0.31427   0.00000  Uiso   1.00
O203   O     0.50000   0.12707   0.18573   0.00000  Uiso   1.00
O204   O     0.47377   0.04409   0.17538   0.00000  Uiso   1.00
C205   C     0.75416   0.16634   0.24968   0.00000  Uiso   1.00
C206   C     0.98125   0.20161   0.27468   0.00000  Uiso   1.00
C207   C     0.97569   0.13776   0.22064   0.00000  Uiso   1.00
C208   C     0.69081   0.19734   0.27839   0.00000  Uiso   1.00
C209   C     0.85129   0.21058   0.04985   0.00000  Uiso   1.00
C210   C     0.87067   0.14610   0.45225   0.00000  Uiso   1.00
C211   C     0.81190   0.19694   0.45224   0.00000  Uiso   1.00
C212   C     0.83517   0.12791   0.04399   0.00000  Uiso   1.00
C213   C     0.84965   0.20876   0.09571   0.00000  Uiso   1.00
C214   C     0.86697   0.14398   0.40625   0.00000  Uiso   1.00
C215   C     0.81001   0.19638   0.40602   0.00000  Uiso   1.00
C216   C     0.91247   0.16737   0.25016   0.00000  Uiso   1.00
C217   C     0.83269   0.12684   0.09000   0.00000  Uiso   1.00
C218   C     0.83921   0.16713   0.11637   0.00000  Uiso   1.00
C219   C     0.83666   0.16877   0.38301   0.00000  Uiso   1.00
C220   C     0.84322   0.17024   0.02394   0.00000  Uiso   1.00
C221   C     0.84248   0.17193   0.47550   0.00000  Uiso   1.00
C222   C     0.95709   0.16896   0.24870   0.00000  Uiso   1.00
C223   C     0.70939   0.16670   0.24960   0.00000  Uiso   1.00
C224   C     0.76466   0.05235   0.17243   0.00000  Uiso   1.00
C225   C     0.88180   0.29078   0.35284   0.00000  Uiso   1.00
C226   C     0.91274   0.05352   0.31254   0.00000  Uiso   1.00
C227   C     0.83487   0.16652   0.16492   0.00000  Uiso   1.00
C228   C     0.76316   0.27335   0.17377   0.00000  Uiso   1.00
C229   C     0.89875   0.26050   0.02342   0.00000  Uiso   1.00
C230   C     0.93530   0.14626   0.48548   0.00000  Uiso   1.00
C231   C     0.74821   0.19589   0.47897   0.00000  Uiso   1.00
C232   C     0.84977   0.05185   0.02818   0.00000  Uiso   1.00
C233   C     0.69455   0.14888   0.14415   0.00000  Uiso   1.00
C234   C     0.96188   0.27653   0.27018   0.00000  Uiso   1.00
C235   C     0.96295   0.06256   0.19637   0.00000  Uiso   1.00
C236   C     0.72267   0.26558   0.30404   0.00000  Uiso   1.00
C237   C     0.83399   0.16717   0.33479   0.00000  Uiso   1.00
C238   C     0.81788   0.02321   0.21426   0.00000  Uiso   1.00
C239   C     0.84572   0.30979   0.28745   0.00000  Uiso   1.00
C240   C     0.84964   0.02583   0.28562   0.00000  Uiso   1.00
C241   C     0.81837   0.30759   0.21386   0.00000  Uiso   1.00
C242   C     0.68515   0.14134   0.21737   0.00000  Uiso   1.00
Cu243  Cu    0.83333   0.21355   0.25000   0.00000  Uiso   1.00
Cu244  Cu    0.83333   0.11978   0.25000   0.00000  Uiso   1.00
F245   F     0.85882   0.24811   0.11964   0.00000  Uiso   1.00
F246   F     0.89418   0.11894   0.38443   0.00000  Uiso   1.00
F247   F     0.78120   0.22146   0.38375   0.00000  Uiso   1.00
F248   F     0.82227   0.08655   0.10814   0.00000  Uiso   1.00
H249   H     0.74960   0.05244   0.20462   0.00000  Uiso   1.00
H250   H     0.75853   0.23566   0.17660   0.00000  Uiso   1.00
H251   H     0.74931   0.28191   0.14073   0.00000  Uiso   1.00
H252   H     0.74579   0.29149   0.19925   0.00000  Uiso   1.00
H253   H     0.90714   0.24110   0.49347   0.00000  Uiso   1.00
H254   H     0.91928   0.25166   0.05263   0.00000  Uiso   1.00
H255   H     0.90412   0.29769   0.01717   0.00000  Uiso   1.00
H256   H     0.93083   0.16769   0.01547   0.00000  Uiso   1.00
H257   H     0.94498   0.16816   0.45784   0.00000  Uiso   1.00
H258   H     0.96092   0.12284   0.49382   0.00000  Uiso   1.00
H259   H     0.75464   0.16401   0.49782   0.00000  Uiso   1.00
H260   H     0.74846   0.02727   0.14912   0.00000  Uiso   1.00
H261   H     0.73269   0.18690   0.44611   0.00000  Uiso   1.00
H262   H     0.72649   0.21634   0.49778   0.00000  Uiso   1.00
H263   H     0.85394   0.03149   0.49747   0.00000  Uiso   1.00
H264   H     0.83436   0.02862   0.05123   0.00000  Uiso   1.00
H265   H     0.88113   0.06252   0.04225   0.00000  Uiso   1.00
H266   H     0.70221   0.18612   0.15077   0.00000  Uiso   1.00
H267   H     0.99513   0.14439   0.13185   0.00000  Uiso   1.00
H268   H     0.71378   0.13714   0.11727   0.00000  Uiso   1.00
H269   H     0.97079   0.30744   0.29099   0.00000  Uiso   1.00
H270   H     0.93001   0.28155   0.25646   0.00000  Uiso   1.00
H271   H     0.76122   0.08633   0.15713   0.00000  Uiso   1.00
H272   H     0.98255   0.27604   0.24202   0.00000  Uiso   1.00
H273   H     0.97570   0.05419   0.23016   0.00000  Uiso   1.00
H274   H     0.98560   0.05413   0.17159   0.00000  Uiso   1.00
H275   H     0.93532   0.03978   0.18911   0.00000  Uiso   1.00
H276   H     0.71947   0.27413   0.26835   0.00000  Uiso   1.00
H277   H     0.75502   0.27418   0.31551   0.00000  Uiso   1.00
H278   H     0.70275   0.28784   0.32330   0.00000  Uiso   1.00
H279   H     0.90855   0.29033   0.33195   0.00000  Uiso   1.00
H280   H     0.88357   0.25961   0.37349   0.00000  Uiso   1.00
H281   H     0.88362   0.32095   0.37600   0.00000  Uiso   1.00
H282   H     0.92342   0.09005   0.31615   0.00000  Uiso   1.00
H283   H     0.92124   0.04062   0.27946   0.00000  Uiso   1.00
H284   H     0.93070   0.03479   0.33835   0.00000  Uiso   1.00
N285   N     0.83333   0.28402   0.25000   0.00000  Uiso   1.00
N286   N     0.83333   0.04931   0.25000   0.00000  Uiso   1.00
O287   O     0.77321   0.20625   0.25000   0.00000  Uiso   1.00
O288   O     0.84365   0.28941   0.32829   0.00000  Uiso   1.00
O289   O     0.87012   0.05008   0.32020   0.00000  Uiso   1.00
O290   O     0.80581   0.28447   0.17496   0.00000  Uiso   1.00
O291   O     0.85667   0.25305   0.03052   0.00000  Uiso   1.00
O292   O     0.89954   0.11913   0.47401   0.00000  Uiso   1.00
O293   O     0.78443   0.22289   0.47468   0.00000  Uiso   1.00
O294   O     0.82439   0.08937   0.01737   0.00000  Uiso   1.00
O295   O     0.70311   0.12182   0.18175   0.00000  Uiso   1.00
O296   O     0.96323   0.23694   0.29720   0.00000  Uiso   1.00
O297   O     0.95107   0.10895   0.19231   0.00000  Uiso   1.00
O298   O     0.89345   0.12709   0.25001   0.00000  Uiso   1.00
O299   O     0.71415   0.21877   0.31311   0.00000  Uiso   1.00
O300   O     0.89345   0.20625   0.25001   0.00000  Uiso   1.00
O301   O     0.77321   0.12709   0.25000   0.00000  Uiso   1.00
O302   O     0.83333   0.20626   0.18573   0.00000  Uiso   1.00
O303   O     0.83334   0.12707   0.31427   0.00000  Uiso   1.00
O304   O     0.83334   0.20626   0.31427   0.00000  Uiso   1.00
O305   O     0.83333   0.12707   0.18573   0.00000  Uiso   1.00
O306   O     0.80710   0.04409   0.17538   0.00000  Uiso   1.00
C307   C     0.08750   0.49968   0.24968   0.00000  Uiso   1.00
C308   C     0.31458   0.53494   0.27468   0.00000  Uiso   1.00
C309   C     0.30902   0.47110   0.22064   0.00000  Uiso   1.00
C310   C     0.02414   0.53067   0.27839   0.00000  Uiso   1.00
C311   C     0.18462   0.54392   0.04985   0.00000  Uiso   1.00
C312   C     0.20400   0.47944   0.45225   0.00000  Uiso   1.00
C313   C     0.14523   0.53027   0.45224   0.00000  Uiso   1.00
C314   C     0.16850   0.46125   0.04399   0.00000  Uiso   1.00
C315   C     0.18298   0.54210   0.09571   0.00000  Uiso   1.00
C316   C     0.20030   0.47731   0.40625   0.00000  Uiso   1.00
C317   C     0.14334   0.52971   0.40602   0.00000  Uiso   1.00
C318   C     0.24580   0.50070   0.25016   0.00000  Uiso   1.00
C319   C     0.16603   0.46018   0.09000   0.00000  Uiso   1.00
C320   C     0.17254   0.50047   0.11637   0.00000  Uiso   1.00
C321   C     0.16999   0.50210   0.38301   0.00000  Uiso   1.00
C322   C     0.17655   0.50357   0.02394   0.00000  Uiso   1.00
C323   C     0.17582   0.50526   0.47550   0.00000  Uiso   1.00
C324   C     0.29042   0.50230   0.24870   0.00000  Uiso   1.00
C325   C     0.04273   0.50004   0.24960   0.00000  Uiso   1.00
C326   C     0.09799   0.38569   0.17243   0.00000  Uiso   1.00
C327   C     0.21514   0.62411   0.35284   0.00000  Uiso   1.00
C328   C     0.24607   0.38686   0.31254   0.00000  Uiso   1.00
C329   C     0.16820   0.49985   0.16492   0.00000  Uiso   1.00
C330   C     0.09650   0.60668   0.17377   0.00000  Uiso   1.00
C331   C     0.23208   0.59383   0.02342   0.00000  Uiso   1.00
C332   C     0.26863   0.47959   0.48548   0.00000  Uiso   1.00
C333   C     0.08154   0.52923   0.47897   0.00000  Uiso   1.00
C334   C     0.18311   0.38518   0.02818   0.00000  Uiso   1.00
C335   C     0.02788   0.48221   0.14415   0.00000  Uiso   1.00
C336   C     0.29521   0.60986   0.27018   0.00000  Uiso   1.00
C337   C     0.29629   0.39589   0.19637   0.00000  Uiso   1.00
C338   C     0.05601   0.59891   0.30404   0.00000  Uiso   1.00
C339   C     0.16732   0.50050   0.33479   0.00000  Uiso   1.00
C340   C     0.15121   0.35655   0.21426   0.00000  Uiso   1.00
C341   C     0.17905   0.64313   0.28745   0.00000  Uiso   1.00
C342   C     0.18298   0.35917   0.28562   0.00000  Uiso   1.00
C343   C     0.15170   0.64092   0.21386   0.00000  Uiso   1.00
C344   C     0.01849   0.47467   0.21737   0.00000  Uiso   1.00
Cu345  Cu    0.16667   0.54689   0.25000   0.00000  Uiso   1.00
Cu346  Cu    0.16667   0.45311   0.25000   0.00000  Uiso   1.00
F347   F     0.19216   0.58144   0.11964   0.00000  Uiso   1.00
F348   F     0.22752   0.45227   0.38443   0.00000  Uiso   1.00
F349   F     0.11454   0.55479   0.38375   0.00000  Uiso   1.00
F350   F     0.15561   0.41989   0.10814   0.00000  Uiso   1.00
H351   H     0.08293   0.38578   0.20462   0.00000  Uiso   1.00
H352   H     0.09186   0.56900   0.17660   0.00000  Uiso   1.00
H353   H     0.08264   0.61524   0.14073   0.00000  Uiso   1.00
H354   H     0.07912   0.62482   0.19925   0.00000  Uiso   1.00
H355   H     0.24047   0.57444   0.49347   0.00000  Uiso   1.00
H356   H     0.25261   0.58500   0.05263   0.00000  Uiso   1.00
H357   H     0.23746   0.63103   0.01717   0.00000  Uiso   1.00
H358   H     0.26416   0.50102   0.01547   0.00000  Uiso   1.00
H359   H     0.27831   0.50150   0.45784   0.00000  Uiso   1.00
H360   H     0.29425   0.45617   0.49382   0.00000  Uiso   1.00
H361   H     0.08797   0.49734   0.49782   0.00000  Uiso   1.00
H362   H     0.08179   0.36060   0.14912   0.00000  Uiso   1.00
H363   H     0.06602   0.52023   0.44611   0.00000  Uiso   1.00
H364   H     0.05982   0.54967   0.49778   0.00000  Uiso   1.00
H365   H     0.18727   0.36482   0.49747   0.00000  Uiso   1.00
H366   H     0.16770   0.36195   0.05123   0.00000  Uiso   1.00
H367   H     0.21446   0.39585   0.04225   0.00000  Uiso   1.00
H368   H     0.03554   0.51945   0.15077   0.00000  Uiso   1.00
H369   H     0.32846   0.47772   0.13185   0.00000  Uiso   1.00
H370   H     0.04712   0.47047   0.11727   0.00000  Uiso   1.00
H371   H     0.30413   0.64078   0.29099   0.00000  Uiso   1.00
H372   H     0.26335   0.61488   0.25646   0.00000  Uiso   1.00
H373   H     0.09455   0.41967   0.15713   0.00000  Uiso   1.00
H374   H     0.31589   0.60937   0.24202   0.00000  Uiso   1.00
H375   H     0.30904   0.38752   0.23016   0.00000  Uiso   1.00
H376   H     0.31893   0.38747   0.17159   0.00000  Uiso   1.00
H377   H     0.26866   0.37312   0.18911   0.00000  Uiso   1.00
H378   H     0.05280   0.60746   0.26835   0.00000  Uiso   1.00
H379   H     0.08836   0.60751   0.31551   0.00000  Uiso   1.00
H380   H     0.03608   0.62118   0.32330   0.00000  Uiso   1.00
H381   H     0.24188   0.62366   0.33195   0.00000  Uiso   1.00
H382   H     0.21691   0.59295   0.37349   0.00000  Uiso   1.00
H383   H     0.21696   0.65429   0.37600   0.00000  Uiso   1.00
H384   H     0.25675   0.42338   0.31615   0.00000  Uiso   1.00
H385   H     0.25458   0.37396   0.27946   0.00000  Uiso   1.00
H386   H     0.26403   0.36812   0.33835   0.00000  Uiso   1.00
N387   N     0.16667   0.61736   0.25000   0.00000  Uiso   1.00
N388   N     0.16667   0.38264   0.25000   0.00000  Uiso   1.00
O389   O     0.10655   0.53958   0.25000   0.00000  Uiso   1.00
O390   O     0.17698   0.62274   0.32829   0.00000  Uiso   1.00
O391   O     0.20345   0.38341   0.32020   0.00000  Uiso   1.00
O392   O     0.13914   0.61780   0.17496   0.00000  Uiso   1.00
O393   O     0.19000   0.58638   0.03052   0.00000  Uiso   1.00
O394   O     0.23288   0.45246   0.47401   0.00000  Uiso   1.00
O395   O     0.11776   0.55622   0.47468   0.00000  Uiso   1.00
O396   O     0.15772   0.42270   0.01737   0.00000  Uiso   1.00
O397   O     0.03644   0.45515   0.18175   0.00000  Uiso   1.00
O398   O     0.29657   0.57028   0.29720   0.00000  Uiso   1.00
O399   O     0.28441   0.44228   0.19231   0.00000  Uiso   1.00
O400   O     0.22679   0.46042   0.25001   0.00000  Uiso   1.00
O401   O     0.04748   0.55210   0.31311   0.00000  Uiso   1.00
O402   O     0.22679   0.53958   0.25001   0.00000  Uiso   1.00
O403   O     0.10655   0.46042   0.25000   0.00000  Uiso   1.00
O404   O     0.16666   0.53959   0.18573   0.00000  Uiso   1.00
O405   O     0.16667   0.46041   0.31427   0.00000  Uiso   1.00
O406   O     0.16667   0.53959   0.31427   0.00000  Uiso   1.00
O407   O     0.16666   0.46041   0.18573   0.00000  Uiso   1.00
O408   O     0.14044   0.37742   0.17538   0.00000  Uiso   1.00
C409   C     0.42083   0.49968   0.24968   0.00000  Uiso   1.00
C410   C     0.64791   0.53494   0.27468   0.00000  Uiso   1.00
C411   C     0.64235   0.47110   0.22064   0.00000  Uiso   1.00
C412   C     0.35747   0.53067   0.27839   0.00000  Uiso   1.00
C413   C     0.51796   0.54392   0.04985   0.00000  Uiso   1.00
C414   C     0.53733   0.47944   0.45225   0.00000  Uiso   1.00
C415   C     0.47857   0.53027   0.45224   0.00000  Uiso   1.00
C416   C     0.50183   0.46125   0.04399   0.00000  Uiso   1.00
C417   C     0.51632   0.54210   0.09571   0.00000  Uiso   1.00
C418   C     0.53363   0.47731   0.40625   0.00000  Uiso   1.00
C419   C     0.47668   0.52971   0.40602   0.00000  Uiso   1.00
C420   C     0.57914   0.50070   0.25016   0.00000  Uiso   1.00
C421   C     0.49936   0.46018   0.09000   0.00000  Uiso   1.00
C422   C     0.50587   0.50047   0.11637   0.00000  Uiso   1.00
C423   C     0.50333   0.50210   0.38301   0.00000  Uiso   1.00
C424   C     0.50989   0.50357   0.02394   0.00000  Uiso   1.00
C425   C     0.50915   0.50526   0.47550   0.00000  Uiso   1.00
C426   C     0.62376   0.50230   0.24870   0.00000  Uiso   1.00
C427   C     0.37606   0.50004   0.24960   0.00000  Uiso   1.00
C428   C     0.43133   0.38569   0.17243   0.00000  Uiso   1.00
C429   C     0.54847   0.62411   0.35284   0.00000  Uiso   1.00
C430   C     0.57941   0.38686   0.31254   0.00000  Uiso   1.00
C431   C     0.50154   0.49985   0.16492   0.00000  Uiso   1.00
C432   C     0.42983   0.60668   0.17377   0.00000  Uiso   1.00
C433   C     0.56542   0.59383   0.02342   0.00000  Uiso   1.00
C434   C     0.60197   0.47959   0.48548   0.00000  Uiso   1.00
C435   C     0.41488   0.52923   0.47897   0.00000  Uiso   1.00
C436   C     0.51644   0.38518   0.02818   0.00000  Uiso   1.00
C437   C     0.36121   0.48221   0.14415   0.00000  Uiso   1.00
C438   C     0.62854   0.60986   0.27018   0.00000  Uiso   1.00
C439   C     0.62962   0.39589   0.19637   0.00000  Uiso   1.00
C440   C     0.38934   0.59891   0.30404   0.00000  Uiso   1.00
C441   C     0.50066   0.50050   0.33479   0.00000  Uiso   1.00
C442   C     0.48455   0.35655   0.21426   0.00000  Uiso   1.00
C443   C     0.51239   0.64313   0.28745   0.00000  Uiso   1.00
C444   C     0.51631   0.35917   0.28562   0.00000  Uiso   1.00
C445   C     0.48504   0.64092   0.21386   0.00000  Uiso   1.00
C446   C     0.35182   0.47467   0.21737   0.00000  Uiso   1.00
Cu447  Cu    0.50000   0.54689   0.25000   0.00000  Uiso   1.00
Cu448  Cu    0.50000   0.45311   0.25000   0.00000  Uiso   1.00
F449   F     0.52549   0.58144   0.11964   0.00000  Uiso   1.00
F450   F     0.56085   0.45227   0.38443   0.00000  Uiso   1.00
F451   F     0.44787   0.55479   0.38375   0.00000  Uiso   1.00
F452   F     0.48894   0.41989   0.10814   0.00000  Uiso   1.00
H453   H     0.41627   0.38578   0.20462   0.00000  Uiso   1.00
H454   H     0.42519   0.56900   0.17660   0.00000  Uiso   1.00
H455   H     0.41598   0.61524   0.14073   0.00000  Uiso   1.00
H456   H     0.41245   0.62482   0.19925   0.00000  Uiso   1.00
H457   H     0.57381   0.57444   0.49347   0.00000  Uiso   1.00
H458   H     0.58594   0.58500   0.05263   0.00000  Uiso   1.00
H459   H     0.57079   0.63103   0.01717   0.00000  Uiso   1.00
H460   H     0.59750   0.50102   0.01547   0.00000  Uiso   1.00
H461   H     0.61165   0.50150   0.45784   0.00000  Uiso   1.00
H462   H     0.62759   0.45617   0.49382   0.00000  Uiso   1.00
H463   H     0.42130   0.49734   0.49782   0.00000  Uiso   1.00
H464   H     0.41512   0.36060   0.14912   0.00000  Uiso   1.00
H465   H     0.39936   0.52023   0.44611   0.00000  Uiso   1.00
H466   H     0.39316   0.54967   0.49778   0.00000  Uiso   1.00
H467   H     0.52060   0.36482   0.49747   0.00000  Uiso   1.00
H468   H     0.50103   0.36195   0.05123   0.00000  Uiso   1.00
H469   H     0.54779   0.39585   0.04225   0.00000  Uiso   1.00
H470   H     0.36888   0.51945   0.15077   0.00000  Uiso   1.00
H471   H     0.66179   0.47772   0.13185   0.00000  Uiso   1.00
H472   H     0.38045   0.47047   0.11727   0.00000  Uiso   1.00
H473   H     0.63746   0.64078   0.29099   0.00000  Uiso   1.00
H474   H     0.59668   0.61488   0.25646   0.00000  Uiso   1.00
H475   H     0.42789   0.41967   0.15713   0.00000  Uiso   1.00
H476   H     0.64922   0.60937   0.24202   0.00000  Uiso   1.00
H477   H     0.64237   0.38752   0.23016   0.00000  Uiso   1.00
H478   H     0.65226   0.38747   0.17159   0.00000  Uiso   1.00
H479   H     0.60199   0.37312   0.18911   0.00000  Uiso   1.00
H480   H     0.38614   0.60746   0.26835   0.00000  Uiso   1.00
H481   H     0.42169   0.60751   0.31551   0.00000  Uiso   1.00
H482   H     0.36942   0.62118   0.32330   0.00000  Uiso   1.00
H483   H     0.57521   0.62366   0.33195   0.00000  Uiso   1.00
H484   H     0.55024   0.59295   0.37349   0.00000  Uiso   1.00
H485   H     0.55029   0.65429   0.37600   0.00000  Uiso   1.00
H486   H     0.59008   0.42338   0.31615   0.00000  Uiso   1.00
H487   H     0.58791   0.37396   0.27946   0.00000  Uiso   1.00
H488   H     0.59736   0.36812   0.33835   0.00000  Uiso   1.00
N489   N     0.50000   0.61736   0.25000   0.00000  Uiso   1.00
N490   N     0.50000   0.38264   0.25000   0.00000  Uiso   1.00
O491   O     0.43988   0.53958   0.25000   0.00000  Uiso   1.00
O492   O     0.51031   0.62274   0.32829   0.00000  Uiso   1.00
O493   O     0.53678   0.38341   0.32020   0.00000  Uiso   1.00
O494   O     0.47248   0.61780   0.17496   0.00000  Uiso   1.00
O495   O     0.52333   0.58638   0.03052   0.00000  Uiso   1.00
O496   O     0.56621   0.45246   0.47401   0.00000  Uiso   1.00
O497   O     0.45110   0.55622   0.47468   0.00000  Uiso   1.00
O498   O     0.49106   0.42270   0.01737   0.00000  Uiso   1.00
O499   O     0.36978   0.45515   0.18175   0.00000  Uiso   1.00
O500   O     0.62990   0.57028   0.29720   0.00000  Uiso   1.00
O501   O     0.61774   0.44228   0.19231   0.00000  Uiso   1.00
O502   O     0.56012   0.46042   0.25001   0.00000  Uiso   1.00
O503   O     0.38082   0.55210   0.31311   0.00000  Uiso   1.00
O504   O     0.56012   0.53958   0.25001   0.00000  Uiso   1.00
O505   O     0.43988   0.46042   0.25000   0.00000  Uiso   1.00
O506   O     0.50000   0.53959   0.18573   0.00000  Uiso   1.00
O507   O     0.50000   0.46041   0.31427   0.00000  Uiso   1.00
O508   O     0.50000   0.53959   0.31427   0.00000  Uiso   1.00
O509   O     0.50000   0.46041   0.18573   0.00000  Uiso   1.00
O510   O     0.47377   0.37742   0.17538   0.00000  Uiso   1.00
C511   C     0.75416   0.49968   0.24968   0.00000  Uiso   1.00
C512   C     0.98125   0.53494   0.27468   0.00000  Uiso   1.00
C513   C     0.97569   0.47110   0.22064   0.00000  Uiso   1.00
C514   C     0.69081   0.53067   0.27839   0.00000  Uiso   1.00
C515   C     0.85129   0.54392   0.04985   0.00000  Uiso   1.00
C516   C     0.87067   0.47944   0.45225   0.00000  Uiso   1.00
C517   C     0.81190   0.53027   0.45224   0.00000  Uiso   1.00
C518   C     0.83517   0.46125   0.04399   0.00000  Uiso   1.00
C519   C     0.84965   0.54210   0.09571   0.00000  Uiso   1.00
C520   C     0.86697   0.47731   0.40625   0.00000  Uiso   1.00
C521   C     0.81001   0.52971   0.40602   0.00000  Uiso   1.00
C522   C     0.91247   0.50070   0.25016   0.00000  Uiso   1.00
C523   C     0.83269   0.46018   0.09000   0.00000  Uiso   1.00
C524   C     0.83921   0.50047   0.11637   0.00000  Uiso   1.00
C525   C     0.83666   0.50210   0.38301   0.00000  Uiso   1.00
C526   C     0.84322   0.50357   0.02394   0.00000  Uiso   1.00
C527   C     0.84248   0.50526   0.47550   0.00000  Uiso   1.00
C528   C     0.95709   0.50230   0.24870   0.00000  Uiso   1.00
C529   C     0.70939   0.50004   0.24960   0.00000  Uiso   1.00
C530   C     0.76466   0.38569   0.17243   0.00000  Uiso   1.00
C531   C     0.88180   0.62411   0.35284   0.00000  Uiso   1.00
C532   C     0.91274   0.38686   0.31254   0.00000  Uiso   1.00
C533   C     0.83487   0.49985   0.16492   0.00000  Uiso   1.00
C534   C     0.76316   0.60668   0.17377   0.00000  Uiso   1.00
C535   C     0.89875   0.59383   0.02342   0.00000  Uiso   1.00
C536   C     0.93530   0.47959   0.48548   0.00000  Uiso   1.00
C537   C     0.74821   0.52923   0.47897   0.00000  Uiso   1.00
C538   C     0.84977   0.38518   0.02818   0.00000  Uiso   1.00
C539   C     0.69455   0.48221   0.14415   0.00000  Uiso   1.00
C540   C     0.96188   0.60986   0.27018   0.00000  Uiso   1.00
C541   C     0.96295   0.39589   0.19637   0.00000  Uiso   1.00
C542   C     0.72267   0.59891   0.30404   0.00000  Uiso   1.00
C543   C     0.83399   0.50050   0.33479   0.00000  Uiso   1.00
C544   C     0.81788   0.35655   0.21426   0.00000  Uiso   1.00
C545   C     0.84572   0.64313   0.28745   0.00000  Uiso   1.00
C546   C     0.84964   0.35917   0.28562   0.00000  Uiso   1.00
C547   C     0.81837   0.64092   0.21386   0.00000  Uiso   1.00
C548   C     0.68515   0.47467   0.21737   0.00000  Uiso   1.00
Cu549  Cu    0.83333   0.54689   0.25000   0.00000  Uiso   1.00
Cu550  Cu    0.83333   0.45311   0.25000   0.00000  Uiso   1.00
F551   F     0.85882   0.58144   0.11964   0.00000  Uiso   1.00
F552   F     0.89418   0.45227   0.38443   0.00000  Uiso   1.00
F553   F     0.78120   0.55479   0.38375   0.00000  Uiso   1.00
F554   F     0.82227   0.41989   0.10814   0.00000  Uiso   1.00
H555   H     0.74960   0.38578   0.20462   0.00000  Uiso   1.00
H556   H     0.75853   0.56900   0.17660   0.00000  Uiso   1.00
H557   H     0.74931   0.61524   0.14073   0.00000  Uiso   1.00
H558   H     0.74579   0.62482   0.19925   0.00000  Uiso   1.00
H559   H     0.90714   0.57444   0.49347   0.00000  Uiso   1.00
H560   H     0.91928   0.58500   0.05263   0.00000  Uiso   1.00
H561   H     0.90412   0.63103   0.01717   0.00000  Uiso   1.00
H562   H     0.93083   0.50102   0.01547   0.00000  Uiso   1.00
H563   H     0.94498   0.50150   0.45784   0.00000  Uiso   1.00
H564   H     0.96092   0.45617   0.49382   0.00000  Uiso   1.00
H565   H     0.75464   0.49734   0.49782   0.00000  Uiso   1.00
H566   H     0.74846   0.36060   0.14912   0.00000  Uiso   1.00
H567   H     0.73269   0.52023   0.44611   0.00000  Uiso   1.00
H568   H     0.72649   0.54967   0.49778   0.00000  Uiso   1.00
H569   H     0.85394   0.36482   0.49747   0.00000  Uiso   1.00
H570   H     0.83436   0.36195   0.05123   0.00000  Uiso   1.00
H571   H     0.88113   0.39585   0.04225   0.00000  Uiso   1.00
H572   H     0.70221   0.51945   0.15077   0.00000  Uiso   1.00
H573   H     0.99513   0.47772   0.13185   0.00000  Uiso   1.00
H574   H     0.71378   0.47047   0.11727   0.00000  Uiso   1.00
H575   H     0.97079   0.64078   0.29099   0.00000  Uiso   1.00
H576   H     0.93001   0.61488   0.25646   0.00000  Uiso   1.00
H577   H     0.76122   0.41967   0.15713   0.00000  Uiso   1.00
H578   H     0.98255   0.60937   0.24202   0.00000  Uiso   1.00
H579   H     0.97570   0.38752   0.23016   0.00000  Uiso   1.00
H580   H     0.98560   0.38747   0.17159   0.00000  Uiso   1.00
H581   H     0.93532   0.37312   0.18911   0.00000  Uiso   1.00
H582   H     0.71947   0.60746   0.26835   0.00000  Uiso   1.00
H583   H     0.75502   0.60751   0.31551   0.00000  Uiso   1.00
H584   H     0.70275   0.62118   0.32330   0.00000  Uiso   1.00
H585   H     0.90855   0.62366   0.33195   0.00000  Uiso   1.00
H586   H     0.88357   0.59295   0.37349   0.00000  Uiso   1.00
H587   H     0.88362   0.65429   0.37600   0.00000  Uiso   1.00
H588   H     0.92342   0.42338   0.31615   0.00000  Uiso   1.00
H589   H     0.92124   0.37396   0.27946   0.00000  Uiso   1.00
H590   H     0.93070   0.36812   0.33835   0.00000  Uiso   1.00
N591   N     0.83333   0.61736   0.25000   0.00000  Uiso   1.00
N592   N     0.83333   0.38264   0.25000   0.00000  Uiso   1.00
O593   O     0.77321   0.53958   0.25000   0.00000  Uiso   1.00
O594   O     0.84365   0.62274   0.32829   0.00000  Uiso   1.00
O595   O     0.87012   0.38341   0.32020   0.00000  Uiso   1.00
O596   O     0.80581   0.61780   0.17496   0.00000  Uiso   1.00
O597   O     0.85667   0.58638   0.03052   0.00000  Uiso   1.00
O598   O     0.89954   0.45246   0.47401   0.00000  Uiso   1.00
O599   O     0.78443   0.55622   0.47468   0.00000  Uiso   1.00
O600   O     0.82439   0.42270   0.01737   0.00000  Uiso   1.00
O601   O     0.70311   0.45515   0.18175   0.00000  Uiso   1.00
O602   O     0.96323   0.57028   0.29720   0.00000  Uiso   1.00
O603   O     0.95107   0.44228   0.19231   0.00000  Uiso   1.00
O604   O     0.89345   0.46042   0.25001   0.00000  Uiso   1.00
O605   O     0.71415   0.55210   0.31311   0.00000  Uiso   1.00
O606   O     0.89345   0.53958   0.25001   0.00000  Uiso   1.00
O607   O     0.77321   0.46042   0.25000   0.00000  Uiso   1.00
O608   O     0.83333   0.53959   0.18573   0.00000  Uiso   1.00
O609   O     0.83334   0.46041   0.31427   0.00000  Uiso   1.00
O610   O     0.83334   0.53959   0.31427   0.00000  Uiso   1.00
O611   O     0.83333   0.46041   0.18573   0.00000  Uiso   1.00
O612   O     0.80710   0.37742   0.17538   0.00000  Uiso   1.00
C613   C     0.08750   0.83301   0.24968   0.00000  Uiso   1.00
C614   C     0.31458   0.86827   0.27468   0.00000  Uiso   1.00
C615   C     0.30902   0.80443   0.22064   0.00000  Uiso   1.00
C616   C     0.02414   0.86400   0.27839   0.00000  Uiso   1.00
C617   C     0.18462   0.87725   0.04985   0.00000  Uiso   1.00
C618   C     0.20400   0.81277   0.45225   0.00000  Uiso   1.00
C619   C     0.14523   0.86361   0.45224   0.00000  Uiso   1.00
C620   C     0.16850   0.79458   0.04399   0.00000  Uiso   1.00
C621   C     0.18298   0.87543   0.09571   0.00000  Uiso   1.00
C622   C     0.20030   0.81064   0.40625   0.00000  Uiso   1.00
C623   C     0.14334   0.86304   0.40602   0.00000  Uiso   1.00
C624   C     0.24580   0.83403   0.25016   0.00000  Uiso   1.00
C625   C     0.16603   0.79351   0.09000   0.00000  Uiso   1.00
C626   C     0.17254   0.83380   0.11637   0.00000  Uiso   1.00
C627   C     0.16999   0.83544   0.38301   0.00000  Uiso   1.00
C628   C     0.17655   0.83691   0.02394   0.00000  Uiso   1.00
C629   C     0.17582   0.83860   0.47550   0.00000  Uiso   1.00
C630   C     0.29042   0.83563   0.24870   0.00000  Uiso   1.00
C631   C     0.04273   0.83337   0.24960   0.00000  Uiso   1.00
C632   C     0.09799   0.71902   0.17243   0.00000  Uiso   1.00
C633   C     0.21514   0.95744   0.35284   0.00000  Uiso   1.00
C634   C     0.24607   0.72019   0.31254   0.00000  Uiso   1.00
C635   C     0.16820   0.83319   0.16492   0.00000  Uiso   1.00
C636   C     0.09650   0.94002   0.17377   0.00000  Uiso   1.00
C637   C     0.23208   0.92717   0.02342   0.00000  Uiso   1.00
C638   C     0.26863   0.81292   0.48548   0.00000  Uiso   1.00
C639   C     0.08154   0.86256   0.47897   0.00000  Uiso   1.00
C640   C     0.18311   0.71851   0.02818   0.00000  Uiso   1.00
C641   C     0.02788   0.81554   0.14415   0.00000  Uiso   1.00
C642   C     0.29521   0.94319   0.27018   0.00000  Uiso   1.00
C643   C     0.29629   0.72923   0.19637   0.00000  Uiso   1.00
C644   C     0.05601   0.93225   0.30404   0.00000  Uiso   1.00
C645   C     0.16732   0.83384   0.33479   0.00000  Uiso   1.00
C646   C     0.15121   0.68988   0.21426   0.00000  Uiso   1.00
C647   C     0.17905   0.97646   0.28745   0.00000  Uiso   1.00
C648   C     0.18298   0.69250   0.28562   0.00000  Uiso   1.00
C649   C     0.15170   0.97426   0.21386   0.00000  Uiso   1.00
C650   C     0.01849   0.80800   0.21737   0.00000  Uiso   1.00
Cu651  Cu    0.16667   0.88022   0.25000   0.00000  Uiso   1.00
Cu652  Cu    0.16667   0.78645   0.25000   0.00000  Uiso   1.00
F653   F     0.19216   0.91478   0.11964   0.00000  Uiso   1.00
F654   F     0.22752   0.78560   0.38443   0.00000  Uiso   1.00
F655   F     0.11454   0.88813   0.38375   0.00000  Uiso   1.00
F656   F     0.15561   0.75322   0.10814   0.00000  Uiso   1.00
H657   H     0.08293   0.71911   0.20462   0.00000  Uiso   1.00
H658   H     0.09186   0.90233   0.17660   0.00000  Uiso   1.00
H659   H     0.08264   0.94857   0.14073   0.00000  Uiso   1.00
H660   H     0.07912   0.95816   0.19925   0.00000  Uiso   1.00
H661   H     0.24047   0.90777   0.49347   0.00000  Uiso   1.00
H662   H     0.25261   0.91833   0.05263   0.00000  Uiso   1.00
H663   H     0.23746   0.96436   0.01717   0.00000  Uiso   1.00
H664   H     0.26416   0.83436   0.01547   0.00000  Uiso   1.00
H665   H     0.27831   0.83483   0.45784   0.00000  Uiso   1.00
H666   H     0.29425   0.78950   0.49382   0.00000  Uiso   1.00
H667   H     0.08797   0.83067   0.49782   0.00000  Uiso   1.00
H668   H     0.08179   0.69394   0.14912   0.00000  Uiso   1.00
H669   H     0.06602   0.85356   0.44611   0.00000  Uiso   1.00
H670   H     0.05982   0.88300   0.49778   0.00000  Uiso   1.00
H671   H     0.18727   0.69816   0.49747   0.00000  Uiso   1.00
H672   H     0.16770   0.69528   0.05123   0.00000  Uiso   1.00
H673   H     0.21446   0.72919   0.04225   0.00000  Uiso   1.00
H674   H     0.03554   0.85278   0.15077   0.00000  Uiso   1.00
H675   H     0.32846   0.81106   0.13185   0.00000  Uiso   1.00
H676   H     0.04712   0.80381   0.11727   0.00000  Uiso   1.00
H677   H     0.30413   0.97411   0.29099   0.00000  Uiso   1.00
H678   H     0.26335   0.94821   0.25646   0.00000  Uiso   1.00
H679   H     0.09455   0.75300   0.15713   0.00000  Uiso   1.00
H680   H     0.31589   0.94270   0.24202   0.00000  Uiso   1.00
H681   H     0.30904   0.72086   0.23016   0.00000  Uiso   1.00
H682   H     0.31893   0.72080   0.17159   0.00000  Uiso   1.00
H683   H     0.26866   0.70645   0.18911   0.00000  Uiso   1.00
H684   H     0.05280   0.94080   0.26835   0.00000  Uiso   1.00
H685   H     0.08836   0.94084   0.31551   0.00000  Uiso   1.00
H686   H     0.03608   0.95451   0.32330   0.00000  Uiso   1.00
H687   H     0.24188   0.95700   0.33195   0.00000  Uiso   1.00
H688   H     0.21691   0.92628   0.37349   0.00000  Uiso   1.00
H689   H     0.21696   0.98762   0.37600   0.00000  Uiso   1.00
H690   H     0.25675   0.75671   0.31615   0.00000  Uiso   1.00
H691   H     0.25458   0.70729   0.27946   0.00000  Uiso   1.00
H692   H     0.26403   0.70146   0.33835   0.00000  Uiso   1.00
N693   N     0.16667   0.95069   0.25000   0.00000  Uiso   1.00
N694   N     0.16667   0.71598   0.25000   0.00000  Uiso   1.00
O695   O     0.10655   0.87291   0.25000   0.00000  Uiso   1.00
O696   O     0.17698   0.95608   0.32829   0.00000  Uiso   1.00
O697   O     0.20345   0.71675   0.32020   0.00000  Uiso   1.00
O698   O     0.13914   0.95114   0.17496   0.00000  Uiso   1.00
O699   O     0.19000   0.91972   0.03052   0.00000  Uiso   1.00
O700   O     0.23288   0.78580   0.47401   0.00000  Uiso   1.00
O701   O     0.11776   0.88955   0.47468   0.00000  Uiso   1.00
O702   O     0.15772   0.75604   0.01737   0.00000  Uiso   1.00
O703   O     0.03644   0.78849   0.18175   0.00000  Uiso   1.00
O704   O     0.29657   0.90361   0.29720   0.00000  Uiso   1.00
O705   O     0.28441   0.77562   0.19231   0.00000  Uiso   1.00
O706   O     0.22679   0.79375   0.25001   0.00000  Uiso   1.00
O707   O     0.04748   0.88543   0.31311   0.00000  Uiso   1.00
O708   O     0.22679   0.87291   0.25001   0.00000  Uiso   1.00
O709   O     0.10655   0.79375   0.25000   0.00000  Uiso   1.00
O710   O     0.16666   0.87293   0.18573   0.00000  Uiso   1.00
O711   O     0.16667   0.79374   0.31427   0.00000  Uiso   1.00
O712   O     0.16667   0.87293   0.31427   0.00000  Uiso   1.00
O713   O     0.16666   0.79374   0.18573   0.00000  Uiso   1.00
O714   O     0.14044   0.71076   0.17538   0.00000  Uiso   1.00
C715   C     0.42083   0.83301   0.24968   0.00000  Uiso   1.00
C716   C     0.64791   0.86827   0.27468   0.00000  Uiso   1.00
C717   C     0.64235   0.80443   0.22064   0.00000  Uiso   1.00
C718   C     0.35747   0.86400   0.27839   0.00000  Uiso   1.00
C719   C     0.51796   0.87725   0.04985   0.00000  Uiso   1.00
C720   C     0.53733   0.81277   0.45225   0.00000  Uiso   1.00
C721   C     0.47857   0.86361   0.45224   0.00000  Uiso   1.00
C722   C     0.50183   0.79458   0.04399   0.00000  Uiso   1.00
C723   C     0.51632   0.87543   0.09571   0.00000  Uiso   1.00
C724   C     0.53363   0.81064   0.40625   0.00000  Uiso   1.00
C725   C     0.47668   0.86304   0.40602   0.00000  Uiso   1.00
C726   C     0.57914   0.83403   0.25016   0.00000  Uiso   1.00
C727   C     0.49936   0.79351   0.09000   0.00000  Uiso   1.00
C728   C     0.50587   0.83380   0.11637   0.00000  Uiso   1.00
C729   C     0.50333   0.83544   0.38301   0.00000  Uiso   1.00
C730   C     0.50989   0.83691   0.02394   0.00000  Uiso   1.00
C731   C     0.50915   0.83860   0.47550   0.00000  Uiso   1.00
C732   C     0.62376   0.83563   0.24870   0.00000  Uiso   1.00
C733   C     0.37606   0.83337   0.24960   0.00000  Uiso   1.00
C734   C     0.43133   0.71902   0.17243   0.00000  Uiso   1.00
C735   C     0.54847   0.95744   0.35284   0.00000  Uiso   1.00
C736   C     0.57941   0.72019   0.31254   0.00000  Uiso   1.00
C737   C     0.50154   0.83319   0.16492   0.00000  Uiso   1.00
C738   C     0.42983   0.94002   0.17377   0.00000  Uiso   1.00
C739   C     0.56542   0.92717   0.02342   0.00000  Uiso   1.00
C740   C     0.60197   0.81292   0.48548   0.00000  Uiso   1.00
C741   C     0.41488   0.86256   0.47897   0.00000  Uiso   1.00
C742   C     0.51644   0.71851   0.02818   0.00000  Uiso   1.00
C743   C     0.36121   0.81554   0.14415   0.00000  Uiso   1.00
C744   C     0.62854   0.94319   0.27018   0.00000  Uiso   1.00
C745   C     0.62962   0.72923   0.19637   0.00000  Uiso   1.00
C746   C     0.38934   0.93225   0.30404   0.00000  Uiso   1.00
C747   C     0.50066   0.83384   0.33479   0.00000  Uiso   1.00
C748   C     0.48455   0.68988   0.21426   0.00000  Uiso   1.00
C749   C     0.51239   0.97646   0.28745   0.00000  Uiso   1.00
C750   C     0.51631   0.69250   0.28562   0.00000  Uiso   1.00
C751   C     0.48504   0.97426   0.21386   0.00000  Uiso   1.00
C752   C     0.35182   0.80800   0.21737   0.00000  Uiso   1.00
Cu753  Cu    0.50000   0.88022   0.25000   0.00000  Uiso   1.00
Cu754  Cu    0.50000   0.78645   0.25000   0.00000  Uiso   1.00
F755   F     0.52549   0.91478   0.11964   0.00000  Uiso   1.00
F756   F     0.56085   0.78560   0.38443   0.00000  Uiso   1.00
F757   F     0.44787   0.88813   0.38375   0.00000  Uiso   1.00
F758   F     0.48894   0.75322   0.10814   0.00000  Uiso   1.00
H759   H     0.41627   0.71911   0.20462   0.00000  Uiso   1.00
H760   H     0.42519   0.90233   0.17660   0.00000  Uiso   1.00
H761   H     0.41598   0.94857   0.14073   0.00000  Uiso   1.00
H762   H     0.41245   0.95816   0.19925   0.00000  Uiso   1.00
H763   H     0.57381   0.90777   0.49347   0.00000  Uiso   1.00
H764   H     0.58594   0.91833   0.05263   0.00000  Uiso   1.00
H765   H     0.57079   0.96436   0.01717   0.00000  Uiso   1.00
H766   H     0.59750   0.83436   0.01547   0.00000  Uiso   1.00
H767   H     0.61165   0.83483   0.45784   0.00000  Uiso   1.00
H768   H     0.62759   0.78950   0.49382   0.00000  Uiso   1.00
H769   H     0.42130   0.83067   0.49782   0.00000  Uiso   1.00
H770   H     0.41512   0.69394   0.14912   0.00000  Uiso   1.00
H771   H     0.39936   0.85356   0.44611   0.00000  Uiso   1.00
H772   H     0.39316   0.88300   0.49778   0.00000  Uiso   1.00
H773   H     0.52060   0.69816   0.49747   0.00000  Uiso   1.00
H774   H     0.50103   0.69528   0.05123   0.00000  Uiso   1.00
H775   H     0.54779   0.72919   0.04225   0.00000  Uiso   1.00
H776   H     0.36888   0.85278   0.15077   0.00000  Uiso   1.00
H777   H     0.66179   0.81106   0.13185   0.00000  Uiso   1.00
H778   H     0.38045   0.80381   0.11727   0.00000  Uiso   1.00
H779   H     0.63746   0.97411   0.29099   0.00000  Uiso   1.00
H780   H     0.59668   0.94821   0.25646   0.00000  Uiso   1.00
H781   H     0.42789   0.75300   0.15713   0.00000  Uiso   1.00
H782   H     0.64922   0.94270   0.24202   0.00000  Uiso   1.00
H783   H     0.64237   0.72086   0.23016   0.00000  Uiso   1.00
H784   H     0.65226   0.72080   0.17159   0.00000  Uiso   1.00
H785   H     0.60199   0.70645   0.18911   0.00000  Uiso   1.00
H786   H     0.38614   0.94080   0.26835   0.00000  Uiso   1.00
H787   H     0.42169   0.94084   0.31551   0.00000  Uiso   1.00
H788   H     0.36942   0.95451   0.32330   0.00000  Uiso   1.00
H789   H     0.57521   0.95700   0.33195   0.00000  Uiso   1.00
H790   H     0.55024   0.92628   0.37349   0.00000  Uiso   1.00
H791   H     0.55029   0.98762   0.37600   0.00000  Uiso   1.00
H792   H     0.59008   0.75671   0.31615   0.00000  Uiso   1.00
H793   H     0.58791   0.70729   0.27946   0.00000  Uiso   1.00
H794   H     0.59736   0.70146   0.33835   0.00000  Uiso   1.00
N795   N     0.50000   0.95069   0.25000   0.00000  Uiso   1.00
N796   N     0.50000   0.71598   0.25000   0.00000  Uiso   1.00
O797   O     0.43988   0.87291   0.25000   0.00000  Uiso   1.00
O798   O     0.51031   0.95608   0.32829   0.00000  Uiso   1.00
O799   O     0.53678   0.71675   0.32020   0.00000  Uiso   1.00
O800   O     0.47248   0.95114   0.17496   0.00000  Uiso   1.00
O801   O     0.52333   0.91972   0.03052   0.00000  Uiso   1.00
O802   O     0.56621   0.78580   0.47401   0.00000  Uiso   1.00
O803   O     0.45110   0.88955   0.47468   0.00000  Uiso   1.00
O804   O     0.49106   0.75604   0.01737   0.00000  Uiso   1.00
O805   O     0.36978   0.78849   0.18175   0.00000  Uiso   1.00
O806   O     0.62990   0.90361   0.29720   0.00000  Uiso   1.00
O807   O     0.61774   0.77562   0.19231   0.00000  Uiso   1.00
O808   O     0.56012   0.79375   0.25001   0.00000  Uiso   1.00
O809   O     0.38082   0.88543   0.31311   0.00000  Uiso   1.00
O810   O     0.56012   0.87291   0.25001   0.00000  Uiso   1.00
O811   O     0.43988   0.79375   0.25000   0.00000  Uiso   1.00
O812   O     0.50000   0.87293   0.18573   0.00000  Uiso   1.00
O813   O     0.50000   0.79374   0.31427   0.00000  Uiso   1.00
O814   O     0.50000   0.87293   0.31427   0.00000  Uiso   1.00
O815   O     0.50000   0.79374   0.18573   0.00000  Uiso   1.00
O816   O     0.47377   0.71076   0.17538   0.00000  Uiso   1.00
C817   C     0.75416   0.83301   0.24968   0.00000  Uiso   1.00
C818   C     0.98125   0.86827   0.27468   0.00000  Uiso   1.00
C819   C     0.97569   0.80443   0.22064   0.00000  Uiso   1.00
C820   C     0.69081   0.86400   0.27839   0.00000  Uiso   1.00
C821   C     0.85129   0.87725   0.04985   0.00000  Uiso   1.00
C822   C     0.87067   0.81277   0.45225   0.00000  Uiso   1.00
C823   C     0.81190   0.86361   0.45224   0.00000  Uiso   1.00
C824   C     0.83517   0.79458   0.04399   0.00000  Uiso   1.00
C825   C     0.84965   0.87543   0.09571   0.00000  Uiso   1.00
C826   C     0.86697   0.81064   0.40625   0.00000  Uiso   1.00
C827   C     0.81001   0.86304   0.40602   0.00000  Uiso   1.00
C828   C     0.91247   0.83403   0.25016   0.00000  Uiso   1.00
C829   C     0.83269   0.79351   0.09000   0.00000  Uiso   1.00
C830   C     0.83921   0.83380   0.11637   0.00000  Uiso   1.00
C831   C     0.83666   0.83544   0.38301   0.00000  Uiso   1.00
C832   C     0.84322   0.83691   0.02394   0.00000  Uiso   1.00
C833   C     0.84248   0.83860   0.47550   0.00000  Uiso   1.00
C834   C     0.95709   0.83563   0.24870   0.00000  Uiso   1.00
C835   C     0.70939   0.83337   0.24960   0.00000  Uiso   1.00
C836   C     0.76466   0.71902   0.17243   0.00000  Uiso   1.00
C837   C     0.88180   0.95744   0.35284   0.00000  Uiso   1.00
C838   C     0.91274   0.72019   0.31254   0.00000  Uiso   1.00
C839   C     0.83487   0.83319   0.16492   0.00000  Uiso   1.00
C840   C     0.76316   0.94002   0.17377   0.00000  Uiso   1.00
C841   C     0.89875   0.92717   0.02342   0.00000  Uiso   1.00
C842   C     0.93530   0.81292   0.48548   0.00000  Uiso   1.00
C843   C     0.74821   0.86256   0.47897   0.00000  Uiso   1.00
C844   C     0.84977   0.71851   0.02818   0.00000  Uiso   1.00
C845   C     0.69455   0.81554   0.14415   0.00000  Uiso   1.00
C846   C     0.96188   0.94319   0.27018   0.00000  Uiso   1.00
C847   C     0.96295   0.72923   0.19637   0.00000  Uiso   1.00
C848   C     0.72267   0.93225   0.30404   0.00000  Uiso   1.00
C849   C     0.83399   0.83384   0.33479   0.00000  Uiso   1.00
C850   C     0.81788   0.68988   0.21426   0.00000  Uiso   1.00
C851   C     0.84572   0.97646   0.28745   0.00000  Uiso   1.00
C852   C     0.84964   0.69250   0.28562   0.00000  Uiso   1.00
C853   C     0.81837   0.97426   0.21386   0.00000  Uiso   1.00
C854   C     0.68515   0.80800   0.21737   0.00000  Uiso   1.00
Cu855  Cu    0.83333   0.88022   0.25000   0.00000  Uiso   1.00
Cu856  Cu    0.83333   0.78645   0.25000   0.00000  Uiso   1.00
F857   F     0.85882   0.91478   0.11964   0.00000  Uiso   1.00
F858   F     0.89418   0.78560   0.38443   0.00000  Uiso   1.00
F859   F     0.78120   0.88813   0.38375   0.00000  Uiso   1.00
F860   F     0.82227   0.75322   0.10814   0.00000  Uiso   1.00
H861   H     0.74960   0.71911   0.20462   0.00000  Uiso   1.00
H862   H     0.75853   0.90233   0.17660   0.00000  Uiso   1.00
H863   H     0.74931   0.94857   0.14073   0.00000  Uiso   1.00
H864   H     0.74579   0.95816   0.19925   0.00000  Uiso   1.00
H865   H     0.90714   0.90777   0.49347   0.00000  Uiso   1.00
H866   H     0.91928   0.91833   0.05263   0.00000  Uiso   1.00
H867   H     0.90412   0.96436   0.01717   0.00000  Uiso   1.00
H868   H     0.93083   0.83436   0.01547   0.00000  Uiso   1.00
H869   H     0.94498   0.83483   0.45784   0.00000  Uiso   1.00
H870   H     0.96092   0.78950   0.49382   0.00000  Uiso   1.00
H871   H     0.75464   0.83067   0.49782   0.00000  Uiso   1.00
H872   H     0.74846   0.69394   0.14912   0.00000  Uiso   1.00
H873   H     0.73269   0.85356   0.44611   0.00000  Uiso   1.00
H874   H     0.72649   0.88300   0.49778   0.00000  Uiso   1.00
H875   H     0.85394   0.69816   0.49747   0.00000  Uiso   1.00
H876   H     0.83436   0.69528   0.05123   0.00000  Uiso   1.00
H877   H     0.88113   0.72919   0.04225   0.00000  Uiso   1.00
H878   H     0.70221   0.85278   0.15077   0.00000  Uiso   1.00
H879   H     0.99513   0.81106   0.13185   0.00000  Uiso   1.00
H880   H     0.71378   0.80381   0.11727   0.00000  Uiso   1.00
H881   H     0.97079   0.97411   0.29099   0.00000  Uiso   1.00
H882   H     0.93001   0.94821   0.25646   0.00000  Uiso   1.00
H883   H     0.76122   0.75300   0.15713   0.00000  Uiso   1.00
H884   H     0.98255   0.94270   0.24202   0.00000  Uiso   1.00
H885   H     0.97570   0.72086   0.23016   0.00000  Uiso   1.00
H886   H     0.98560   0.72080   0.17159   0.00000  Uiso   1.00
H887   H     0.93532   0.70645   0.18911   0.00000  Uiso   1.00
H888   H     0.71947   0.94080   0.26835   0.00000  Uiso   1.00
H889   H     0.75502   0.94084   0.31551   0.00000  Uiso   1.00
H890   H     0.70275   0.95451   0.32330   0.00000  Uiso   1.00
H891   H     0.90855   0.95700   0.33195   0.00000  Uiso   1.00
H892   H     0.88357   0.92628   0.37349   0.00000  Uiso   1.00
H893   H     0.88362   0.98762   0.37600   0.00000  Uiso   1.00
H894   H     0.92342   0.75671   0.31615   0.00000  Uiso   1.00
H895   H     0.92124   0.70729   0.27946   0.00000  Uiso   1.00
H896   H     0.93070   0.70146   0.33835   0.00000  Uiso   1.00
N897   N     0.83333   0.95069   0.25000   0.00000  Uiso   1.00
N898   N     0.83333   0.71598   0.25000   0.00000  Uiso   1.00
O899   O     0.77321   0.87291   0.25000   0.00000  Uiso   1.00
O900   O     0.84365   0.95608   0.32829   0.00000  Uiso   1.00
O901   O     0.87012   0.71675   0.32020   0.00000  Uiso   1.00
O902   O     0.80581   0.95114   0.17496   0.00000  Uiso   1.00
O903   O     0.85667   0.91972   0.03052   0.00000  Uiso   1.00
O904   O     0.89954   0.78580   0.47401   0.00000  Uiso   1.00
O905   O     0.78443   0.88955   0.47468   0.00000  Uiso   1.00
O906   O     0.82439   0.75604   0.01737   0.00000  Uiso   1.00
O907   O     0.70311   0.78849   0.18175   0.00000  Uiso   1.00
O908   O     0.96323   0.90361   0.29720   0.00000  Uiso   1.00
O909   O     0.95107   0.77562   0.19231   0.00000  Uiso   1.00
O910   O     0.89345   0.79375   0.25001   0.00000  Uiso   1.00
O911   O     0.71415   0.88543   0.31311   0.00000  Uiso   1.00
O912   O     0.89345   0.87291   0.25001   0.00000  Uiso   1.00
O913   O     0.77321   0.79375   0.25000   0.00000  Uiso   1.00
O914   O     0.83333   0.87293   0.18573   0.00000  Uiso   1.00
O915   O     0.83334   0.79374   0.31427   0.00000  Uiso   1.00
O916   O     0.83334   0.87293   0.31427   0.00000  Uiso   1.00
O917   O     0.83333   0.79374   0.18573   0.00000  Uiso   1.00
O918   O     0.80710   0.71076   0.17538   0.00000  Uiso   1.00
C919   C     0.08750   0.16634   0.74968   0.00000  Uiso   1.00
C920   C     0.31458   0.20161   0.77468   0.00000  Uiso   1.00
C921   C     0.30902   0.13776   0.72064   0.00000  Uiso   1.00
C922   C     0.02414   0.19734   0.77839   0.00000  Uiso   1.00
C923   C     0.18462   0.21058   0.54985   0.00000  Uiso   1.00
C924   C     0.20400   0.14610   0.95225   0.00000  Uiso   1.00
C925   C     0.14523   0.19694   0.95224   0.00000  Uiso   1.00
C926   C     0.16850   0.12791   0.54399   0.00000  Uiso   1.00
C927   C     0.18298   0.20876   0.59571   0.00000  Uiso   1.00
C928   C     0.20030   0.14398   0.90625   0.00000  Uiso   1.00
C929   C     0.14334   0.19638   0.90602   0.00000  Uiso   1.00
C930   C     0.24580   0.16737   0.75016   0.00000  Uiso   1.00
C931   C     0.16603   0.12684   0.59000   0.00000  Uiso   1.00
C932   C     0.17254   0.16713   0.61637   0.00000  Uiso   1.00
C933   C     0.16999   0.16877   0.88301   0.00000  Uiso   1.00
C934   C     0.17655   0.17024   0.52394   0.00000  Uiso   1.00
C935   C     0.17582   0.17193   0.97550   0.00000  Uiso   1.00
C936   C     0.29042   0.16896   0.74870   0.00000  Uiso   1.00
C937   C     0.04273   0.16670   0.74960   0.00000  Uiso   1.00
C938   C     0.09799   0.05235   0.67243   0.00000  Uiso   1.00
C939   C     0.21514   0.29078   0.85284   0.00000  Uiso   1.00
C940   C     0.24607   0.05352   0.81254   0.00000  Uiso   1.00
C941   C     0.16820   0.16652   0.66492   0.00000  Uiso   1.00
C942   C     0.09650   0.27335   0.67377   0.00000  Uiso   1.00
C943   C     0.23208   0.26050   0.52342   0.00000  Uiso   1.00
C944   C     0.26863   0.14626   0.98548   0.00000  Uiso   1.00
C945   C     0.08154   0.19589   0.97897   0.00000  Uiso   1.00
C946   C     0.18311   0.05185   0.52818   0.00000  Uiso   1.00
C947   C     0.02788   0.14888   0.64415   0.00000  Uiso   1.00
C948   C     0.29521   0.27653   0.77018   0.00000  Uiso   1.00
C949   C     0.29629   0.06256   0.69637   0.00000  Uiso   1.00
C950   C     0.05601   0.26558   0.80404   0.00000  Uiso   1.00
C951   C     0.16732   0.16717   0.83479   0.00000  Uiso   1.00
C952   C     0.15121   0.02321   0.71426   0.00000  Uiso   1.00
C953   C     0.17905   0.30979   0.78745   0.00000  Uiso   1.00
C954   C     0.18298   0.02583   0.78562   0.00000  Uiso   1.00
C955   C     0.15170   0.30759   0.71386   0.00000  Uiso   1.00
C956   C     0.01849   0.14134   0.71737   0.00000  Uiso   1.00
Cu957  Cu    0.16667   0.21355   0.75000   0.00000  Uiso   1.00
Cu958  Cu    0.16667   0.11978   0.75000   0.00000  Uiso   1.00
F959   F     0.19216   0.24811   0.61964   0.00000  Uiso   1.00
F960   F     0.22752   0.11894   0.88443   0.00000  Uiso   1.00
F961   F     0.11454   0.22146   0.88375   0.00000  Uiso   1.00
F962   F     0.15561   0.08655   0.60814   0.00000  Uiso   1.00
H963   H     0.08293   0.05244   0.70462   0.00000  Uiso   1.00
H964   H     0.09186   0.23566   0.67660   0.00000  Uiso   1.00
H965   H     0.08264   0.28191   0.64073   0.00000  Uiso   1.00
H966   H     0.07912   0.29149   0.69925   0.00000  Uiso   1.00
H967   H     0.24047   0.24110   0.99347   0.00000  Uiso   1.00
H968   H     0.25261   0.25166   0.55263   0.00000  Uiso   1.00
H969   H     0.23746   0.29769   0.51717   0.00000  Uiso   1.00
H970   H     0.26416   0.16769   0.51547   0.00000  Uiso   1.00
H971   H     0.27831   0.16816   0.95784   0.00000  Uiso   1.00
H972   H     0.29425   0.12284   0.99382   0.00000  Uiso   1.00
H973   H     0.08797   0.16401   0.99782   0.00000  Uiso   1.00
H974   H     0.08179   0.02727   0.64912   0.00000  Uiso   1.00
H975   H     0.06602   0.18690   0.94611   0.00000  Uiso   1.00
H976   H     0.05982   0.21634   0.99778   0.00000  Uiso   1.00
H977   H     0.18727   0.03149   0.99747   0.00000  Uiso   1.00
H978   H     0.16770   0.02862   0.55123   0.00000  Uiso   1.00
H979   H     0.21446   0.06252   0.54225   0.00000  Uiso   1.00
H980   H     0.03554   0.18612   0.65077   0.00000  Uiso   1.00
H981   H     0.32846   0.14439   0.63185   0.00000  Uiso   1.00
H982   H     0.04712   0.13714   0.61727   0.00000  Uiso   1.00
H983   H     0.30413   0.30744   0.79099   0.00000  Uiso   1.00
H984   H     0.26335   0.28155   0.75646   0.00000  Uiso   1.00
H985   H     0.09455   0.08633   0.65713   0.00000  Uiso   1.00
H986   H     0.31589   0.27604   0.74202   0.00000  Uiso   1.00
H987   H     0.30904   0.05419   0.73016   0.00000  Uiso   1.00
H988   H     0.31893   0.05413   0.67159   0.00000  Uiso   1.00
H989   H     0.26866   0.03978   0.68911   0.00000  Uiso   1.00
H990   H     0.05280   0.27413   0.76835   0.00000  Uiso   1.00
H991   H     0.08836   0.27418   0.81551   0.00000  Uiso   1.00
H992   H     0.03608   0.28784   0.82330   0.00000  Uiso   1.00
H993   H     0.24188   0.29033   0.83195   0.00000  Uiso   1.00
H994   H     0.21691   0.25961   0.87349   0.00000  Uiso   1.00
H995   H     0.21696   0.32095   0.87600   0.00000  Uiso   1.00
H996   H     0.25675   0.09005   0.81615   0.00000  Uiso   1.00
H997   H     0.25458   0.04062   0.77946   0.00000  Uiso   1.00
H998   H     0.26403   0.03479   0.83835   0.00000  Uiso   1.00
N999   N     0.16667   0.28402   0.75000   0.00000  Uiso   1.00
N1000  N     0.16667   0.04931   0.75000   0.00000  Uiso   1.00
O1001  O     0.10655   0.20625   0.75000   0.00000  Uiso   1.00
O1002  O     0.17698   0.28941   0.82829   0.00000  Uiso   1.00
O1003  O     0.20345   0.05008   0.82020   0.00000  Uiso   1.00
O1004  O     0.13914   0.28447   0.67496   0.00000  Uiso   1.00
O1005  O     0.19000   0.25305   0.53052   0.00000  Uiso   1.00
O1006  O     0.23288   0.11913   0.97401   0.00000  Uiso   1.00
O1007  O     0.11776   0.22289   0.97468   0.00000  Uiso   1.00
O1008  O     0.15772   0.08937   0.51737   0.00000  Uiso   1.00
O1009  O     0.03644   0.12182   0.68175   0.00000  Uiso   1.00
O1010  O     0.29657   0.23694   0.79720   0.00000  Uiso   1.00
O1011  O     0.28441   0.10895   0.69231   0.00000  Uiso   1.00
O1012  O     0.22679   0.12709   0.75001   0.00000  Uiso   1.00
O1013  O     0.04748   0.21877   0.81311   0.00000  Uiso   1.00
O1014  O     0.22679   0.20625   0.75001   0.00000  Uiso   1.00
O1015  O     0.10655   0.12709   0.75000   0.00000  Uiso   1.00
O1016  O     0.16666   0.20626   0.68573   0.00000  Uiso   1.00
O1017  O     0.16667   0.12707   0.81427   0.00000  Uiso   1.00
O1018  O     0.16667   0.20626   0.81427   0.00000  Uiso   1.00
O1019  O     0.16666   0.12707   0.68573   0.00000  Uiso   1.00
O1020  O     0.14044   0.04409   0.67538   0.00000  Uiso   1.00
C1021  C     0.42083   0.16634   0.74968   0.00000  Uiso   1.00
C1022  C     0.64791   0.20161   0.77468   0.00000  Uiso   1.00
C1023  C     0.64235   0.13776   0.72064   0.00000  Uiso   1.00
C1024  C     0.35747   0.19734   0.77839   0.00000  Uiso   1.00
C1025  C     0.51796   0.21058   0.54985   0.00000  Uiso   1.00
C1026  C     0.53733   0.14610   0.95225   0.00000  Uiso   1.00
C1027  C     0.47857   0.19694   0.95224   0.00000  Uiso   1.00
C1028  C     0.50183   0.12791   0.54399   0.00000  Uiso   1.00
C1029  C     0.51632   0.20876   0.59571   0.00000  Uiso   1.00
C1030  C     0.53363   0.14398   0.90625   0.00000  Uiso   1.00
C1031  C     0.47668   0.19638   0.90602   0.00000  Uiso   1.00
C1032  C     0.57914   0.16737   0.75016   0.00000  Uiso   1.00
C1033  C     0.49936   0.12684   0.59000   0.00000  Uiso   1.00
C1034  C     0.50587   0.16713   0.61637   0.00000  Uiso   1.00
C1035  C     0.50333   0.16877   0.88301   0.00000  Uiso   1.00
C1036  C     0.50989   0.17024   0.52394   0.00000  Uiso   1.00
C1037  C     0.50915   0.17193   0.97550   0.00000  Uiso   1.00
C1038  C     0.62376   0.16896   0.74870   0.00000  Uiso   1.00
C1039  C     0.37606   0.16670   0.74960   0.00000  Uiso   1.00
C1040  C     0.43133   0.05235   0.67243   0.00000  Uiso   1.00
C1041  C     0.54847   0.29078   0.85284   0.00000  Uiso   1.00
C1042  C     0.57941   0.05352   0.81254   0.00000  Uiso   1.00
C1043  C     0.50154   0.16652   0.66492   0.00000  Uiso   1.00
C1044  C     0.42983   0.27335   0.67377   0.00000  Uiso   1.00
C1045  C     0.56542   0.26050   0.52342   0.00000  Uiso   1.00
C1046  C     0.60197   0.14626   0.98548   0.00000  Uiso   1.00
C1047  C     0.41488   0.19589   0.97897   0.00000  Uiso   1.00
C1048  C     0.51644   0.05185   0.52818   0.00000  Uiso   1.00
C1049  C     0.36121   0.14888   0.64415   0.00000  Uiso   1.00
C1050  C     0.62854   0.27653   0.77018   0.00000  Uiso   1.00
C1051  C     0.62962   0.06256   0.69637   0.00000  Uiso   1.00
C1052  C     0.38934   0.26558   0.80404   0.00000  Uiso   1.00
C1053  C     0.50066   0.16717   0.83479   0.00000  Uiso   1.00
C1054  C     0.48455   0.02321   0.71426   0.00000  Uiso   1.00
C1055  C     0.51239   0.30979   0.78745   0.00000  Uiso   1.00
C1056  C     0.51631   0.02583   0.78562   0.00000  Uiso   1.00
C1057  C     0.48504   0.30759   0.71386   0.00000  Uiso   1.00
C1058  C     0.35182   0.14134   0.71737   0.00000  Uiso   1.00
Cu1059 Cu    0.50000   0.21355   0.75000   0.00000  Uiso   1.00
Cu1060 Cu    0.50000   0.11978   0.75000   0.00000  Uiso   1.00
F1061  F     0.52549   0.24811   0.61964   0.00000  Uiso   1.00
F1062  F     0.56085   0.11894   0.88443   0.00000  Uiso   1.00
F1063  F     0.44787   0.22146   0.88375   0.00000  Uiso   1.00
F1064  F     0.48894   0.08655   0.60814   0.00000  Uiso   1.00
H1065  H     0.41627   0.05244   0.70462   0.00000  Uiso   1.00
H1066  H     0.42519   0.23566   0.67660   0.00000  Uiso   1.00
H1067  H     0.41598   0.28191   0.64073   0.00000  Uiso   1.00
H1068  H     0.41245   0.29149   0.69925   0.00000  Uiso   1.00
H1069  H     0.57381   0.24110   0.99347   0.00000  Uiso   1.00
H1070  H     0.58594   0.25166   0.55263   0.00000  Uiso   1.00
H1071  H     0.57079   0.29769   0.51717   0.00000  Uiso   1.00
H1072  H     0.59750   0.16769   0.51547   0.00000  Uiso   1.00
H1073  H     0.61165   0.16816   0.95784   0.00000  Uiso   1.00
H1074  H     0.62759   0.12284   0.99382   0.00000  Uiso   1.00
H1075  H     0.42130   0.16401   0.99782   0.00000  Uiso   1.00
H1076  H     0.41512   0.02727   0.64912   0.00000  Uiso   1.00
H1077  H     0.39936   0.18690   0.94611   0.00000  Uiso   1.00
H1078  H     0.39316   0.21634   0.99778   0.00000  Uiso   1.00
H1079  H     0.52060   0.03149   0.99747   0.00000  Uiso   1.00
H1080  H     0.50103   0.02862   0.55123   0.00000  Uiso   1.00
H1081  H     0.54779   0.06252   0.54225   0.00000  Uiso   1.00
H1082  H     0.36888   0.18612   0.65077   0.00000  Uiso   1.00
H1083  H     0.66179   0.14439   0.63185   0.00000  Uiso   1.00
H1084  H     0.38045   0.13714   0.61727   0.00000  Uiso   1.00
H1085  H     0.63746   0.30744   0.79099   0.00000  Uiso   1.00
H1086  H     0.59668   0.28155   0.75646   0.00000  Uiso   1.00
H1087  H     0.42789   0.08633   0.65713   0.00000  Uiso   1.00
H1088  H     0.64922   0.27604   0.74202   0.00000  Uiso   1.00
H1089  H     0.64237   0.05419   0.73016   0.00000  Uiso   1.00
H1090  H     0.65226   0.05413   0.67159   0.00000  Uiso   1.00
H1091  H     0.60199   0.03978   0.68911   0.00000  Uiso   1.00
H1092  H     0.38614   0.27413   0.76835   0.00000  Uiso   1.00
H1093  H     0.42169   0.27418   0.81551   0.00000  Uiso   1.00
H1094  H     0.36942   0.28784   0.82330   0.00000  Uiso   1.00
H1095  H     0.57521   0.29033   0.83195   0.00000  Uiso   1.00
H1096  H     0.55024   0.25961   0.87349   0.00000  Uiso   1.00
H1097  H     0.55029   0.32095   0.87600   0.00000  Uiso   1.00
H1098  H     0.59008   0.09005   0.81615   0.00000  Uiso   1.00
H1099  H     0.58791   0.04062   0.77946   0.00000  Uiso   1.00
H1100  H     0.59736   0.03479   0.83835   0.00000  Uiso   1.00
N1101  N     0.50000   0.28402   0.75000   0.00000  Uiso   1.00
N1102  N     0.50000   0.04931   0.75000   0.00000  Uiso   1.00
O1103  O     0.43988   0.20625   0.75000   0.00000  Uiso   1.00
O1104  O     0.51031   0.28941   0.82829   0.00000  Uiso   1.00
O1105  O     0.53678   0.05008   0.82020   0.00000  Uiso   1.00
O1106  O     0.47248   0.28447   0.67496   0.00000  Uiso   1.00
O1107  O     0.52333   0.25305   0.53052   0.00000  Uiso   1.00
O1108  O     0.56621   0.11913   0.97401   0.00000  Uiso   1.00
O1109  O     0.45110   0.22289   0.97468   0.00000  Uiso   1.00
O1110  O     0.49106   0.08937   0.51737   0.00000  Uiso   1.00
O1111  O     0.36978   0.12182   0.68175   0.00000  Uiso   1.00
O1112  O     0.62990   0.23694   0.79720   0.00000  Uiso   1.00
O1113  O     0.61774   0.10895   0.69231   0.00000  Uiso   1.00
O1114  O     0.56012   0.12709   0.75001   0.00000  Uiso   1.00
O1115  O     0.38082   0.21877   0.81311   0.00000  Uiso   1.00
O1116  O     0.56012   0.20625   0.75001   0.00000  Uiso   1.00
O1117  O     0.43988   0.12709   0.75000   0.00000  Uiso   1.00
O1118  O     0.50000   0.20626   0.68573   0.00000  Uiso   1.00
O1119  O     0.50000   0.12707   0.81427   0.00000  Uiso   1.00
O1120  O     0.50000   0.20626   0.81427   0.00000  Uiso   1.00
O1121  O     0.50000   0.12707   0.68573   0.00000  Uiso   1.00
O1122  O     0.47377   0.04409   0.67538   0.00000  Uiso   1.00
C1123  C     0.75416   0.16634   0.74968   0.00000  Uiso   1.00
C1124  C     0.98125   0.20161   0.77468   0.00000  Uiso   1.00
C1125  C     0.97569   0.13776   0.72064   0.00000  Uiso   1.00
C1126  C     0.69081   0.19734   0.77839   0.00000  Uiso   1.00
C1127  C     0.85129   0.21058   0.54985   0.00000  Uiso   1.00
C1128  C     0.87067   0.14610   0.95225   0.00000  Uiso   1.00
C1129  C     0.81190   0.19694   0.95224   0.00000  Uiso   1.00
C1130  C     0.83517   0.12791   0.54399   0.00000  Uiso   1.00
C1131  C     0.84965   0.20876   0.59571   0.00000  Uiso   1.00
C1132  C     0.86697   0.14398   0.90625   0.00000  Uiso   1.00
C1133  C     0.81001   0.19638   0.90602   0.00000  Uiso   1.00
C1134  C     0.91247   0.16737   0.75016   0.00000  Uiso   1.00
C1135  C     0.83269   0.12684   0.59000   0.00000  Uiso   1.00
C1136  C     0.83921   0.16713   0.61637   0.00000  Uiso   1.00
C1137  C     0.83666   0.16877   0.88301   0.00000  Uiso   1.00
C1138  C     0.84322   0.17024   0.52394   0.00000  Uiso   1.00
C1139  C     0.84248   0.17193   0.97550   0.00000  Uiso   1.00
C1140  C     0.95709   0.16896   0.74870   0.00000  Uiso   1.00
C1141  C     0.70939   0.16670   0.74960   0.00000  Uiso   1.00
C1142  C     0.76466   0.05235   0.67243   0.00000  Uiso   1.00
C1143  C     0.88180   0.29078   0.85284   0.00000  Uiso   1.00
C1144  C     0.91274   0.05352   0.81254   0.00000  Uiso   1.00
C1145  C     0.83487   0.16652   0.66492   0.00000  Uiso   1.00
C1146  C     0.76316   0.27335   0.67377   0.00000  Uiso   1.00
C1147  C     0.89875   0.26050   0.52342   0.00000  Uiso   1.00
C1148  C     0.93530   0.14626   0.98548   0.00000  Uiso   1.00
C1149  C     0.74821   0.19589   0.97897   0.00000  Uiso   1.00
C1150  C     0.84977   0.05185   0.52818   0.00000  Uiso   1.00
C1151  C     0.69455   0.14888   0.64415   0.00000  Uiso   1.00
C1152  C     0.96188   0.27653   0.77018   0.00000  Uiso   1.00
C1153  C     0.96295   0.06256   0.69637   0.00000  Uiso   1.00
C1154  C     0.72267   0.26558   0.80404   0.00000  Uiso   1.00
C1155  C     0.83399   0.16717   0.83479   0.00000  Uiso   1.00
C1156  C     0.81788   0.02321   0.71426   0.00000  Uiso   1.00
C1157  C     0.84572   0.30979   0.78745   0.00000  Uiso   1.00
C1158  C     0.84964   0.02583   0.78562   0.00000  Uiso   1.00
C1159  C     0.81837   0.30759   0.71386   0.00000  Uiso   1.00
C1160  C     0.68515   0.14134   0.71737   0.00000  Uiso   1.00
Cu1161 Cu    0.83333   0.21355   0.75000   0.00000  Uiso   1.00
Cu1162 Cu    0.83333   0.11978   0.75000   0.00000  Uiso   1.00
F1163  F     0.85882   0.24811   0.61964   0.00000  Uiso   1.00
F1164  F     0.89418   0.11894   0.88443   0.00000  Uiso   1.00
F1165  F     0.78120   0.22146   0.88375   0.00000  Uiso   1.00
F1166  F     0.82227   0.08655   0.60814   0.00000  Uiso   1.00
H1167  H     0.74960   0.05244   0.70462   0.00000  Uiso   1.00
H1168  H     0.75853   0.23566   0.67660   0.00000  Uiso   1.00
H1169  H     0.74931   0.28191   0.64073   0.00000  Uiso   1.00
H1170  H     0.74579   0.29149   0.69925   0.00000  Uiso   1.00
H1171  H     0.90714   0.24110   0.99347   0.00000  Uiso   1.00
H1172  H     0.91928   0.25166   0.55263   0.00000  Uiso   1.00
H1173  H     0.90412   0.29769   0.51717   0.00000  Uiso   1.00
H1174  H     0.93083   0.16769   0.51547   0.00000  Uiso   1.00
H1175  H     0.94498   0.16816   0.95784   0.00000  Uiso   1.00
H1176  H     0.96092   0.12284   0.99382   0.00000  Uiso   1.00
H1177  H     0.75464   0.16401   0.99782   0.00000  Uiso   1.00
H1178  H     0.74846   0.02727   0.64912   0.00000  Uiso   1.00
H1179  H     0.73269   0.18690   0.94611   0.00000  Uiso   1.00
H1180  H     0.72649   0.21634   0.99778   0.00000  Uiso   1.00
H1181  H     0.85394   0.03149   0.99747   0.00000  Uiso   1.00
H1182  H     0.83436   0.02862   0.55123   0.00000  Uiso   1.00
H1183  H     0.88113   0.06252   0.54225   0.00000  Uiso   1.00
H1184  H     0.70221   0.18612   0.65077   0.00000  Uiso   1.00
H1185  H     0.99513   0.14439   0.63185   0.00000  Uiso   1.00
H1186  H     0.71378   0.13714   0.61727   0.00000  Uiso   1.00
H1187  H     0.97079   0.30744   0.79099   0.00000  Uiso   1.00
H1188  H     0.93001   0.28155   0.75646   0.00000  Uiso   1.00
H1189  H     0.76122   0.08633   0.65713   0.00000  Uiso   1.00
H1190  H     0.98255   0.27604   0.74202   0.00000  Uiso   1.00
H1191  H     0.97570   0.05419   0.73016   0.00000  Uiso   1.00
H1192  H     0.98560   0.05413   0.67159   0.00000  Uiso   1.00
H1193  H     0.93532   0.03978   0.68911   0.00000  Uiso   1.00
H1194  H     0.71947   0.27413   0.76835   0.00000  Uiso   1.00
H1195  H     0.75502   0.27418   0.81551   0.00000  Uiso   1.00
H1196  H     0.70275   0.28784   0.82330   0.00000  Uiso   1.00
H1197  H     0.90855   0.29033   0.83195   0.00000  Uiso   1.00
H1198  H     0.88357   0.25961   0.87349   0.00000  Uiso   1.00
H1199  H     0.88362   0.32095   0.87600   0.00000  Uiso   1.00
H1200  H     0.92342   0.09005   0.81615   0.00000  Uiso   1.00
H1201  H     0.92124   0.04062   0.77946   0.00000  Uiso   1.00
H1202  H     0.93070   0.03479   0.83835   0.00000  Uiso   1.00
N1203  N     0.83333   0.28402   0.75000   0.00000  Uiso   1.00
N1204  N     0.83333   0.04931   0.75000   0.00000  Uiso   1.00
O1205  O     0.77321   0.20625   0.75000   0.00000  Uiso   1.00
O1206  O     0.84365   0.28941   0.82829   0.00000  Uiso   1.00
O1207  O     0.87012   0.05008   0.82020   0.00000  Uiso   1.00
O1208  O     0.80581   0.28447   0.67496   0.00000  Uiso   1.00
O1209  O     0.85667   0.25305   0.53052   0.00000  Uiso   1.00
O1210  O     0.89954   0.11913   0.97401   0.00000  Uiso   1.00
O1211  O     0.78443   0.22289   0.97468   0.00000  Uiso   1.00
O1212  O     0.82439   0.08937   0.51737   0.00000  Uiso   1.00
O1213  O     0.70311   0.12182   0.68175   0.00000  Uiso   1.00
O1214  O     0.96323   0.23694   0.79720   0.00000  Uiso   1.00
O1215  O     0.95107   0.10895   0.69231   0.00000  Uiso   1.00
O1216  O     0.89345   0.12709   0.75001   0.00000  Uiso   1.00
O1217  O     0.71415   0.21877   0.81311   0.00000  Uiso   1.00
O1218  O     0.89345   0.20625   0.75001   0.00000  Uiso   1.00
O1219  O     0.77321   0.12709   0.75000   0.00000  Uiso   1.00
O1220  O     0.83333   0.20626   0.68573   0.00000  Uiso   1.00
O1221  O     0.83334   0.12707   0.81427   0.00000  Uiso   1.00
O1222  O     0.83334   0.20626   0.81427   0.00000  Uiso   1.00
O1223  O     0.83333   0.12707   0.68573   0.00000  Uiso   1.00
O1224  O     0.80710   0.04409   0.67538   0.00000  Uiso   1.00
C1225  C     0.08750   0.49968   0.74968   0.00000  Uiso   1.00
C1226  C     0.31458   0.53494   0.77468   0.00000  Uiso   1.00
C1227  C     0.30902   0.47110   0.72064   0.00000  Uiso   1.00
C1228  C     0.02414   0.53067   0.77839   0.00000  Uiso   1.00
C1229  C     0.18462   0.54392   0.54985   0.00000  Uiso   1.00
C1230  C     0.20400   0.47944   0.95225   0.00000  Uiso   1.00
C1231  C     0.14523   0.53027   0.95224   0.00000  Uiso   1.00
C1232  C     0.16850   0.46125   0.54399   0.00000  Uiso   1.00
C1233  C     0.18298   0.54210   0.59571   0.00000  Uiso   1.00
C1234  C     0.20030   0.47731   0.90625   0.00000  Uiso   1.00
C1235  C     0.14334   0.52971   0.90602   0.00000  Uiso   1.00
C1236  C     0.24580   0.50070   0.75016   0.00000  Uiso   1.00
C1237  C     0.16603   0.46018   0.59000   0.00000  Uiso   1.00
C1238  C     0.17254   0.50047   0.61637   0.00000  Uiso   1.00
C1239  C     0.16999   0.50210   0.88301   0.00000  Uiso   1.00
C1240  C     0.17655   0.50357   0.52394   0.00000  Uiso   1.00
C1241  C     0.17582   0.50526   0.97550   0.00000  Uiso   1.00
C1242  C     0.29042   0.50230   0.74870   0.00000  Uiso   1.00
C1243  C     0.04273   0.50004   0.74960   0.00000  Uiso   1.00
C1244  C     0.09799   0.38569   0.67243   0.00000  Uiso   1.00
C1245  C     0.21514   0.62411   0.85284   0.00000  Uiso   1.00
C1246  C     0.24607   0.38686   0.81254   0.00000  Uiso   1.00
C1247  C     0.16820   0.49985   0.66492   0.00000  Uiso   1.00
C1248  C     0.09650   0.60668   0.67377   0.00000  Uiso   1.00
C1249  C     0.23208   0.59383   0.52342   0.00000  Uiso   1.00
C1250  C     0.26863   0.47959   0.98548   0.00000  Uiso   1.00
C1251  C     0.08154   0.52923   0.97897   0.00000  Uiso   1.00
C1252  C     0.18311   0.38518   0.52818   0.00000  Uiso   1.00
C1253  C     0.02788   0.48221   0.64415   0.00000  Uiso   1.00
C1254  C     0.29521   0.60986   0.77018   0.00000  Uiso   1.00
C1255  C     0.29629   0.39589   0.69637   0.00000  Uiso   1.00
C1256  C     0.05601   0.59891   0.80404   0.00000  Uiso   1.00
C1257  C     0.16732   0.50050   0.83479   0.00000  Uiso   1.00
C1258  C     0.15121   0.35655   0.71426   0.00000  Uiso   1.00
C1259  C     0.17905   0.64313   0.78745   0.00000  Uiso   1.00
C1260  C     0.18298   0.35917   0.78562   0.00000  Uiso   1.00
C1261  C     0.15170   0.64092   0.71386   0.00000  Uiso   1.00
C1262  C     0.01849   0.47467   0.71737   0.00000  Uiso   1.00
Cu1263 Cu    0.16667   0.54689   0.75000   0.00000  Uiso   1.00
Cu1264 Cu    0.16667   0.45311   0.75000   0.00000  Uiso   1.00
F1265  F     0.19216   0.58144   0.61964   0.00000  Uiso   1.00
F1266  F     0.22752   0.45227   0.88443   0.00000  Uiso   1.00
F1267  F     0.11454   0.55479   0.88375   0.00000  Uiso   1.00
F1268  F     0.15561   0.41989   0.60814   0.00000  Uiso   1.00
H1269  H     0.08293   0.38578   0.70462   0.00000  Uiso   1.00
H1270  H     0.09186   0.56900   0.67660   0.00000  Uiso   1.00
H1271  H     0.08264   0.61524   0.64073   0.00000  Uiso   1.00
H1272  H     0.07912   0.62482   0.69925   0.00000  Uiso   1.00
H1273  H     0.24047   0.57444   0.99347   0.00000  Uiso   1.00
H1274  H     0.25261   0.58500   0.55263   0.00000  Uiso   1.00
H1275  H     0.23746   0.63103   0.51717   0.00000  Uiso   1.00
H1276  H     0.26416   0.50102   0.51547   0.00000  Uiso   1.00
H1277  H     0.27831   0.50150   0.95784   0.00000  Uiso   1.00
H1278  H     0.29425   0.45617   0.99382   0.00000  Uiso   1.00
H1279  H     0.08797   0.49734   0.99782   0.00000  Uiso   1.00
H1280  H     0.08179   0.36060   0.64912   0.00000  Uiso   1.00
H1281  H     0.06602   0.52023   0.94611   0.00000  Uiso   1.00
H1282  H     0.05982   0.54967   0.99778   0.00000  Uiso   1.00
H1283  H     0.18727   0.36482   0.99747   0.00000  Uiso   1.00
H1284  H     0.16770   0.36195   0.55123   0.00000  Uiso   1.00
H1285  H     0.21446   0.39585   0.54225   0.00000  Uiso   1.00
H1286  H     0.03554   0.51945   0.65077   0.00000  Uiso   1.00
H1287  H     0.32846   0.47772   0.63185   0.00000  Uiso   1.00
H1288  H     0.04712   0.47047   0.61727   0.00000  Uiso   1.00
H1289  H     0.30413   0.64078   0.79099   0.00000  Uiso   1.00
H1290  H     0.26335   0.61488   0.75646   0.00000  Uiso   1.00
H1291  H     0.09455   0.41967   0.65713   0.00000  Uiso   1.00
H1292  H     0.31589   0.60937   0.74202   0.00000  Uiso   1.00
H1293  H     0.30904   0.38752   0.73016   0.00000  Uiso   1.00
H1294  H     0.31893   0.38747   0.67159   0.00000  Uiso   1.00
H1295  H     0.26866   0.37312   0.68911   0.00000  Uiso   1.00
H1296  H     0.05280   0.60746   0.76835   0.00000  Uiso   1.00
H1297  H     0.08836   0.60751   0.81551   0.00000  Uiso   1.00
H1298  H     0.03608   0.62118   0.82330   0.00000  Uiso   1.00
H1299  H     0.24188   0.62366   0.83195   0.00000  Uiso   1.00
H1300  H     0.21691   0.59295   0.87349   0.00000  Uiso   1.00
H1301  H     0.21696   0.65429   0.87600   0.00000  Uiso   1.00
H1302  H     0.25675   0.42338   0.81615   0.00000  Uiso   1.00
H1303  H     0.25458   0.37396   0.77946   0.00000  Uiso   1.00
H1304  H     0.26403   0.36812   0.83835   0.00000  Uiso   1.00
N1305  N     0.16667   0.61736   0.75000   0.00000  Uiso   1.00
N1306  N     0.16667   0.38264   0.75000   0.00000  Uiso   1.00
O1307  O     0.10655   0.53958   0.75000   0.00000  Uiso   1.00
O1308  O     0.17698   0.62274   0.82829   0.00000  Uiso   1.00
O1309  O     0.20345   0.38341   0.82020   0.00000  Uiso   1.00
O1310  O     0.13914   0.61780   0.67496   0.00000  Uiso   1.00
O1311  O     0.19000   0.58638   0.53052   0.00000  Uiso   1.00
O1312  O     0.23288   0.45246   0.97401   0.00000  Uiso   1.00
O1313  O     0.11776   0.55622   0.97468   0.00000  Uiso   1.00
O1314  O     0.15772   0.42270   0.51737   0.00000  Uiso   1.00
O1315  O     0.03644   0.45515   0.68175   0.00000  Uiso   1.00
O1316  O     0.29657   0.57028   0.79720   0.00000  Uiso   1.00
O1317  O     0.28441   0.44228   0.69231   0.00000  Uiso   1.00
O1318  O     0.22679   0.46042   0.75001   0.00000  Uiso   1.00
O1319  O     0.04748   0.55210   0.81311   0.00000  Uiso   1.00
O1320  O     0.22679   0.53958   0.75001   0.00000  Uiso   1.00
O1321  O     0.10655   0.46042   0.75000   0.00000  Uiso   1.00
O1322  O     0.16666   0.53959   0.68573   0.00000  Uiso   1.00
O1323  O     0.16667   0.46041   0.81427   0.00000  Uiso   1.00
O1324  O     0.16667   0.53959   0.81427   0.00000  Uiso   1.00
O1325  O     0.16666   0.46041   0.68573   0.00000  Uiso   1.00
O1326  O     0.14044   0.37742   0.67538   0.00000  Uiso   1.00
C1327  C     0.42083   0.49968   0.74968   0.00000  Uiso   1.00
C1328  C     0.64791   0.53494   0.77468   0.00000  Uiso   1.00
C1329  C     0.64235   0.47110   0.72064   0.00000  Uiso   1.00
C1330  C     0.35747   0.53067   0.77839   0.00000  Uiso   1.00
C1331  C     0.51796   0.54392   0.54985   0.00000  Uiso   1.00
C1332  C     0.53733   0.47944   0.95225   0.00000  Uiso   1.00
C1333  C     0.47857   0.53027   0.95224   0.00000  Uiso   1.00
C1334  C     0.50183   0.46125   0.54399   0.00000  Uiso   1.00
C1335  C     0.51632   0.54210   0.59571   0.00000  Uiso   1.00
C1336  C     0.53363   0.47731   0.90625   0.00000  Uiso   1.00
C1337  C     0.47668   0.52971   0.90602   0.00000  Uiso   1.00
C1338  C     0.57914   0.50070   0.75016   0.00000  Uiso   1.00
C1339  C     0.49936   0.46018   0.59000   0.00000  Uiso   1.00
C1340  C     0.50587   0.50047   0.61637   0.00000  Uiso   1.00
C1341  C     0.50333   0.50210   0.88301   0.00000  Uiso   1.00
C1342  C     0.50989   0.50357   0.52394   0.00000  Uiso   1.00
C1343  C     0.50915   0.50526   0.97550   0.00000  Uiso   1.00
C1344  C     0.62376   0.50230   0.74870   0.00000  Uiso   1.00
C1345  C     0.37606   0.50004   0.74960   0.00000  Uiso   1.00
C1346  C     0.43133   0.38569   0.67243   0.00000  Uiso   1.00
C1347  C     0.54847   0.62411   0.85284   0.00000  Uiso   1.00
C1348  C     0.57941   0.38686   0.81254   0.00000  Uiso   1.00
C1349  C     0.50154   0.49985   0.66492   0.00000  Uiso   1.00
C1350  C     0.42983   0.60668   0.67377   0.00000  Uiso   1.00
C1351  C     0.56542   0.59383   0.52342   0.00000  Uiso   1.00
C1352  C     0.60197   0.47959   0.98548   0.00000  Uiso   1.00
C1353  C     0.41488   0.52923   0.97897   0.00000  Uiso   1.00
C1354  C     0.51644   0.38518   0.52818   0.00000  Uiso   1.00
C1355  C     0.36121   0.48221   0.64415   0.00000  Uiso   1.00
C1356  C     0.62854   0.60986   0.77018   0.00000  Uiso   1.00
C1357  C     0.62962   0.39589   0.69637   0.00000  Uiso   1.00
C1358  C     0.38934   0.59891   0.80404   0.00000  Uiso   1.00
C1359  C     0.50066   0.50050   0.83479   0.00000  Uiso   1.00
C1360  C     0.48455   0.35655   0.71426   0.00000  Uiso   1.00
C1361  C     0.51239   0.64313   0.78745   0.00000  Uiso   1.00
C1362  C     0.51631   0.35917   0.78562   0.00000  Uiso   1.00
C1363  C     0.48504   0.64092   0.71386   0.00000  Uiso   1.00
C1364  C     0.35182   0.47467   0.71737   0.00000  Uiso   1.00
Cu1365 Cu    0.50000   0.54689   0.75000   0.00000  Uiso   1.00
Cu1366 Cu    0.50000   0.45311   0.75000   0.00000  Uiso   1.00
F1367  F     0.52549   0.58144   0.61964   0.00000  Uiso   1.00
F1368  F     0.56085   0.45227   0.88443   0.00000  Uiso   1.00
F1369  F     0.44787   0.55479   0.88375   0.00000  Uiso   1.00
F1370  F     0.48894   0.41989   0.60814   0.00000  Uiso   1.00
H1371  H     0.41627   0.38578   0.70462   0.00000  Uiso   1.00
H1372  H     0.42519   0.56900   0.67660   0.00000  Uiso   1.00
H1373  H     0.41598   0.61524   0.64073   0.00000  Uiso   1.00
H1374  H     0.41245   0.62482   0.69925   0.00000  Uiso   1.00
H1375  H     0.57381   0.57444   0.99347   0.00000  Uiso   1.00
H1376  H     0.58594   0.58500   0.55263   0.00000  Uiso   1.00
H1377  H     0.57079   0.63103   0.51717   0.00000  Uiso   1.00
H1378  H     0.59750   0.50102   0.51547   0.00000  Uiso   1.00
H1379  H     0.61165   0.50150   0.95784   0.00000  Uiso   1.00
H1380  H     0.62759   0.45617   0.99382   0.00000  Uiso   1.00
H1381  H     0.42130   0.49734   0.99782   0.00000  Uiso   1.00
H1382  H     0.41512   0.36060   0.64912   0.00000  Uiso   1.00
H1383  H     0.39936   0.52023   0.94611   0.00000  Uiso   1.00
H1384  H     0.39316   0.54967   0.99778   0.00000  Uiso   1.00
H1385  H     0.52060   0.36482   0.99747   0.00000  Uiso   1.00
H1386  H     0.50103   0.36195   0.55123   0.00000  Uiso   1.00
H1387  H     0.54779   0.39585   0.54225   0.00000  Uiso   1.00
H1388  H     0.36888   0.51945   0.65077   0.00000  Uiso   1.00
H1389  H     0.66179   0.47772   0.63185   0.00000  Uiso   1.00
H1390  H     0.38045   0.47047   0.61727   0.00000  Uiso   1.00
H1391  H     0.63746   0.64078   0.79099   0.00000  Uiso   1.00
H1392  H     0.59668   0.61488   0.75646   0.00000  Uiso   1.00
H1393  H     0.42789   0.41967   0.65713   0.00000  Uiso   1.00
H1394  H     0.64922   0.60937   0.74202   0.00000  Uiso   1.00
H1395  H     0.64237   0.38752   0.73016   0.00000  Uiso   1.00
H1396  H     0.65226   0.38747   0.67159   0.00000  Uiso   1.00
H1397  H     0.60199   0.37312   0.68911   0.00000  Uiso   1.00
H1398  H     0.38614   0.60746   0.76835   0.00000  Uiso   1.00
H1399  H     0.42169   0.60751   0.81551   0.00000  Uiso   1.00
H1400  H     0.36942   0.62118   0.82330   0.00000  Uiso   1.00
H1401  H     0.57521   0.62366   0.83195   0.00000  Uiso   1.00
H1402  H     0.55024   0.59295   0.87349   0.00000  Uiso   1.00
H1403  H     0.55029   0.65429   0.87600   0.00000  Uiso   1.00
H1404  H     0.59008   0.42338   0.81615   0.00000  Uiso   1.00
H1405  H     0.58791   0.37396   0.77946   0.00000  Uiso   1.00
H1406  H     0.59736   0.36812   0.83835   0.00000  Uiso   1.00
N1407  N     0.50000   0.61736   0.75000   0.00000  Uiso   1.00
N1408  N     0.50000   0.38264   0.75000   0.00000  Uiso   1.00
O1409  O     0.43988   0.53958   0.75000   0.00000  Uiso   1.00
O1410  O     0.51031   0.62274   0.82829   0.00000  Uiso   1.00
O1411  O     0.53678   0.38341   0.82020   0.00000  Uiso   1.00
O1412  O     0.47248   0.61780   0.67496   0.00000  Uiso   1.00
O1413  O     0.52333   0.58638   0.53052   0.00000  Uiso   1.00
O1414  O     0.56621   0.45246   0.97401   0.00000  Uiso   1.00
O1415  O     0.45110   0.55622   0.97468   0.00000  Uiso   1.00
O1416  O     0.49106   0.42270   0.51737   0.00000  Uiso   1.00
O1417  O     0.36978   0.45515   0.68175   0.00000  Uiso   1.00
O1418  O     0.62990   0.57028   0.79720   0.00000  Uiso   1.00
O1419  O     0.61774   0.44228   0.69231   0.00000  Uiso   1.00
O1420  O     0.56012   0.46042   0.75001   0.00000  Uiso   1.00
O1421  O     0.38082   0.55210   0.81311   0.00000  Uiso   1.00
O1422  O     0.56012   0.53958   0.75001   0.00000  Uiso   1.00
O1423  O     0.43988   0.46042   0.75000   0.00000  Uiso   1.00
O1424  O     0.50000   0.53959   0.68573   0.00000  Uiso   1.00
O1425  O     0.50000   0.46041   0.81427   0.00000  Uiso   1.00
O1426  O     0.50000   0.53959   0.81427   0.00000  Uiso   1.00
O1427  O     0.50000   0.46041   0.68573   0.00000  Uiso   1.00
O1428  O     0.47377   0.37742   0.67538   0.00000  Uiso   1.00
C1429  C     0.75416   0.49968   0.74968   0.00000  Uiso   1.00
C1430  C     0.98125   0.53494   0.77468   0.00000  Uiso   1.00
C1431  C     0.97569   0.47110   0.72064   0.00000  Uiso   1.00
C1432  C     0.69081   0.53067   0.77839   0.00000  Uiso   1.00
C1433  C     0.85129   0.54392   0.54985   0.00000  Uiso   1.00
C1434  C     0.87067   0.47944   0.95225   0.00000  Uiso   1.00
C1435  C     0.81190   0.53027   0.95224   0.00000  Uiso   1.00
C1436  C     0.83517   0.46125   0.54399   0.00000  Uiso   1.00
C1437  C     0.84965   0.54210   0.59571   0.00000  Uiso   1.00
C1438  C     0.86697   0.47731   0.90625   0.00000  Uiso   1.00
C1439  C     0.81001   0.52971   0.90602   0.00000  Uiso   1.00
C1440  C     0.91247   0.50070   0.75016   0.00000  Uiso   1.00
C1441  C     0.83269   0.46018   0.59000   0.00000  Uiso   1.00
C1442  C     0.83921   0.50047   0.61637   0.00000  Uiso   1.00
C1443  C     0.83666   0.50210   0.88301   0.00000  Uiso   1.00
C1444  C     0.84322   0.50357   0.52394   0.00000  Uiso   1.00
C1445  C     0.84248   0.50526   0.97550   0.00000  Uiso   1.00
C1446  C     0.95709   0.50230   0.74870   0.00000  Uiso   1.00
C1447  C     0.70939   0.50004   0.74960   0.00000  Uiso   1.00
C1448  C     0.76466   0.38569   0.67243   0.00000  Uiso   1.00
C1449  C     0.88180   0.62411   0.85284   0.00000  Uiso   1.00
C1450  C     0.91274   0.38686   0.81254   0.00000  Uiso   1.00
C1451  C     0.83487   0.49985   0.66492   0.00000  Uiso   1.00
C1452  C     0.76316   0.60668   0.67377   0.00000  Uiso   1.00
C1453  C     0.89875   0.59383   0.52342   0.00000  Uiso   1.00
C1454  C     0.93530   0.47959   0.98548   0.00000  Uiso   1.00
C1455  C     0.74821   0.52923   0.97897   0.00000  Uiso   1.00
C1456  C     0.84977   0.38518   0.52818   0.00000  Uiso   1.00
C1457  C     0.69455   0.48221   0.64415   0.00000  Uiso   1.00
C1458  C     0.96188   0.60986   0.77018   0.00000  Uiso   1.00
C1459  C     0.96295   0.39589   0.69637   0.00000  Uiso   1.00
C1460  C     0.72267   0.59891   0.80404   0.00000  Uiso   1.00
C1461  C     0.83399   0.50050   0.83479   0.00000  Uiso   1.00
C1462  C     0.81788   0.35655   0.71426   0.00000  Uiso   1.00
C1463  C     0.84572   0.64313   0.78745   0.00000  Uiso   1.00
C1464  C     0.84964   0.35917   0.78562   0.00000  Uiso   1.00
C1465  C     0.81837   0.64092   0.71386   0.00000  Uiso   1.00
C1466  C     0.68515   0.47467   0.71737   0.00000  Uiso   1.00
Cu1467 Cu    0.83333   0.54689   0.75000   0.00000  Uiso   1.00
Cu1468 Cu    0.83333   0.45311   0.75000   0.00000  Uiso   1.00
F1469  F     0.85882   0.58144   0.61964   0.00000  Uiso   1.00
F1470  F     0.89418   0.45227   0.88443   0.00000  Uiso   1.00
F1471  F     0.78120   0.55479   0.88375   0.00000  Uiso   1.00
F1472  F     0.82227   0.41989   0.60814   0.00000  Uiso   1.00
H1473  H     0.74960   0.38578   0.70462   0.00000  Uiso   1.00
H1474  H     0.75853   0.56900   0.67660   0.00000  Uiso   1.00
H1475  H     0.74931   0.61524   0.64073   0.00000  Uiso   1.00
H1476  H     0.74579   0.62482   0.69925   0.00000  Uiso   1.00
H1477  H     0.90714   0.57444   0.99347   0.00000  Uiso   1.00
H1478  H     0.91928   0.58500   0.55263   0.00000  Uiso   1.00
H1479  H     0.90412   0.63103   0.51717   0.00000  Uiso   1.00
H1480  H     0.93083   0.50102   0.51547   0.00000  Uiso   1.00
H1481  H     0.94498   0.50150   0.95784   0.00000  Uiso   1.00
H1482  H     0.96092   0.45617   0.99382   0.00000  Uiso   1.00
H1483  H     0.75464   0.49734   0.99782   0.00000  Uiso   1.00
H1484  H     0.74846   0.36060   0.64912   0.00000  Uiso   1.00
H1485  H     0.73269   0.52023   0.94611   0.00000  Uiso   1.00
H1486  H     0.72649   0.54967   0.99778   0.00000  Uiso   1.00
H1487  H     0.85394   0.36482   0.99747   0.00000  Uiso   1.00
H1488  H     0.83436   0.36195   0.55123   0.00000  Uiso   1.00
H1489  H     0.88113   0.39585   0.54225   0.00000  Uiso   1.00
H1490  H     0.70221   0.51945   0.65077   0.00000  Uiso   1.00
H1491  H     0.99513   0.47772   0.63185   0.00000  Uiso   1.00
H1492  H     0.71378   0.47047   0.61727   0.00000  Uiso   1.00
H1493  H     0.97079   0.64078   0.79099   0.00000  Uiso   1.00
H1494  H     0.93001   0.61488   0.75646   0.00000  Uiso   1.00
H1495  H     0.76122   0.41967   0.65713   0.00000  Uiso   1.00
H1496  H     0.98255   0.60937   0.74202   0.00000  Uiso   1.00
H1497  H     0.97570   0.38752   0.73016   0.00000  Uiso   1.00
H1498  H     0.98560   0.38747   0.67159   0.00000  Uiso   1.00
H1499  H     0.93532   0.37312   0.68911   0.00000  Uiso   1.00
H1500  H     0.71947   0.60746   0.76835   0.00000  Uiso   1.00
H1501  H     0.75502   0.60751   0.81551   0.00000  Uiso   1.00
H1502  H     0.70275   0.62118   0.82330   0.00000  Uiso   1.00
H1503  H     0.90855   0.62366   0.83195   0.00000  Uiso   1.00
H1504  H     0.88357   0.59295   0.87349   0.00000  Uiso   1.00
H1505  H     0.88362   0.65429   0.87600   0.00000  Uiso   1.00
H1506  H     0.92342   0.42338   0.81615   0.00000  Uiso   1.00
H1507  H     0.92124   0.37396   0.77946   0.00000  Uiso   1.00
H1508  H     0.93070   0.36812   0.83835   0.00000  Uiso   1.00
N1509  N     0.83333   0.61736   0.75000   0.00000  Uiso   1.00
N1510  N     0.83333   0.38264   0.75000   0.00000  Uiso   1.00
O1511  O     0.77321   0.53958   0.75000   0.00000  Uiso   1.00
O1512  O     0.84365   0.62274   0.82829   0.00000  Uiso   1.00
O1513  O     0.87012   0.38341   0.82020   0.00000  Uiso   1.00
O1514  O     0.80581   0.61780   0.67496   0.00000  Uiso   1.00
O1515  O     0.85667   0.58638   0.53052   0.00000  Uiso   1.00
O1516  O     0.89954   0.45246   0.97401   0.00000  Uiso   1.00
O1517  O     0.78443   0.55622   0.97468   0.00000  Uiso   1.00
O1518  O     0.82439   0.42270   0.51737   0.00000  Uiso   1.00
O1519  O     0.70311   0.45515   0.68175   0.00000  Uiso   1.00
O1520  O     0.96323   0.57028   0.79720   0.00000  Uiso   1.00
O1521  O     0.95107   0.44228   0.69231   0.00000  Uiso   1.00
O1522  O     0.89345   0.46042   0.75001   0.00000  Uiso   1.00
O1523  O     0.71415   0.55210   0.81311   0.00000  Uiso   1.00
O1524  O     0.89345   0.53958   0.75001   0.00000  Uiso   1.00
O1525  O     0.77321   0.46042   0.75000   0.00000  Uiso   1.00
O1526  O     0.83333   0.53959   0.68573   0.00000  Uiso   1.00
O1527  O     0.83334   0.46041   0.81427   0.00000  Uiso   1.00
O1528  O     0.83334   0.53959   0.81427   0.00000  Uiso   1.00
O1529  O     0.83333   0.46041   0.68573   0.00000  Uiso   1.00
O1530  O     0.80710   0.37742   0.67538   0.00000  Uiso   1.00
C1531  C     0.08750   0.83301   0.74968   0.00000  Uiso   1.00
C1532  C     0.31458   0.86827   0.77468   0.00000  Uiso   1.00
C1533  C     0.30902   0.80443   0.72064   0.00000  Uiso   1.00
C1534  C     0.02414   0.86400   0.77839   0.00000  Uiso   1.00
C1535  C     0.18462   0.87725   0.54985   0.00000  Uiso   1.00
C1536  C     0.20400   0.81277   0.95225   0.00000  Uiso   1.00
C1537  C     0.14523   0.86361   0.95224   0.00000  Uiso   1.00
C1538  C     0.16850   0.79458   0.54399   0.00000  Uiso   1.00
C1539  C     0.18298   0.87543   0.59571   0.00000  Uiso   1.00
C1540  C     0.20030   0.81064   0.90625   0.00000  Uiso   1.00
C1541  C     0.14334   0.86304   0.90602   0.00000  Uiso   1.00
C1542  C     0.24580   0.83403   0.75016   0.00000  Uiso   1.00
C1543  C     0.16603   0.79351   0.59000   0.00000  Uiso   1.00
C1544  C     0.17254   0.83380   0.61637   0.00000  Uiso   1.00
C1545  C     0.16999   0.83544   0.88301   0.00000  Uiso   1.00
C1546  C     0.17655   0.83691   0.52394   0.00000  Uiso   1.00
C1547  C     0.17582   0.83860   0.97550   0.00000  Uiso   1.00
C1548  C     0.29042   0.83563   0.74870   0.00000  Uiso   1.00
C1549  C     0.04273   0.83337   0.74960   0.00000  Uiso   1.00
C1550  C     0.09799   0.71902   0.67243   0.00000  Uiso   1.00
C1551  C     0.21514   0.95744   0.85284   0.00000  Uiso   1.00
C1552  C     0.24607   0.72019   0.81254   0.00000  Uiso   1.00
C1553  C     0.16820   0.83319   0.66492   0.00000  Uiso   1.00
C1554  C     0.09650   0.94002   0.67377   0.00000  Uiso   1.00
C1555  C     0.23208   0.92717   0.52342   0.00000  Uiso   1.00
C1556  C     0.26863   0.81292   0.98548   0.00000  Uiso   1.00
C1557  C     0.08154   0.86256   0.97897   0.00000  Uiso   1.00
C1558  C     0.18311   0.71851   0.52818   0.00000  Uiso   1.00
C1559  C     0.02788   0.81554   0.64415   0.00000  Uiso   1.00
C1560  C     0.29521   0.94319   0.77018   0.00000  Uiso   1.00
C1561  C     0.29629   0.72923   0.69637   0.00000  Uiso   1.00
C1562  C     0.05601   0.93225   0.80404   0.00000  Uiso   1.00
C1563  C     0.16732   0.83384   0.83479   0.00000  Uiso   1.00
C1564  C     0.15121   0.68988   0.71426   0.00000  Uiso   1.00
C1565  C     0.17905   0.97646   0.78745   0.00000  Uiso   1.00
C1566  C     0.18298   0.69250   0.78562   0.00000  Uiso   1.00
C1567  C     0.15170   0.97426   0.71386   0.00000  Uiso   1.00
C1568  C     0.01849   0.80800   0.71737   0.00000  Uiso   1.00
Cu1569 Cu    0.16667   0.88022   0.75000   0.00000  Uiso   1.00
Cu1570 Cu    0.16667   0.78645   0.75000   0.00000  Uiso   1.00
F1571  F     0.19216   0.91478   0.61964   0.00000  Uiso   1.00
F1572  F     0.22752   0.78560   0.88443   0.00000  Uiso   1.00
F1573  F     0.11454   0.88813   0.88375   0.00000  Uiso   1.00
F1574  F     0.15561   0.75322   0.60814   0.00000  Uiso   1.00
H1575  H     0.08293   0.71911   0.70462   0.00000  Uiso   1.00
H1576  H     0.09186   0.90233   0.67660   0.00000  Uiso   1.00
H1577  H     0.08264   0.94857   0.64073   0.00000  Uiso   1.00
H1578  H     0.07912   0.95816   0.69925   0.00000  Uiso   1.00
H1579  H     0.24047   0.90777   0.99347   0.00000  Uiso   1.00
H1580  H     0.25261   0.91833   0.55263   0.00000  Uiso   1.00
H1581  H     0.23746   0.96436   0.51717   0.00000  Uiso   1.00
H1582  H     0.26416   0.83436   0.51547   0.00000  Uiso   1.00
H1583  H     0.27831   0.83483   0.95784   0.00000  Uiso   1.00
H1584  H     0.29425   0.78950   0.99382   0.00000  Uiso   1.00
H1585  H     0.08797   0.83067   0.99782   0.00000  Uiso   1.00
H1586  H     0.08179   0.69394   0.64912   0.00000  Uiso   1.00
H1587  H     0.06602   0.85356   0.94611   0.00000  Uiso   1.00
H1588  H     0.05982   0.88300   0.99778   0.00000  Uiso   1.00
H1589  H     0.18727   0.69816   0.99747   0.00000  Uiso   1.00
H1590  H     0.16770   0.69528   0.55123   0.00000  Uiso   1.00
H1591  H     0.21446   0.72919   0.54225   0.00000  Uiso   1.00
H1592  H     0.03554   0.85278   0.65077   0.00000  Uiso   1.00
H1593  H     0.32846   0.81106   0.63185   0.00000  Uiso   1.00
H1594  H     0.04712   0.80381   0.61727   0.00000  Uiso   1.00
H1595  H     0.30413   0.97411   0.79099   0.00000  Uiso   1.00
H1596  H     0.26335   0.94821   0.75646   0.00000  Uiso   1.00
H1597  H     0.09455   0.75300   0.65713   0.00000  Uiso   1.00
H1598  H     0.31589   0.94270   0.74202   0.00000  Uiso   1.00
H1599  H     0.30904   0.72086   0.73016   0.00000  Uiso   1.00
H1600  H     0.31893   0.72080   0.67159   0.00000  Uiso   1.00
H1601  H     0.26866   0.70645   0.68911   0.00000  Uiso   1.00
H1602  H     0.05280   0.94080   0.76835   0.00000  Uiso   1.00
H1603  H     0.08836   0.94084   0.81551   0.00000  Uiso   1.00
H1604  H     0.03608   0.95451   0.82330   0.00000  Uiso   1.00
H1605  H     0.24188   0.95700   0.83195   0.00000  Uiso   1.00
H1606  H     0.21691   0.92628   0.87349   0.00000  Uiso   1.00
H1607  H     0.21696   0.98762   0.87600   0.00000  Uiso   1.00
H1608  H     0.25675   0.75671   0.81615   0.00000  Uiso   1.00
H1609  H     0.25458   0.70729   0.77946   0.00000  Uiso   1.00
H1610  H     0.26403   0.70146   0.83835   0.00000  Uiso   1.00
N1611  N     0.16667   0.95069   0.75000   0.00000  Uiso   1.00
N1612  N     0.16667   0.71598   0.75000   0.00000  Uiso   1.00
O1613  O     0.10655   0.87291   0.75000   0.00000  Uiso   1.00
O1614  O     0.17698   0.95608   0.82829   0.00000  Uiso   1.00
O1615  O     0.20345   0.71675   0.82020   0.00000  Uiso   1.00
O1616  O     0.13914   0.95114   0.67496   0.00000  Uiso   1.00
O1617  O     0.19000   0.91972   0.53052   0.00000  Uiso   1.00
O1618  O     0.23288   0.78580   0.97401   0.00000  Uiso   1.00
O1619  O     0.11776   0.88955   0.97468   0.00000  Uiso   1.00
O1620  O     0.15772   0.75604   0.51737   0.00000  Uiso   1.00
O1621  O     0.03644   0.78849   0.68175   0.00000  Uiso   1.00
O1622  O     0.29657   0.90361   0.79720   0.00000  Uiso   1.00
O1623  O     0.28441   0.77562   0.69231   0.00000  Uiso   1.00
O1624  O     0.22679   0.79375   0.75001   0.00000  Uiso   1.00
O1625  O     0.04748   0.88543   0.81311   0.00000  Uiso   1.00
O1626  O     0.22679   0.87291   0.75001   0.00000  Uiso   1.00
O1627  O     0.10655   0.79375   0.75000   0.00000  Uiso   1.00
O1628  O     0.16666   0.87293   0.68573   0.00000  Uiso   1.00
O1629  O     0.16667   0.79374   0.81427   0.00000  Uiso   1.00
O1630  O     0.16667   0.87293   0.81427   0.00000  Uiso   1.00
O1631  O     0.16666   0.79374   0.68573   0.00000  Uiso   1.00
O1632  O     0.14044   0.71076   0.67538   0.00000  Uiso   1.00
C1633  C     0.42083   0.83301   0.74968   0.00000  Uiso   1.00
C1634  C     0.64791   0.86827   0.77468   0.00000  Uiso   1.00
C1635  C     0.64235   0.80443   0.72064   0.00000  Uiso   1.00
C1636  C     0.35747   0.86400   0.77839   0.00000  Uiso   1.00
C1637  C     0.51796   0.87725   0.54985   0.00000  Uiso   1.00
C1638  C     0.53733   0.81277   0.95225   0.00000  Uiso   1.00
C1639  C     0.47857   0.86361   0.95224   0.00000  Uiso   1.00
C1640  C     0.50183   0.79458   0.54399   0.00000  Uiso   1.00
C1641  C     0.51632   0.87543   0.59571   0.00000  Uiso   1.00
C1642  C     0.53363   0.81064   0.90625   0.00000  Uiso   1.00
C1643  C     0.47668   0.86304   0.90602   0.00000  Uiso   1.00
C1644  C     0.57914   0.83403   0.75016   0.00000  Uiso   1.00
C1645  C     0.49936   0.79351   0.59000   0.00000  Uiso   1.00
C1646  C     0.50587   0.83380   0.61637   0.00000  Uiso   1.00
C1647  C     0.50333   0.83544   0.88301   0.00000  Uiso   1.00
C1648  C     0.50989   0.83691   0.52394   0.00000  Uiso   1.00
C1649  C     0.50915   0.83860   0.97550   0.00000  Uiso   1.00
C1650  C     0.62376   0.83563   0.74870   0.00000  Uiso   1.00
C1651  C     0.37606   0.83337   0.74960   0.00000  Uiso   1.00
C1652  C     0.43133   0.71902   0.67243   0.00000  Uiso   1.00
C1653  C     0.54847   0.95744   0.85284   0.00000  Uiso   1.00
C1654  C     0.57941   0.72019   0.81254   0.00000  Uiso   1.00
C1655  C     0.50154   0.83319   0.66492   0.00000  Uiso   1.00
C1656  C     0.42983   0.94002   0.67377   0.00000  Uiso   1.00
C1657  C     0.56542   0.92717   0.52342   0.00000  Uiso   1.00
C1658  C     0.60197   0.81292   0.98548   0.00000  Uiso   1.00
C1659  C     0.41488   0.86256   0.97897   0.00000  Uiso   1.00
C1660  C     0.51644   0.71851   0.52818   0.00000  Uiso   1.00
C1661  C     0.36121   0.81554   0.64415   0.00000  Uiso   1.00
C1662  C     0.62854   0.94319   0.77018   0.00000  Uiso   1.00
C1663  C     0.62962   0.72923   0.69637   0.00000  Uiso   1.00
C1664  C     0.38934   0.93225   0.80404   0.00000  Uiso   1.00
C1665  C     0.50066   0.83384   0.83479   0.00000  Uiso   1.00
C1666  C     0.48455   0.68988   0.71426   0.00000  Uiso   1.00
C1667  C     0.51239   0.97646   0.78745   0.00000  Uiso   1.00
C1668  C     0.51631   0.69250   0.78562   0.00000  Uiso   1.00
C1669  C     0.48504   0.97426   0.71386   0.00000  Uiso   1.00
C1670  C     0.35182   0.80800   0.71737   0.00000  Uiso   1.00
Cu1671 Cu    0.50000   0.88022   0.75000   0.00000  Uiso   1.00
Cu1672 Cu    0.50000   0.78645   0.75000   0.00000  Uiso   1.00
F1673  F     0.52549   0.91478   0.61964   0.00000  Uiso   1.00
F1674  F     0.56085   0.78560   0.88443   0.00000  Uiso   1.00
F1675  F     0.44787   0.88813   0.88375   0.00000  Uiso   1.00
F1676  F     0.48894   0.75322   0.60814   0.00000  Uiso   1.00
H1677  H     0.41627   0.71911   0.70462   0.00000  Uiso   1.00
H1678  H     0.42519   0.90233   0.67660   0.00000  Uiso   1.00
H1679  H     0.41598   0.94857   0.64073   0.00000  Uiso   1.00
H1680  H     0.41245   0.95816   0.69925   0.00000  Uiso   1.00
H1681  H     0.57381   0.90777   0.99347   0.00000  Uiso   1.00
H1682  H     0.58594   0.91833   0.55263   0.00000  Uiso   1.00
H1683  H     0.57079   0.96436   0.51717   0.00000  Uiso   1.00
H1684  H     0.59750   0.83436   0.51547   0.00000  Uiso   1.00
H1685  H     0.61165   0.83483   0.95784   0.00000  Uiso   1.00
H1686  H     0.62759   0.78950   0.99382   0.00000  Uiso   1.00
H1687  H     0.42130   0.83067   0.99782   0.00000  Uiso   1.00
H1688  H     0.41512   0.69394   0.64912   0.00000  Uiso   1.00
H1689  H     0.39936   0.85356   0.94611   0.00000  Uiso   1.00
H1690  H     0.39316   0.88300   0.99778   0.00000  Uiso   1.00
H1691  H     0.52060   0.69816   0.99747   0.00000  Uiso   1.00
H1692  H     0.50103   0.69528   0.55123   0.00000  Uiso   1.00
H1693  H     0.54779   0.72919   0.54225   0.00000  Uiso   1.00
H1694  H     0.36888   0.85278   0.65077   0.00000  Uiso   1.00
H1695  H     0.66179   0.81106   0.63185   0.00000  Uiso   1.00
H1696  H     0.38045   0.80381   0.61727   0.00000  Uiso   1.00
H1697  H     0.63746   0.97411   0.79099   0.00000  Uiso   1.00
H1698  H     0.59668   0.94821   0.75646   0.00000  Uiso   1.00
H1699  H     0.42789   0.75300   0.65713   0.00000  Uiso   1.00
H1700  H     0.64922   0.94270   0.74202   0.00000  Uiso   1.00
H1701  H     0.64237   0.72086   0.73016   0.00000  Uiso   1.00
H1702  H     0.65226   0.72080   0.67159   0.00000  Uiso   1.00
H1703  H     0.60199   0.70645   0.68911   0.00000  Uiso   1.00
H1704  H     0.38614   0.94080   0.76835   0.00000  Uiso   1.00
H1705  H     0.42169   0.94084   0.81551   0.00000  Uiso   1.00
H1706  H     0.36942   0.95451   0.82330   0.00000  Uiso   1.00
H1707  H     0.57521   0.95700   0.83195   0.00000  Uiso   1.00
H1708  H     0.55024   0.92628   0.87349   0.00000  Uiso   1.00
H1709  H     0.55029   0.98762   0.87600   0.00000  Uiso   1.00
H1710  H     0.59008   0.75671   0.81615   0.00000  Uiso   1.00
H1711  H     0.58791   0.70729   0.77946   0.00000  Uiso   1.00
H1712  H     0.59736   0.70146   0.83835   0.00000  Uiso   1.00
N1713  N     0.50000   0.95069   0.75000   0.00000  Uiso   1.00
N1714  N     0.50000   0.71598   0.75000   0.00000  Uiso   1.00
O1715  O     0.43988   0.87291   0.75000   0.00000  Uiso   1.00
O1716  O     0.51031   0.95608   0.82829   0.00000  Uiso   1.00
O1717  O     0.53678   0.71675   0.82020   0.00000  Uiso   1.00
O1718  O     0.47248   0.95114   0.67496   0.00000  Uiso   1.00
O1719  O     0.52333   0.91972   0.53052   0.00000  Uiso   1.00
O1720  O     0.56621   0.78580   0.97401   0.00000  Uiso   1.00
O1721  O     0.45110   0.88955   0.97468   0.00000  Uiso   1.00
O1722  O     0.49106   0.75604   0.51737   0.00000  Uiso   1.00
O1723  O     0.36978   0.78849   0.68175   0.00000  Uiso   1.00
O1724  O     0.62990   0.90361   0.79720   0.00000  Uiso   1.00
O1725  O     0.61774   0.77562   0.69231   0.00000  Uiso   1.00
O1726  O     0.56012   0.79375   0.75001   0.00000  Uiso   1.00
O1727  O     0.38082   0.88543   0.81311   0.00000  Uiso   1.00
O1728  O     0.56012   0.87291   0.75001   0.00000  Uiso   1.00
O1729  O     0.43988   0.79375   0.75000   0.00000  Uiso   1.00
O1730  O     0.50000   0.87293   0.68573   0.00000  Uiso   1.00
O1731  O     0.50000   0.79374   0.81427   0.00000  Uiso   1.00
O1732  O     0.50000   0.87293   0.81427   0.00000  Uiso   1.00
O1733  O     0.50000   0.79374   0.68573   0.00000  Uiso   1.00
O1734  O     0.47377   0.71076   0.67538   0.00000  Uiso   1.00
C1735  C     0.75416   0.83301   0.74968   0.00000  Uiso   1.00
C1736  C     0.98125   0.86827   0.77468   0.00000  Uiso   1.00
C1737  C     0.97569   0.80443   0.72064   0.00000  Uiso   1.00
C1738  C     0.69081   0.86400   0.77839   0.00000  Uiso   1.00
C1739  C     0.85129   0.87725   0.54985   0.00000  Uiso   1.00
C1740  C     0.87067   0.81277   0.95225   0.00000  Uiso   1.00
C1741  C     0.81190   0.86361   0.95224   0.00000  Uiso   1.00
C1742  C     0.83517   0.79458   0.54399   0.00000  Uiso   1.00
C1743  C     0.84965   0.87543   0.59571   0.00000  Uiso   1.00
C1744  C     0.86697   0.81064   0.90625   0.00000  Uiso   1.00
C1745  C     0.81001   0.86304   0.90602   0.00000  Uiso   1.00
C1746  C     0.91247   0.83403   0.75016   0.00000  Uiso   1.00
C1747  C     0.83269   0.79351   0.59000   0.00000  Uiso   1.00
C1748  C     0.83921   0.83380   0.61637   0.00000  Uiso   1.00
C1749  C     0.83666   0.83544   0.88301   0.00000  Uiso   1.00
C1750  C     0.84322   0.83691   0.52394   0.00000  Uiso   1.00
C1751  C     0.84248   0.83860   0.97550   0.00000  Uiso   1.00
C1752  C     0.95709   0.83563   0.74870   0.00000  Uiso   1.00
C1753  C     0.70939   0.83337   0.74960   0.00000  Uiso   1.00
C1754  C     0.76466   0.71902   0.67243   0.00000  Uiso   1.00
C1755  C     0.88180   0.95744   0.85284   0.00000  Uiso   1.00
C1756  C     0.91274   0.72019   0.81254   0.00000  Uiso   1.00
C1757  C     0.83487   0.83319   0.66492   0.00000  Uiso   1.00
C1758  C     0.76316   0.94002   0.67377   0.00000  Uiso   1.00
C1759  C     0.89875   0.92717   0.52342   0.00000  Uiso   1.00
C1760  C     0.93530   0.81292   0.98548   0.00000  Uiso   1.00
C1761  C     0.74821   0.86256   0.97897   0.00000  Uiso   1.00
C1762  C     0.84977   0.71851   0.52818   0.00000  Uiso   1.00
C1763  C     0.69455   0.81554   0.64415   0.00000  Uiso   1.00
C1764  C     0.96188   0.94319   0.77018   0.00000  Uiso   1.00
C1765  C     0.96295   0.72923   0.69637   0.00000  Uiso   1.00
C1766  C     0.72267   0.93225   0.80404   0.00000  Uiso   1.00
C1767  C     0.83399   0.83384   0.83479   0.00000  Uiso   1.00
C1768  C     0.81788   0.68988   0.71426   0.00000  Uiso   1.00
C1769  C     0.84572   0.97646   0.78745   0.00000  Uiso   1.00
C1770  C     0.84964   0.69250   0.78562   0.00000  Uiso   1.00
C1771  C     0.81837   0.97426   0.71386   0.00000  Uiso   1.00
C1772  C     0.68515   0.80800   0.71737   0.00000  Uiso   1.00
Cu1773 Cu    0.83333   0.88022   0.75000   0.00000  Uiso   1.00
Cu1774 Cu    0.83333   0.78645   0.75000   0.00000  Uiso   1.00
F1775  F     0.85882   0.91478   0.61964   0.00000  Uiso   1.00
F1776  F     0.89418   0.78560   0.88443   0.00000  Uiso   1.00
F1777  F     0.78120   0.88813   0.88375   0.00000  Uiso   1.00
F1778  F     0.82227   0.75322   0.60814   0.00000  Uiso   1.00
H1779  H     0.74960   0.71911   0.70462   0.00000  Uiso   1.00
H1780  H     0.75853   0.90233   0.67660   0.00000  Uiso   1.00
H1781  H     0.74931   0.94857   0.64073   0.00000  Uiso   1.00
H1782  H     0.74579   0.95816   0.69925   0.00000  Uiso   1.00
H1783  H     0.90714   0.90777   0.99347   0.00000  Uiso   1.00
H1784  H     0.91928   0.91833   0.55263   0.00000  Uiso   1.00
H1785  H     0.90412   0.96436   0.51717   0.00000  Uiso   1.00
H1786  H     0.93083   0.83436   0.51547   0.00000  Uiso   1.00
H1787  H     0.94498   0.83483   0.95784   0.00000  Uiso   1.00
H1788  H     0.96092   0.78950   0.99382   0.00000  Uiso   1.00
H1789  H     0.75464   0.83067   0.99782   0.00000  Uiso   1.00
H1790  H     0.74846   0.69394   0.64912   0.00000  Uiso   1.00
H1791  H     0.73269   0.85356   0.94611   0.00000  Uiso   1.00
H1792  H     0.72649   0.88300   0.99778   0.00000  Uiso   1.00
H1793  H     0.85394   0.69816   0.99747   0.00000  Uiso   1.00
H1794  H     0.83436   0.69528   0.55123   0.00000  Uiso   1.00
H1795  H     0.88113   0.72919   0.54225   0.00000  Uiso   1.00
H1796  H     0.70221   0.85278   0.65077   0.00000  Uiso   1.00
H1797  H     0.99513   0.81106   0.63185   0.00000  Uiso   1.00
H1798  H     0.71378   0.80381   0.61727   0.00000  Uiso   1.00
H1799  H     0.97079   0.97411   0.79099   0.00000  Uiso   1.00
H1800  H     0.93001   0.94821   0.75646   0.00000  Uiso   1.00
H1801  H     0.76122   0.75300   0.65713   0.00000  Uiso   1.00
H1802  H     0.98255   0.94270   0.74202   0.00000  Uiso   1.00
H1803  H     0.97570   0.72086   0.73016   0.00000  Uiso   1.00
H1804  H     0.98560   0.72080   0.67159   0.00000  Uiso   1.00
H1805  H     0.93532   0.70645   0.68911   0.00000  Uiso   1.00
H1806  H     0.71947   0.94080   0.76835   0.00000  Uiso   1.00
H1807  H     0.75502   0.94084   0.81551   0.00000  Uiso   1.00
H1808  H     0.70275   0.95451   0.82330   0.00000  Uiso   1.00
H1809  H     0.90855   0.95700   0.83195   0.00000  Uiso   1.00
H1810  H     0.88357   0.92628   0.87349   0.00000  Uiso   1.00
H1811  H     0.88362   0.98762   0.87600   0.00000  Uiso   1.00
H1812  H     0.92342   0.75671   0.81615   0.00000  Uiso   1.00
H1813  H     0.92124   0.70729   0.77946   0.00000  Uiso   1.00
H1814  H     0.93070   0.70146   0.83835   0.00000  Uiso   1.00
N1815  N     0.83333   0.95069   0.75000   0.00000  Uiso   1.00
N1816  N     0.83333   0.71598   0.75000   0.00000  Uiso   1.00
O1817  O     0.77321   0.87291   0.75000   0.00000  Uiso   1.00
O1818  O     0.84365   0.95608   0.82829   0.00000  Uiso   1.00
O1819  O     0.87012   0.71675   0.82020   0.00000  Uiso   1.00
O1820  O     0.80581   0.95114   0.67496   0.00000  Uiso   1.00
O1821  O     0.85667   0.91972   0.53052   0.00000  Uiso   1.00
O1822  O     0.89954   0.78580   0.97401   0.00000  Uiso   1.00
O1823  O     0.78443   0.88955   0.97468   0.00000  Uiso   1.00
O1824  O     0.82439   0.75604   0.51737   0.00000  Uiso   1.00
O1825  O     0.70311   0.78849   0.68175   0.00000  Uiso   1.00
O1826  O     0.96323   0.90361   0.79720   0.00000  Uiso   1.00
O1827  O     0.95107   0.77562   0.69231   0.00000  Uiso   1.00
O1828  O     0.89345   0.79375   0.75001   0.00000  Uiso   1.00
O1829  O     0.71415   0.88543   0.81311   0.00000  Uiso   1.00
O1830  O     0.89345   0.87291   0.75001   0.00000  Uiso   1.00
O1831  O     0.77321   0.79375   0.75000   0.00000  Uiso   1.00
O1832  O     0.83333   0.87293   0.68573   0.00000  Uiso   1.00
O1833  O     0.83334   0.79374   0.81427   0.00000  Uiso   1.00
O1834  O     0.83334   0.87293   0.81427   0.00000  Uiso   1.00
O1835  O     0.83333   0.79374   0.68573   0.00000  Uiso   1.00
O1836  O     0.80710   0.71076   0.67538   0.00000  Uiso   1.00
loop_
_geom_bond_atom_site_label_1
_geom_bond_atom_site_label_2
_geom_bond_distance
_geom_bond_site_symmetry_2
_ccdc_geom_bond_type
C1     C19     1.456   .     S
C1     O97     1.310   .     A
C1     O83     1.297   .     A
C2     C18     1.411   .     A
C2     O92     1.382   .     S
C2     C106    1.402   .     S
C3     C18     1.402   .     A
C3     O93     1.390   .     S
C3     C140    1.402   .     S
C4     C19     1.405   .     A
C4     O95     1.388   .     S
C4     C206    1.402   1_455 S
C5     C16     1.406   .     A
C5     C9      1.395   .     A
C5     O87     1.384   .     S
C6     O88     1.383   .     S
C6     C17     1.410   .     A
C6     C10     1.392   .     A
C7     C11     1.398   .     A
C7     O89     1.383   .     S
C7     C17     1.409   .     A
C8     C13     1.401   .     A
C8     C16     1.404   .     A
C8     O90     1.391   .     S
C9     C14     1.412   .     A
C9     F41     1.357   .     S
C10    F42     1.353   .     S
C10    C15     1.399   .     A
C11    C15     1.401   .     A
C11    F43     1.357   .     S
C12    O94     1.306   .     A
C12    C18     1.454   .     S
C12    O96     1.299   .     A
C13    C14     1.407   .     A
C13    F44     1.343   .     S
C14    C23     1.486   .     S
C15    C33     1.458   .     S
C16    C935    1.468   1_554 S
C17    C934    1.468   .     S
C19    C38     1.403   .     A
C20    H67     1.102   .     S
C20    H56     1.105   .     S
C20    H45     1.116   .     S
C20    O102    1.405   .     S
C21    H76     1.109   .     S
C21    O84     1.408   .     S
C21    H77     1.109   .     S
C21    H75     1.105   .     S
C22    H79     1.116   .     S
C22    O85     1.420   .     S
C22    H78     1.107   .     S
C22    H80     1.107   .     S
C23    O101    1.317   .     A
C23    O98     1.306   .     A
C24    H48     1.115   .     S
C24    H47     1.109   .     S
C24    H46     1.104   .     S
C24    O86     1.414   .     S
C25    O87     1.409   .     S
C25    H50     1.115   .     S
C25    H51     1.109   .     S
C25    H967    1.110   1_554 S
C26    H54     1.109   .     S
C26    H53     1.115   .     S
C26    O88     1.409   .     S
C26    H970    1.109   .     S
C27    H55     1.113   .     S
C27    H57     1.113   .     S
C27    H58     1.109   .     S
C27    O89     1.410   .     S
C28    H61     1.116   .     S
C28    H60     1.110   .     S
C28    O90     1.414   .     S
C28    H977    1.109   1_554 S
C29    H64     1.109   .     S
C29    O91     1.413   .     S
C29    H62     1.113   .     S
C29    H267    1.111   1_455 S
C30    O92     1.422   .     S
C30    H66     1.108   .     S
C30    H65     1.108   .     S
C30    H68     1.117   .     S
C31    H70     1.110   .     S
C31    H71     1.110   .     S
C31    O93     1.414   .     S
C31    H69     1.115   .     S
C32    H72     1.113   .     S
C32    H74     1.108   .     S
C32    O95     1.413   .     S
C32    H73     1.109   .     S
C33    O99     1.307   .     A
C33    O100    1.302   .     A
C34    O102    1.366   .     S
C34    N82     1.372   .     A
C34    C649    1.419   1_545 S
C35    N81     1.381   .     A
C35    O84     1.385   .     S
C35    C342    1.435   .     S
C36    N82     1.374   .     A
C36    O85     1.379   .     S
C36    C647    1.435   1_545 S
C37    N81     1.373   .     A
C37    O86     1.380   .     S
C37    C340    1.419   .     S
C38    O91     1.376   .     S
C38    C207    1.402   1_455 S
Cu39   N81     2.042   .     S
Cu39   Cu40    2.718   .     S
Cu39   O98     1.954   .     S
Cu39   O100    1.962   .     S
Cu39   O96     1.972   .     S
Cu39   O83     1.961   .     S
Cu40   O99     1.954   .     S
Cu40   O101    1.962   .     S
Cu40   N82     2.042   .     S
Cu40   O94     1.961   .     S
Cu40   O97     1.972   .     S
H49    C943    1.110   .     S
H52    C944    1.109   1_554 S
H59    C946    1.109   .     S
H63    C131    1.111   .     S
C103   C121    1.456   .     S
C103   O199    1.310   .     A
C103   O185    1.297   .     A
C104   C120    1.411   .     A
C104   O194    1.382   .     S
C104   C208    1.402   .     S
C105   C120    1.402   .     A
C105   O195    1.390   .     S
C105   C242    1.402   .     S
C106   C121    1.405   .     A
C106   O197    1.388   .     S
C107   C118    1.406   .     A
C107   C111    1.395   .     A
C107   O189    1.384   .     S
C108   O190    1.383   .     S
C108   C119    1.410   .     A
C108   C112    1.392   .     A
C109   C113    1.398   .     A
C109   O191    1.383   .     S
C109   C119    1.409   .     A
C110   C115    1.401   .     A
C110   C118    1.404   .     A
C110   O192    1.391   .     S
C111   C116    1.412   .     A
C111   F143    1.357   .     S
C112   F144    1.353   .     S
C112   C117    1.399   .     A
C113   C117    1.401   .     A
C113   F145    1.357   .     S
C114   O196    1.306   .     A
C114   C120    1.454   .     S
C114   O198    1.299   .     A
C115   C116    1.407   .     A
C115   F146    1.343   .     S
C116   C125    1.486   .     S
C117   C135    1.458   .     S
C118   C1037   1.468   1_554 S
C119   C1036   1.468   .     S
C121   C140    1.403   .     A
C122   H169    1.102   .     S
C122   H158    1.105   .     S
C122   H147    1.116   .     S
C122   O204    1.405   .     S
C123   H178    1.109   .     S
C123   O186    1.408   .     S
C123   H179    1.109   .     S
C123   H177    1.105   .     S
C124   H181    1.116   .     S
C124   O187    1.420   .     S
C124   H180    1.107   .     S
C124   H182    1.107   .     S
C125   O203    1.317   .     A
C125   O200    1.306   .     A
C126   H150    1.115   .     S
C126   H149    1.109   .     S
C126   H148    1.104   .     S
C126   O188    1.414   .     S
C127   O189    1.409   .     S
C127   H152    1.115   .     S
C127   H153    1.109   .     S
C127   H1069   1.110   1_554 S
C128   H156    1.109   .     S
C128   H155    1.115   .     S
C128   O190    1.409   .     S
C128   H1072   1.109   .     S
C129   H157    1.113   .     S
C129   H159    1.113   .     S
C129   H160    1.109   .     S
C129   O191    1.410   .     S
C130   H163    1.116   .     S
C130   H162    1.110   .     S
C130   O192    1.414   .     S
C130   H1079   1.109   1_554 S
C131   H166    1.109   .     S
C131   O193    1.413   .     S
C131   H164    1.113   .     S
C132   O194    1.422   .     S
C132   H168    1.108   .     S
C132   H167    1.108   .     S
C132   H170    1.117   .     S
C133   H172    1.110   .     S
C133   H173    1.110   .     S
C133   O195    1.414   .     S
C133   H171    1.115   .     S
C134   H174    1.113   .     S
C134   H176    1.108   .     S
C134   O197    1.413   .     S
C134   H175    1.109   .     S
C135   O201    1.307   .     A
C135   O202    1.302   .     A
C136   O204    1.366   .     S
C136   N184    1.372   .     A
C136   C751    1.419   1_545 S
C137   N183    1.381   .     A
C137   O186    1.385   .     S
C137   C444    1.435   .     S
C138   N184    1.374   .     A
C138   O187    1.379   .     S
C138   C749    1.435   1_545 S
C139   N183    1.373   .     A
C139   O188    1.380   .     S
C139   C442    1.419   .     S
C140   O193    1.376   .     S
Cu141  N183    2.042   .     S
Cu141  Cu142   2.718   .     S
Cu141  O200    1.954   .     S
Cu141  O202    1.962   .     S
Cu141  O198    1.972   .     S
Cu141  O185    1.961   .     S
Cu142  O201    1.954   .     S
Cu142  O203    1.962   .     S
Cu142  N184    2.042   .     S
Cu142  O196    1.961   .     S
Cu142  O199    1.972   .     S
H151   C1045   1.110   .     S
H154   C1046   1.109   1_554 S
H161   C1048   1.109   .     S
H165   C233    1.111   .     S
C205   C223    1.456   .     S
C205   O301    1.310   .     A
C205   O287    1.297   .     A
C206   C222    1.411   .     A
C206   O296    1.382   .     S
C206   C4      1.402   1_655 S
C207   C222    1.402   .     A
C207   O297    1.390   .     S
C207   C38     1.402   1_655 S
C208   C223    1.405   .     A
C208   O299    1.388   .     S
C209   C220    1.406   .     A
C209   C213    1.395   .     A
C209   O291    1.384   .     S
C210   O292    1.383   .     S
C210   C221    1.410   .     A
C210   C214    1.392   .     A
C211   C215    1.398   .     A
C211   O293    1.383   .     S
C211   C221    1.409   .     A
C212   C217    1.401   .     A
C212   C220    1.404   .     A
C212   O294    1.391   .     S
C213   C218    1.412   .     A
C213   F245    1.357   .     S
C214   F246    1.353   .     S
C214   C219    1.399   .     A
C215   C219    1.401   .     A
C215   F247    1.357   .     S
C216   O298    1.306   .     A
C216   C222    1.454   .     S
C216   O300    1.299   .     A
C217   C218    1.407   .     A
C217   F248    1.343   .     S
C218   C227    1.486   .     S
C219   C237    1.458   .     S
C220   C1139   1.468   1_554 S
C221   C1138   1.468   .     S
C223   C242    1.403   .     A
C224   H271    1.102   .     S
C224   H260    1.105   .     S
C224   H249    1.116   .     S
C224   O306    1.405   .     S
C225   H280    1.109   .     S
C225   O288    1.408   .     S
C225   H281    1.109   .     S
C225   H279    1.105   .     S
C226   H283    1.116   .     S
C226   O289    1.420   .     S
C226   H282    1.107   .     S
C226   H284    1.107   .     S
C227   O305    1.317   .     A
C227   O302    1.306   .     A
C228   H252    1.115   .     S
C228   H251    1.109   .     S
C228   H250    1.104   .     S
C228   O290    1.414   .     S
C229   O291    1.409   .     S
C229   H254    1.115   .     S
C229   H255    1.109   .     S
C229   H1171   1.110   1_554 S
C230   H258    1.109   .     S
C230   H257    1.115   .     S
C230   O292    1.409   .     S
C230   H1174   1.109   .     S
C231   H259    1.113   .     S
C231   H261    1.113   .     S
C231   H262    1.109   .     S
C231   O293    1.410   .     S
C232   H265    1.116   .     S
C232   H264    1.110   .     S
C232   O294    1.414   .     S
C232   H1181   1.109   1_554 S
C233   H268    1.109   .     S
C233   O295    1.413   .     S
C233   H266    1.113   .     S
C234   O296    1.422   .     S
C234   H270    1.108   .     S
C234   H269    1.108   .     S
C234   H272    1.117   .     S
C235   H274    1.110   .     S
C235   H275    1.110   .     S
C235   O297    1.414   .     S
C235   H273    1.115   .     S
C236   H276    1.113   .     S
C236   H278    1.108   .     S
C236   O299    1.413   .     S
C236   H277    1.109   .     S
C237   O303    1.307   .     A
C237   O304    1.302   .     A
C238   O306    1.366   .     S
C238   N286    1.372   .     A
C238   C853    1.419   1_545 S
C239   N285    1.381   .     A
C239   O288    1.385   .     S
C239   C546    1.435   .     S
C240   N286    1.374   .     A
C240   O289    1.379   .     S
C240   C851    1.435   1_545 S
C241   N285    1.373   .     A
C241   O290    1.380   .     S
C241   C544    1.419   .     S
C242   O295    1.376   .     S
Cu243  N285    2.042   .     S
Cu243  Cu244   2.718   .     S
Cu243  O302    1.954   .     S
Cu243  O304    1.962   .     S
Cu243  O300    1.972   .     S
Cu243  O287    1.961   .     S
Cu244  O303    1.954   .     S
Cu244  O305    1.962   .     S
Cu244  N286    2.042   .     S
Cu244  O298    1.961   .     S
Cu244  O301    1.972   .     S
H253   C1147   1.110   .     S
H256   C1148   1.109   1_554 S
H263   C1150   1.109   .     S
H267   C29     1.111   1_655 S
C307   C325    1.456   .     S
C307   O403    1.310   .     A
C307   O389    1.297   .     A
C308   C324    1.411   .     A
C308   O398    1.382   .     S
C308   C412    1.402   .     S
C309   C324    1.402   .     A
C309   O399    1.390   .     S
C309   C446    1.402   .     S
C310   C325    1.405   .     A
C310   O401    1.388   .     S
C310   C512    1.402   1_455 S
C311   C322    1.406   .     A
C311   C315    1.395   .     A
C311   O393    1.384   .     S
C312   O394    1.383   .     S
C312   C323    1.410   .     A
C312   C316    1.392   .     A
C313   C317    1.398   .     A
C313   O395    1.383   .     S
C313   C323    1.409   .     A
C314   C319    1.401   .     A
C314   C322    1.404   .     A
C314   O396    1.391   .     S
C315   C320    1.412   .     A
C315   F347    1.357   .     S
C316   F348    1.353   .     S
C316   C321    1.399   .     A
C317   C321    1.401   .     A
C317   F349    1.357   .     S
C318   O400    1.306   .     A
C318   C324    1.454   .     S
C318   O402    1.299   .     A
C319   C320    1.407   .     A
C319   F350    1.343   .     S
C320   C329    1.486   .     S
C321   C339    1.458   .     S
C322   C1241   1.468   1_554 S
C323   C1240   1.468   .     S
C325   C344    1.403   .     A
C326   H373    1.102   .     S
C326   H362    1.105   .     S
C326   H351    1.116   .     S
C326   O408    1.405   .     S
C327   H382    1.109   .     S
C327   O390    1.408   .     S
C327   H383    1.109   .     S
C327   H381    1.105   .     S
C328   H385    1.116   .     S
C328   O391    1.420   .     S
C328   H384    1.107   .     S
C328   H386    1.107   .     S
C329   O407    1.317   .     A
C329   O404    1.306   .     A
C330   H354    1.115   .     S
C330   H353    1.109   .     S
C330   H352    1.104   .     S
C330   O392    1.414   .     S
C331   O393    1.409   .     S
C331   H356    1.115   .     S
C331   H357    1.109   .     S
C331   H1273   1.110   1_554 S
C332   H360    1.109   .     S
C332   H359    1.115   .     S
C332   O394    1.409   .     S
C332   H1276   1.109   .     S
C333   H361    1.113   .     S
C333   H363    1.113   .     S
C333   H364    1.109   .     S
C333   O395    1.410   .     S
C334   H367    1.116   .     S
C334   H366    1.110   .     S
C334   O396    1.414   .     S
C334   H1283   1.109   1_554 S
C335   H370    1.109   .     S
C335   O397    1.413   .     S
C335   H368    1.113   .     S
C335   H573    1.111   1_455 S
C336   O398    1.422   .     S
C336   H372    1.108   .     S
C336   H371    1.108   .     S
C336   H374    1.117   .     S
C337   H376    1.110   .     S
C337   H377    1.110   .     S
C337   O399    1.414   .     S
C337   H375    1.115   .     S
C338   H378    1.113   .     S
C338   H380    1.108   .     S
C338   O401    1.413   .     S
C338   H379    1.109   .     S
C339   O405    1.307   .     A
C339   O406    1.302   .     A
C340   O408    1.366   .     S
C340   N388    1.372   .     A
C341   N387    1.381   .     A
C341   O390    1.385   .     S
C341   C648    1.435   .     S
C342   N388    1.374   .     A
C342   O391    1.379   .     S
C343   N387    1.373   .     A
C343   O392    1.380   .     S
C343   C646    1.419   .     S
C344   O397    1.376   .     S
C344   C513    1.402   1_455 S
Cu345  N387    2.042   .     S
Cu345  Cu346   2.718   .     S
Cu345  O404    1.954   .     S
Cu345  O406    1.962   .     S
Cu345  O402    1.972   .     S
Cu345  O389    1.961   .     S
Cu346  O405    1.954   .     S
Cu346  O407    1.962   .     S
Cu346  N388    2.042   .     S
Cu346  O400    1.961   .     S
Cu346  O403    1.972   .     S
H355   C1249   1.110   .     S
H358   C1250   1.109   1_554 S
H365   C1252   1.109   .     S
H369   C437    1.111   .     S
C409   C427    1.456   .     S
C409   O505    1.310   .     A
C409   O491    1.297   .     A
C410   C426    1.411   .     A
C410   O500    1.382   .     S
C410   C514    1.402   .     S
C411   C426    1.402   .     A
C411   O501    1.390   .     S
C411   C548    1.402   .     S
C412   C427    1.405   .     A
C412   O503    1.388   .     S
C413   C424    1.406   .     A
C413   C417    1.395   .     A
C413   O495    1.384   .     S
C414   O496    1.383   .     S
C414   C425    1.410   .     A
C414   C418    1.392   .     A
C415   C419    1.398   .     A
C415   O497    1.383   .     S
C415   C425    1.409   .     A
C416   C421    1.401   .     A
C416   C424    1.404   .     A
C416   O498    1.391   .     S
C417   C422    1.412   .     A
C417   F449    1.357   .     S
C418   F450    1.353   .     S
C418   C423    1.399   .     A
C419   C423    1.401   .     A
C419   F451    1.357   .     S
C420   O502    1.306   .     A
C420   C426    1.454   .     S
C420   O504    1.299   .     A
C421   C422    1.407   .     A
C421   F452    1.343   .     S
C422   C431    1.486   .     S
C423   C441    1.458   .     S
C424   C1343   1.468   1_554 S
C425   C1342   1.468   .     S
C427   C446    1.403   .     A
C428   H475    1.102   .     S
C428   H464    1.105   .     S
C428   H453    1.116   .     S
C428   O510    1.405   .     S
C429   H484    1.109   .     S
C429   O492    1.408   .     S
C429   H485    1.109   .     S
C429   H483    1.105   .     S
C430   H487    1.116   .     S
C430   O493    1.420   .     S
C430   H486    1.107   .     S
C430   H488    1.107   .     S
C431   O509    1.317   .     A
C431   O506    1.306   .     A
C432   H456    1.115   .     S
C432   H455    1.109   .     S
C432   H454    1.104   .     S
C432   O494    1.414   .     S
C433   O495    1.409   .     S
C433   H458    1.115   .     S
C433   H459    1.109   .     S
C433   H1375   1.110   1_554 S
C434   H462    1.109   .     S
C434   H461    1.115   .     S
C434   O496    1.409   .     S
C434   H1378   1.109   .     S
C435   H463    1.113   .     S
C435   H465    1.113   .     S
C435   H466    1.109   .     S
C435   O497    1.410   .     S
C436   H469    1.116   .     S
C436   H468    1.110   .     S
C436   O498    1.414   .     S
C436   H1385   1.109   1_554 S
C437   H472    1.109   .     S
C437   O499    1.413   .     S
C437   H470    1.113   .     S
C438   O500    1.422   .     S
C438   H474    1.108   .     S
C438   H473    1.108   .     S
C438   H476    1.117   .     S
C439   H478    1.110   .     S
C439   H479    1.110   .     S
C439   O501    1.414   .     S
C439   H477    1.115   .     S
C440   H480    1.113   .     S
C440   H482    1.108   .     S
C440   O503    1.413   .     S
C440   H481    1.109   .     S
C441   O507    1.307   .     A
C441   O508    1.302   .     A
C442   O510    1.366   .     S
C442   N490    1.372   .     A
C443   N489    1.381   .     A
C443   O492    1.385   .     S
C443   C750    1.435   .     S
C444   N490    1.374   .     A
C444   O493    1.379   .     S
C445   N489    1.373   .     A
C445   O494    1.380   .     S
C445   C748    1.419   .     S
C446   O499    1.376   .     S
Cu447  N489    2.042   .     S
Cu447  Cu448   2.718   .     S
Cu447  O506    1.954   .     S
Cu447  O508    1.962   .     S
Cu447  O504    1.972   .     S
Cu447  O491    1.961   .     S
Cu448  O507    1.954   .     S
Cu448  O509    1.962   .     S
Cu448  N490    2.042   .     S
Cu448  O502    1.961   .     S
Cu448  O505    1.972   .     S
H457   C1351   1.110   .     S
H460   C1352   1.109   1_554 S
H467   C1354   1.109   .     S
H471   C539    1.111   .     S
C511   C529    1.456   .     S
C511   O607    1.310   .     A
C511   O593    1.297   .     A
C512   C528    1.411   .     A
C512   O602    1.382   .     S
C512   C310    1.402   1_655 S
C513   C528    1.402   .     A
C513   O603    1.390   .     S
C513   C344    1.402   1_655 S
C514   C529    1.405   .     A
C514   O605    1.388   .     S
C515   C526    1.406   .     A
C515   C519    1.395   .     A
C515   O597    1.384   .     S
C516   O598    1.383   .     S
C516   C527    1.410   .     A
C516   C520    1.392   .     A
C517   C521    1.398   .     A
C517   O599    1.383   .     S
C517   C527    1.409   .     A
C518   C523    1.401   .     A
C518   C526    1.404   .     A
C518   O600    1.391   .     S
C519   C524    1.412   .     A
C519   F551    1.357   .     S
C520   F552    1.353   .     S
C520   C525    1.399   .     A
C521   C525    1.401   .     A
C521   F553    1.357   .     S
C522   O604    1.306   .     A
C522   C528    1.454   .     S
C522   O606    1.299   .     A
C523   C524    1.407   .     A
C523   F554    1.343   .     S
C524   C533    1.486   .     S
C525   C543    1.458   .     S
C526   C1445   1.468   1_554 S
C527   C1444   1.468   .     S
C529   C548    1.403   .     A
C530   H577    1.102   .     S
C530   H566    1.105   .     S
C530   H555    1.116   .     S
C530   O612    1.405   .     S
C531   H586    1.109   .     S
C531   O594    1.408   .     S
C531   H587    1.109   .     S
C531   H585    1.105   .     S
C532   H589    1.116   .     S
C532   O595    1.420   .     S
C532   H588    1.107   .     S
C532   H590    1.107   .     S
C533   O611    1.317   .     A
C533   O608    1.306   .     A
C534   H558    1.115   .     S
C534   H557    1.109   .     S
C534   H556    1.104   .     S
C534   O596    1.414   .     S
C535   O597    1.409   .     S
C535   H560    1.115   .     S
C535   H561    1.109   .     S
C535   H1477   1.110   1_554 S
C536   H564    1.109   .     S
C536   H563    1.115   .     S
C536   O598    1.409   .     S
C536   H1480   1.109   .     S
C537   H565    1.113   .     S
C537   H567    1.113   .     S
C537   H568    1.109   .     S
C537   O599    1.410   .     S
C538   H571    1.116   .     S
C538   H570    1.110   .     S
C538   O600    1.414   .     S
C538   H1487   1.109   1_554 S
C539   H574    1.109   .     S
C539   O601    1.413   .     S
C539   H572    1.113   .     S
C540   O602    1.422   .     S
C540   H576    1.108   .     S
C540   H575    1.108   .     S
C540   H578    1.117   .     S
C541   H580    1.110   .     S
C541   H581    1.110   .     S
C541   O603    1.414   .     S
C541   H579    1.115   .     S
C542   H582    1.113   .     S
C542   H584    1.108   .     S
C542   O605    1.413   .     S
C542   H583    1.109   .     S
C543   O609    1.307   .     A
C543   O610    1.302   .     A
C544   O612    1.366   .     S
C544   N592    1.372   .     A
C545   N591    1.381   .     A
C545   O594    1.385   .     S
C545   C852    1.435   .     S
C546   N592    1.374   .     A
C546   O595    1.379   .     S
C547   N591    1.373   .     A
C547   O596    1.380   .     S
C547   C850    1.419   .     S
C548   O601    1.376   .     S
Cu549  N591    2.042   .     S
Cu549  Cu550   2.718   .     S
Cu549  O608    1.954   .     S
Cu549  O610    1.962   .     S
Cu549  O606    1.972   .     S
Cu549  O593    1.961   .     S
Cu550  O609    1.954   .     S
Cu550  O611    1.962   .     S
Cu550  N592    2.042   .     S
Cu550  O604    1.961   .     S
Cu550  O607    1.972   .     S
H559   C1453   1.110   .     S
H562   C1454   1.109   1_554 S
H569   C1456   1.109   .     S
H573   C335    1.111   1_655 S
C613   C631    1.456   .     S
C613   O709    1.310   .     A
C613   O695    1.297   .     A
C614   C630    1.411   .     A
C614   O704    1.382   .     S
C614   C718    1.402   .     S
C615   C630    1.402   .     A
C615   O705    1.390   .     S
C615   C752    1.402   .     S
C616   C631    1.405   .     A
C616   O707    1.388   .     S
C616   C818    1.402   1_455 S
C617   C628    1.406   .     A
C617   C621    1.395   .     A
C617   O699    1.384   .     S
C618   O700    1.383   .     S
C618   C629    1.410   .     A
C618   C622    1.392   .     A
C619   C623    1.398   .     A
C619   O701    1.383   .     S
C619   C629    1.409   .     A
C620   C625    1.401   .     A
C620   C628    1.404   .     A
C620   O702    1.391   .     S
C621   C626    1.412   .     A
C621   F653    1.357   .     S
C622   F654    1.353   .     S
C622   C627    1.399   .     A
C623   C627    1.401   .     A
C623   F655    1.357   .     S
C624   O706    1.306   .     A
C624   C630    1.454   .     S
C624   O708    1.299   .     A
C625   C626    1.407   .     A
C625   F656    1.343   .     S
C626   C635    1.486   .     S
C627   C645    1.458   .     S
C628   C1547   1.468   1_554 S
C629   C1546   1.468   .     S
C631   C650    1.403   .     A
C632   H679    1.102   .     S
C632   H668    1.105   .     S
C632   H657    1.116   .     S
C632   O714    1.405   .     S
C633   H688    1.109   .     S
C633   O696    1.408   .     S
C633   H689    1.109   .     S
C633   H687    1.105   .     S
C634   H691    1.116   .     S
C634   O697    1.420   .     S
C634   H690    1.107   .     S
C634   H692    1.107   .     S
C635   O713    1.317   .     A
C635   O710    1.306   .     A
C636   H660    1.115   .     S
C636   H659    1.109   .     S
C636   H658    1.104   .     S
C636   O698    1.414   .     S
C637   O699    1.409   .     S
C637   H662    1.115   .     S
C637   H663    1.109   .     S
C637   H1579   1.110   1_554 S
C638   H666    1.109   .     S
C638   H665    1.115   .     S
C638   O700    1.409   .     S
C638   H1582   1.109   .     S
C639   H667    1.113   .     S
C639   H669    1.113   .     S
C639   H670    1.109   .     S
C639   O701    1.410   .     S
C640   H673    1.116   .     S
C640   H672    1.110   .     S
C640   O702    1.414   .     S
C640   H1589   1.109   1_554 S
C641   H676    1.109   .     S
C641   O703    1.413   .     S
C641   H674    1.113   .     S
C641   H879    1.111   1_455 S
C642   O704    1.422   .     S
C642   H678    1.108   .     S
C642   H677    1.108   .     S
C642   H680    1.117   .     S
C643   H682    1.110   .     S
C643   H683    1.110   .     S
C643   O705    1.414   .     S
C643   H681    1.115   .     S
C644   H684    1.113   .     S
C644   H686    1.108   .     S
C644   O707    1.413   .     S
C644   H685    1.109   .     S
C645   O711    1.307   .     A
C645   O712    1.302   .     A
C646   O714    1.366   .     S
C646   N694    1.372   .     A
C647   N693    1.381   .     A
C647   O696    1.385   .     S
C647   C36     1.435   1_565 S
C648   N694    1.374   .     A
C648   O697    1.379   .     S
C649   N693    1.373   .     A
C649   O698    1.380   .     S
C649   C34     1.419   1_565 S
C650   O703    1.376   .     S
C650   C819    1.402   1_455 S
Cu651  N693    2.042   .     S
Cu651  Cu652   2.718   .     S
Cu651  O710    1.954   .     S
Cu651  O712    1.962   .     S
Cu651  O708    1.972   .     S
Cu651  O695    1.961   .     S
Cu652  O711    1.954   .     S
Cu652  O713    1.962   .     S
Cu652  N694    2.042   .     S
Cu652  O706    1.961   .     S
Cu652  O709    1.972   .     S
H661   C1555   1.110   .     S
H664   C1556   1.109   1_554 S
H671   C1558   1.109   .     S
H675   C743    1.111   .     S
C715   C733    1.456   .     S
C715   O811    1.310   .     A
C715   O797    1.297   .     A
C716   C732    1.411   .     A
C716   O806    1.382   .     S
C716   C820    1.402   .     S
C717   C732    1.402   .     A
C717   O807    1.390   .     S
C717   C854    1.402   .     S
C718   C733    1.405   .     A
C718   O809    1.388   .     S
C719   C730    1.406   .     A
C719   C723    1.395   .     A
C719   O801    1.384   .     S
C720   O802    1.383   .     S
C720   C731    1.410   .     A
C720   C724    1.392   .     A
C721   C725    1.398   .     A
C721   O803    1.383   .     S
C721   C731    1.409   .     A
C722   C727    1.401   .     A
C722   C730    1.404   .     A
C722   O804    1.391   .     S
C723   C728    1.412   .     A
C723   F755    1.357   .     S
C724   F756    1.353   .     S
C724   C729    1.399   .     A
C725   C729    1.401   .     A
C725   F757    1.357   .     S
C726   O808    1.306   .     A
C726   C732    1.454   .     S
C726   O810    1.299   .     A
C727   C728    1.407   .     A
C727   F758    1.343   .     S
C728   C737    1.486   .     S
C729   C747    1.458   .     S
C730   C1649   1.468   1_554 S
C731   C1648   1.468   .     S
C733   C752    1.403   .     A
C734   H781    1.102   .     S
C734   H770    1.105   .     S
C734   H759    1.116   .     S
C734   O816    1.405   .     S
C735   H790    1.109   .     S
C735   O798    1.408   .     S
C735   H791    1.109   .     S
C735   H789    1.105   .     S
C736   H793    1.116   .     S
C736   O799    1.420   .     S
C736   H792    1.107   .     S
C736   H794    1.107   .     S
C737   O815    1.317   .     A
C737   O812    1.306   .     A
C738   H762    1.115   .     S
C738   H761    1.109   .     S
C738   H760    1.104   .     S
C738   O800    1.414   .     S
C739   O801    1.409   .     S
C739   H764    1.115   .     S
C739   H765    1.109   .     S
C739   H1681   1.110   1_554 S
C740   H768    1.109   .     S
C740   H767    1.115   .     S
C740   O802    1.409   .     S
C740   H1684   1.109   .     S
C741   H769    1.113   .     S
C741   H771    1.113   .     S
C741   H772    1.109   .     S
C741   O803    1.410   .     S
C742   H775    1.116   .     S
C742   H774    1.110   .     S
C742   O804    1.414   .     S
C742   H1691   1.109   1_554 S
C743   H778    1.109   .     S
C743   O805    1.413   .     S
C743   H776    1.113   .     S
C744   O806    1.422   .     S
C744   H780    1.108   .     S
C744   H779    1.108   .     S
C744   H782    1.117   .     S
C745   H784    1.110   .     S
C745   H785    1.110   .     S
C745   O807    1.414   .     S
C745   H783    1.115   .     S
C746   H786    1.113   .     S
C746   H788    1.108   .     S
C746   O809    1.413   .     S
C746   H787    1.109   .     S
C747   O813    1.307   .     A
C747   O814    1.302   .     A
C748   O816    1.366   .     S
C748   N796    1.372   .     A
C749   N795    1.381   .     A
C749   O798    1.385   .     S
C749   C138    1.435   1_565 S
C750   N796    1.374   .     A
C750   O799    1.379   .     S
C751   N795    1.373   .     A
C751   O800    1.380   .     S
C751   C136    1.419   1_565 S
C752   O805    1.376   .     S
Cu753  N795    2.042   .     S
Cu753  Cu754   2.718   .     S
Cu753  O812    1.954   .     S
Cu753  O814    1.962   .     S
Cu753  O810    1.972   .     S
Cu753  O797    1.961   .     S
Cu754  O813    1.954   .     S
Cu754  O815    1.962   .     S
Cu754  N796    2.042   .     S
Cu754  O808    1.961   .     S
Cu754  O811    1.972   .     S
H763   C1657   1.110   .     S
H766   C1658   1.109   1_554 S
H773   C1660   1.109   .     S
H777   C845    1.111   .     S
C817   C835    1.456   .     S
C817   O913    1.310   .     A
C817   O899    1.297   .     A
C818   C834    1.411   .     A
C818   O908    1.382   .     S
C818   C616    1.402   1_655 S
C819   C834    1.402   .     A
C819   O909    1.390   .     S
C819   C650    1.402   1_655 S
C820   C835    1.405   .     A
C820   O911    1.388   .     S
C821   C832    1.406   .     A
C821   C825    1.395   .     A
C821   O903    1.384   .     S
C822   O904    1.383   .     S
C822   C833    1.410   .     A
C822   C826    1.392   .     A
C823   C827    1.398   .     A
C823   O905    1.383   .     S
C823   C833    1.409   .     A
C824   C829    1.401   .     A
C824   C832    1.404   .     A
C824   O906    1.391   .     S
C825   C830    1.412   .     A
C825   F857    1.357   .     S
C826   F858    1.353   .     S
C826   C831    1.399   .     A
C827   C831    1.401   .     A
C827   F859    1.357   .     S
C828   O910    1.306   .     A
C828   C834    1.454   .     S
C828   O912    1.299   .     A
C829   C830    1.407   .     A
C829   F860    1.343   .     S
C830   C839    1.486   .     S
C831   C849    1.458   .     S
C832   C1751   1.468   1_554 S
C833   C1750   1.468   .     S
C835   C854    1.403   .     A
C836   H883    1.102   .     S
C836   H872    1.105   .     S
C836   H861    1.116   .     S
C836   O918    1.405   .     S
C837   H892    1.109   .     S
C837   O900    1.408   .     S
C837   H893    1.109   .     S
C837   H891    1.105   .     S
C838   H895    1.116   .     S
C838   O901    1.420   .     S
C838   H894    1.107   .     S
C838   H896    1.107   .     S
C839   O917    1.317   .     A
C839   O914    1.306   .     A
C840   H864    1.115   .     S
C840   H863    1.109   .     S
C840   H862    1.104   .     S
C840   O902    1.414   .     S
C841   O903    1.409   .     S
C841   H866    1.115   .     S
C841   H867    1.109   .     S
C841   H1783   1.110   1_554 S
C842   H870    1.109   .     S
C842   H869    1.115   .     S
C842   O904    1.409   .     S
C842   H1786   1.109   .     S
C843   H871    1.113   .     S
C843   H873    1.113   .     S
C843   H874    1.109   .     S
C843   O905    1.410   .     S
C844   H877    1.116   .     S
C844   H876    1.110   .     S
C844   O906    1.414   .     S
C844   H1793   1.109   1_554 S
C845   H880    1.109   .     S
C845   O907    1.413   .     S
C845   H878    1.113   .     S
C846   O908    1.422   .     S
C846   H882    1.108   .     S
C846   H881    1.108   .     S
C846   H884    1.117   .     S
C847   H886    1.110   .     S
C847   H887    1.110   .     S
C847   O909    1.414   .     S
C847   H885    1.115   .     S
C848   H888    1.113   .     S
C848   H890    1.108   .     S
C848   O911    1.413   .     S
C848   H889    1.109   .     S
C849   O915    1.307   .     A
C849   O916    1.302   .     A
C850   O918    1.366   .     S
C850   N898    1.372   .     A
C851   N897    1.381   .     A
C851   O900    1.385   .     S
C851   C240    1.435   1_565 S
C852   N898    1.374   .     A
C852   O901    1.379   .     S
C853   N897    1.373   .     A
C853   O902    1.380   .     S
C853   C238    1.419   1_565 S
C854   O907    1.376   .     S
Cu855  N897    2.042   .     S
Cu855  Cu856   2.718   .     S
Cu855  O914    1.954   .     S
Cu855  O916    1.962   .     S
Cu855  O912    1.972   .     S
Cu855  O899    1.961   .     S
Cu856  O915    1.954   .     S
Cu856  O917    1.962   .     S
Cu856  N898    2.042   .     S
Cu856  O910    1.961   .     S
Cu856  O913    1.972   .     S
H865   C1759   1.110   .     S
H868   C1760   1.109   1_554 S
H875   C1762   1.109   .     S
H879   C641    1.111   1_655 S
C919   C937    1.456   .     S
C919   O1015   1.310   .     A
C919   O1001   1.297   .     A
C920   C936    1.411   .     A
C920   O1010   1.382   .     S
C920   C1024   1.402   .     S
C921   C936    1.402   .     A
C921   O1011   1.390   .     S
C921   C1058   1.402   .     S
C922   C937    1.405   .     A
C922   O1013   1.388   .     S
C922   C1124   1.402   1_455 S
C923   C934    1.406   .     A
C923   C927    1.395   .     A
C923   O1005   1.384   .     S
C924   O1006   1.383   .     S
C924   C935    1.410   .     A
C924   C928    1.392   .     A
C925   C929    1.398   .     A
C925   O1007   1.383   .     S
C925   C935    1.409   .     A
C926   C931    1.401   .     A
C926   C934    1.404   .     A
C926   O1008   1.391   .     S
C927   C932    1.412   .     A
C927   F959    1.357   .     S
C928   F960    1.353   .     S
C928   C933    1.399   .     A
C929   C933    1.401   .     A
C929   F961    1.357   .     S
C930   O1012   1.306   .     A
C930   C936    1.454   .     S
C930   O1014   1.299   .     A
C931   C932    1.407   .     A
C931   F962    1.343   .     S
C932   C941    1.486   .     S
C933   C951    1.458   .     S
C935   C16     1.468   1_556 S
C937   C956    1.403   .     A
C938   H985    1.102   .     S
C938   H974    1.105   .     S
C938   H963    1.116   .     S
C938   O1020   1.405   .     S
C939   H994    1.109   .     S
C939   O1002   1.408   .     S
C939   H995    1.109   .     S
C939   H993    1.105   .     S
C940   H997    1.116   .     S
C940   O1003   1.420   .     S
C940   H996    1.107   .     S
C940   H998    1.107   .     S
C941   O1019   1.317   .     A
C941   O1016   1.306   .     A
C942   H966    1.115   .     S
C942   H965    1.109   .     S
C942   H964    1.104   .     S
C942   O1004   1.414   .     S
C943   O1005   1.409   .     S
C943   H968    1.115   .     S
C943   H969    1.109   .     S
C944   H972    1.109   .     S
C944   H971    1.115   .     S
C944   O1006   1.409   .     S
C944   H52     1.109   1_556 S
C945   H973    1.113   .     S
C945   H975    1.113   .     S
C945   H976    1.109   .     S
C945   O1007   1.410   .     S
C946   H979    1.116   .     S
C946   H978    1.110   .     S
C946   O1008   1.414   .     S
C947   H982    1.109   .     S
C947   O1009   1.413   .     S
C947   H980    1.113   .     S
C947   H1185   1.111   1_455 S
C948   O1010   1.422   .     S
C948   H984    1.108   .     S
C948   H983    1.108   .     S
C948   H986    1.117   .     S
C949   H988    1.110   .     S
C949   H989    1.110   .     S
C949   O1011   1.414   .     S
C949   H987    1.115   .     S
C950   H990    1.113   .     S
C950   H992    1.108   .     S
C950   O1013   1.413   .     S
C950   H991    1.109   .     S
C951   O1017   1.307   .     A
C951   O1018   1.302   .     A
C952   O1020   1.366   .     S
C952   N1000   1.372   .     A
C952   C1567   1.419   1_545 S
C953   N999    1.381   .     A
C953   O1002   1.385   .     S
C953   C1260   1.435   .     S
C954   N1000   1.374   .     A
C954   O1003   1.379   .     S
C954   C1565   1.435   1_545 S
C955   N999    1.373   .     A
C955   O1004   1.380   .     S
C955   C1258   1.419   .     S
C956   O1009   1.376   .     S
C956   C1125   1.402   1_455 S
Cu957  N999    2.042   .     S
Cu957  Cu958   2.718   .     S
Cu957  O1016   1.954   .     S
Cu957  O1018   1.962   .     S
Cu957  O1014   1.972   .     S
Cu957  O1001   1.961   .     S
Cu958  O1017   1.954   .     S
Cu958  O1019   1.962   .     S
Cu958  N1000   2.042   .     S
Cu958  O1012   1.961   .     S
Cu958  O1015   1.972   .     S
H967   C25     1.110   1_556 S
H977   C28     1.109   1_556 S
H981   C1049   1.111   .     S
C1021  C1039   1.456   .     S
C1021  O1117   1.310   .     A
C1021  O1103   1.297   .     A
C1022  C1038   1.411   .     A
C1022  O1112   1.382   .     S
C1022  C1126   1.402   .     S
C1023  C1038   1.402   .     A
C1023  O1113   1.390   .     S
C1023  C1160   1.402   .     S
C1024  C1039   1.405   .     A
C1024  O1115   1.388   .     S
C1025  C1036   1.406   .     A
C1025  C1029   1.395   .     A
C1025  O1107   1.384   .     S
C1026  O1108   1.383   .     S
C1026  C1037   1.410   .     A
C1026  C1030   1.392   .     A
C1027  C1031   1.398   .     A
C1027  O1109   1.383   .     S
C1027  C1037   1.409   .     A
C1028  C1033   1.401   .     A
C1028  C1036   1.404   .     A
C1028  O1110   1.391   .     S
C1029  C1034   1.412   .     A
C1029  F1061   1.357   .     S
C1030  F1062   1.353   .     S
C1030  C1035   1.399   .     A
C1031  C1035   1.401   .     A
C1031  F1063   1.357   .     S
C1032  O1114   1.306   .     A
C1032  C1038   1.454   .     S
C1032  O1116   1.299   .     A
C1033  C1034   1.407   .     A
C1033  F1064   1.343   .     S
C1034  C1043   1.486   .     S
C1035  C1053   1.458   .     S
C1037  C118    1.468   1_556 S
C1039  C1058   1.403   .     A
C1040  H1087   1.102   .     S
C1040  H1076   1.105   .     S
C1040  H1065   1.116   .     S
C1040  O1122   1.405   .     S
C1041  H1096   1.109   .     S
C1041  O1104   1.408   .     S
C1041  H1097   1.109   .     S
C1041  H1095   1.105   .     S
C1042  H1099   1.116   .     S
C1042  O1105   1.420   .     S
C1042  H1098   1.107   .     S
C1042  H1100   1.107   .     S
C1043  O1121   1.317   .     A
C1043  O1118   1.306   .     A
C1044  H1068   1.115   .     S
C1044  H1067   1.109   .     S
C1044  H1066   1.104   .     S
C1044  O1106   1.414   .     S
C1045  O1107   1.409   .     S
C1045  H1070   1.115   .     S
C1045  H1071   1.109   .     S
C1046  H1074   1.109   .     S
C1046  H1073   1.115   .     S
C1046  O1108   1.409   .     S
C1046  H154    1.109   1_556 S
C1047  H1075   1.113   .     S
C1047  H1077   1.113   .     S
C1047  H1078   1.109   .     S
C1047  O1109   1.410   .     S
C1048  H1081   1.116   .     S
C1048  H1080   1.110   .     S
C1048  O1110   1.414   .     S
C1049  H1084   1.109   .     S
C1049  O1111   1.413   .     S
C1049  H1082   1.113   .     S
C1050  O1112   1.422   .     S
C1050  H1086   1.108   .     S
C1050  H1085   1.108   .     S
C1050  H1088   1.117   .     S
C1051  H1090   1.110   .     S
C1051  H1091   1.110   .     S
C1051  O1113   1.414   .     S
C1051  H1089   1.115   .     S
C1052  H1092   1.113   .     S
C1052  H1094   1.108   .     S
C1052  O1115   1.413   .     S
C1052  H1093   1.109   .     S
C1053  O1119   1.307   .     A
C1053  O1120   1.302   .     A
C1054  O1122   1.366   .     S
C1054  N1102   1.372   .     A
C1054  C1669   1.419   1_545 S
C1055  N1101   1.381   .     A
C1055  O1104   1.385   .     S
C1055  C1362   1.435   .     S
C1056  N1102   1.374   .     A
C1056  O1105   1.379   .     S
C1056  C1667   1.435   1_545 S
C1057  N1101   1.373   .     A
C1057  O1106   1.380   .     S
C1057  C1360   1.419   .     S
C1058  O1111   1.376   .     S
Cu1059 N1101   2.042   .     S
Cu1059 Cu1060  2.718   .     S
Cu1059 O1118   1.954   .     S
Cu1059 O1120   1.962   .     S
Cu1059 O1116   1.972   .     S
Cu1059 O1103   1.961   .     S
Cu1060 O1119   1.954   .     S
Cu1060 O1121   1.962   .     S
Cu1060 N1102   2.042   .     S
Cu1060 O1114   1.961   .     S
Cu1060 O1117   1.972   .     S
H1069  C127    1.110   1_556 S
H1079  C130    1.109   1_556 S
H1083  C1151   1.111   .     S
C1123  C1141   1.456   .     S
C1123  O1219   1.310   .     A
C1123  O1205   1.297   .     A
C1124  C1140   1.411   .     A
C1124  O1214   1.382   .     S
C1124  C922    1.402   1_655 S
C1125  C1140   1.402   .     A
C1125  O1215   1.390   .     S
C1125  C956    1.402   1_655 S
C1126  C1141   1.405   .     A
C1126  O1217   1.388   .     S
C1127  C1138   1.406   .     A
C1127  C1131   1.395   .     A
C1127  O1209   1.384   .     S
C1128  O1210   1.383   .     S
C1128  C1139   1.410   .     A
C1128  C1132   1.392   .     A
C1129  C1133   1.398   .     A
C1129  O1211   1.383   .     S
C1129  C1139   1.409   .     A
C1130  C1135   1.401   .     A
C1130  C1138   1.404   .     A
C1130  O1212   1.391   .     S
C1131  C1136   1.412   .     A
C1131  F1163   1.357   .     S
C1132  F1164   1.353   .     S
C1132  C1137   1.399   .     A
C1133  C1137   1.401   .     A
C1133  F1165   1.357   .     S
C1134  O1216   1.306   .     A
C1134  C1140   1.454   .     S
C1134  O1218   1.299   .     A
C1135  C1136   1.407   .     A
C1135  F1166   1.343   .     S
C1136  C1145   1.486   .     S
C1137  C1155   1.458   .     S
C1139  C220    1.468   1_556 S
C1141  C1160   1.403   .     A
C1142  H1189   1.102   .     S
C1142  H1178   1.105   .     S
C1142  H1167   1.116   .     S
C1142  O1224   1.405   .     S
C1143  H1198   1.109   .     S
C1143  O1206   1.408   .     S
C1143  H1199   1.109   .     S
C1143  H1197   1.105   .     S
C1144  H1201   1.116   .     S
C1144  O1207   1.420   .     S
C1144  H1200   1.107   .     S
C1144  H1202   1.107   .     S
C1145  O1223   1.317   .     A
C1145  O1220   1.306   .     A
C1146  H1170   1.115   .     S
C1146  H1169   1.109   .     S
C1146  H1168   1.104   .     S
C1146  O1208   1.414   .     S
C1147  O1209   1.409   .     S
C1147  H1172   1.115   .     S
C1147  H1173   1.109   .     S
C1148  H1176   1.109   .     S
C1148  H1175   1.115   .     S
C1148  O1210   1.409   .     S
C1148  H256    1.109   1_556 S
C1149  H1177   1.113   .     S
C1149  H1179   1.113   .     S
C1149  H1180   1.109   .     S
C1149  O1211   1.410   .     S
C1150  H1183   1.116   .     S
C1150  H1182   1.110   .     S
C1150  O1212   1.414   .     S
C1151  H1186   1.109   .     S
C1151  O1213   1.413   .     S
C1151  H1184   1.113   .     S
C1152  O1214   1.422   .     S
C1152  H1188   1.108   .     S
C1152  H1187   1.108   .     S
C1152  H1190   1.117   .     S
C1153  H1192   1.110   .     S
C1153  H1193   1.110   .     S
C1153  O1215   1.414   .     S
C1153  H1191   1.115   .     S
C1154  H1194   1.113   .     S
C1154  H1196   1.108   .     S
C1154  O1217   1.413   .     S
C1154  H1195   1.109   .     S
C1155  O1221   1.307   .     A
C1155  O1222   1.302   .     A
C1156  O1224   1.366   .     S
C1156  N1204   1.372   .     A
C1156  C1771   1.419   1_545 S
C1157  N1203   1.381   .     A
C1157  O1206   1.385   .     S
C1157  C1464   1.435   .     S
C1158  N1204   1.374   .     A
C1158  O1207   1.379   .     S
C1158  C1769   1.435   1_545 S
C1159  N1203   1.373   .     A
C1159  O1208   1.380   .     S
C1159  C1462   1.419   .     S
C1160  O1213   1.376   .     S
Cu1161 N1203   2.042   .     S
Cu1161 Cu1162  2.718   .     S
Cu1161 O1220   1.954   .     S
Cu1161 O1222   1.962   .     S
Cu1161 O1218   1.972   .     S
Cu1161 O1205   1.961   .     S
Cu1162 O1221   1.954   .     S
Cu1162 O1223   1.962   .     S
Cu1162 N1204   2.042   .     S
Cu1162 O1216   1.961   .     S
Cu1162 O1219   1.972   .     S
H1171  C229    1.110   1_556 S
H1181  C232    1.109   1_556 S
H1185  C947    1.111   1_655 S
C1225  C1243   1.456   .     S
C1225  O1321   1.310   .     A
C1225  O1307   1.297   .     A
C1226  C1242   1.411   .     A
C1226  O1316   1.382   .     S
C1226  C1330   1.402   .     S
C1227  C1242   1.402   .     A
C1227  O1317   1.390   .     S
C1227  C1364   1.402   .     S
C1228  C1243   1.405   .     A
C1228  O1319   1.388   .     S
C1228  C1430   1.402   1_455 S
C1229  C1240   1.406   .     A
C1229  C1233   1.395   .     A
C1229  O1311   1.384   .     S
C1230  O1312   1.383   .     S
C1230  C1241   1.410   .     A
C1230  C1234   1.392   .     A
C1231  C1235   1.398   .     A
C1231  O1313   1.383   .     S
C1231  C1241   1.409   .     A
C1232  C1237   1.401   .     A
C1232  C1240   1.404   .     A
C1232  O1314   1.391   .     S
C1233  C1238   1.412   .     A
C1233  F1265   1.357   .     S
C1234  F1266   1.353   .     S
C1234  C1239   1.399   .     A
C1235  C1239   1.401   .     A
C1235  F1267   1.357   .     S
C1236  O1318   1.306   .     A
C1236  C1242   1.454   .     S
C1236  O1320   1.299   .     A
C1237  C1238   1.407   .     A
C1237  F1268   1.343   .     S
C1238  C1247   1.486   .     S
C1239  C1257   1.458   .     S
C1241  C322    1.468   1_556 S
C1243  C1262   1.403   .     A
C1244  H1291   1.102   .     S
C1244  H1280   1.105   .     S
C1244  H1269   1.116   .     S
C1244  O1326   1.405   .     S
C1245  H1300   1.109   .     S
C1245  O1308   1.408   .     S
C1245  H1301   1.109   .     S
C1245  H1299   1.105   .     S
C1246  H1303   1.116   .     S
C1246  O1309   1.420   .     S
C1246  H1302   1.107   .     S
C1246  H1304   1.107   .     S
C1247  O1325   1.317   .     A
C1247  O1322   1.306   .     A
C1248  H1272   1.115   .     S
C1248  H1271   1.109   .     S
C1248  H1270   1.104   .     S
C1248  O1310   1.414   .     S
C1249  O1311   1.409   .     S
C1249  H1274   1.115   .     S
C1249  H1275   1.109   .     S
C1250  H1278   1.109   .     S
C1250  H1277   1.115   .     S
C1250  O1312   1.409   .     S
C1250  H358    1.109   1_556 S
C1251  H1279   1.113   .     S
C1251  H1281   1.113   .     S
C1251  H1282   1.109   .     S
C1251  O1313   1.410   .     S
C1252  H1285   1.116   .     S
C1252  H1284   1.110   .     S
C1252  O1314   1.414   .     S
C1253  H1288   1.109   .     S
C1253  O1315   1.413   .     S
C1253  H1286   1.113   .     S
C1253  H1491   1.111   1_455 S
C1254  O1316   1.422   .     S
C1254  H1290   1.108   .     S
C1254  H1289   1.108   .     S
C1254  H1292   1.117   .     S
C1255  H1294   1.110   .     S
C1255  H1295   1.110   .     S
C1255  O1317   1.414   .     S
C1255  H1293   1.115   .     S
C1256  H1296   1.113   .     S
C1256  H1298   1.108   .     S
C1256  O1319   1.413   .     S
C1256  H1297   1.109   .     S
C1257  O1323   1.307   .     A
C1257  O1324   1.302   .     A
C1258  O1326   1.366   .     S
C1258  N1306   1.372   .     A
C1259  N1305   1.381   .     A
C1259  O1308   1.385   .     S
C1259  C1566   1.435   .     S
C1260  N1306   1.374   .     A
C1260  O1309   1.379   .     S
C1261  N1305   1.373   .     A
C1261  O1310   1.380   .     S
C1261  C1564   1.419   .     S
C1262  O1315   1.376   .     S
C1262  C1431   1.402   1_455 S
Cu1263 N1305   2.042   .     S
Cu1263 Cu1264  2.718   .     S
Cu1263 O1322   1.954   .     S
Cu1263 O1324   1.962   .     S
Cu1263 O1320   1.972   .     S
Cu1263 O1307   1.961   .     S
Cu1264 O1323   1.954   .     S
Cu1264 O1325   1.962   .     S
Cu1264 N1306   2.042   .     S
Cu1264 O1318   1.961   .     S
Cu1264 O1321   1.972   .     S
H1273  C331    1.110   1_556 S
H1283  C334    1.109   1_556 S
H1287  C1355   1.111   .     S
C1327  C1345   1.456   .     S
C1327  O1423   1.310   .     A
C1327  O1409   1.297   .     A
C1328  C1344   1.411   .     A
C1328  O1418   1.382   .     S
C1328  C1432   1.402   .     S
C1329  C1344   1.402   .     A
C1329  O1419   1.390   .     S
C1329  C1466   1.402   .     S
C1330  C1345   1.405   .     A
C1330  O1421   1.388   .     S
C1331  C1342   1.406   .     A
C1331  C1335   1.395   .     A
C1331  O1413   1.384   .     S
C1332  O1414   1.383   .     S
C1332  C1343   1.410   .     A
C1332  C1336   1.392   .     A
C1333  C1337   1.398   .     A
C1333  O1415   1.383   .     S
C1333  C1343   1.409   .     A
C1334  C1339   1.401   .     A
C1334  C1342   1.404   .     A
C1334  O1416   1.391   .     S
C1335  C1340   1.412   .     A
C1335  F1367   1.357   .     S
C1336  F1368   1.353   .     S
C1336  C1341   1.399   .     A
C1337  C1341   1.401   .     A
C1337  F1369   1.357   .     S
C1338  O1420   1.306   .     A
C1338  C1344   1.454   .     S
C1338  O1422   1.299   .     A
C1339  C1340   1.407   .     A
C1339  F1370   1.343   .     S
C1340  C1349   1.486   .     S
C1341  C1359   1.458   .     S
C1343  C424    1.468   1_556 S
C1345  C1364   1.403   .     A
C1346  H1393   1.102   .     S
C1346  H1382   1.105   .     S
C1346  H1371   1.116   .     S
C1346  O1428   1.405   .     S
C1347  H1402   1.109   .     S
C1347  O1410   1.408   .     S
C1347  H1403   1.109   .     S
C1347  H1401   1.105   .     S
C1348  H1405   1.116   .     S
C1348  O1411   1.420   .     S
C1348  H1404   1.107   .     S
C1348  H1406   1.107   .     S
C1349  O1427   1.317   .     A
C1349  O1424   1.306   .     A
C1350  H1374   1.115   .     S
C1350  H1373   1.109   .     S
C1350  H1372   1.104   .     S
C1350  O1412   1.414   .     S
C1351  O1413   1.409   .     S
C1351  H1376   1.115   .     S
C1351  H1377   1.109   .     S
C1352  H1380   1.109   .     S
C1352  H1379   1.115   .     S
C1352  O1414   1.409   .     S
C1352  H460    1.109   1_556 S
C1353  H1381   1.113   .     S
C1353  H1383   1.113   .     S
C1353  H1384   1.109   .     S
C1353  O1415   1.410   .     S
C1354  H1387   1.116   .     S
C1354  H1386   1.110   .     S
C1354  O1416   1.414   .     S
C1355  H1390   1.109   .     S
C1355  O1417   1.413   .     S
C1355  H1388   1.113   .     S
C1356  O1418   1.422   .     S
C1356  H1392   1.108   .     S
C1356  H1391   1.108   .     S
C1356  H1394   1.117   .     S
C1357  H1396   1.110   .     S
C1357  H1397   1.110   .     S
C1357  O1419   1.414   .     S
C1357  H1395   1.115   .     S
C1358  H1398   1.113   .     S
C1358  H1400   1.108   .     S
C1358  O1421   1.413   .     S
C1358  H1399   1.109   .     S
C1359  O1425   1.307   .     A
C1359  O1426   1.302   .     A
C1360  O1428   1.366   .     S
C1360  N1408   1.372   .     A
C1361  N1407   1.381   .     A
C1361  O1410   1.385   .     S
C1361  C1668   1.435   .     S
C1362  N1408   1.374   .     A
C1362  O1411   1.379   .     S
C1363  N1407   1.373   .     A
C1363  O1412   1.380   .     S
C1363  C1666   1.419   .     S
C1364  O1417   1.376   .     S
Cu1365 N1407   2.042   .     S
Cu1365 Cu1366  2.718   .     S
Cu1365 O1424   1.954   .     S
Cu1365 O1426   1.962   .     S
Cu1365 O1422   1.972   .     S
Cu1365 O1409   1.961   .     S
Cu1366 O1425   1.954   .     S
Cu1366 O1427   1.962   .     S
Cu1366 N1408   2.042   .     S
Cu1366 O1420   1.961   .     S
Cu1366 O1423   1.972   .     S
H1375  C433    1.110   1_556 S
H1385  C436    1.109   1_556 S
H1389  C1457   1.111   .     S
C1429  C1447   1.456   .     S
C1429  O1525   1.310   .     A
C1429  O1511   1.297   .     A
C1430  C1446   1.411   .     A
C1430  O1520   1.382   .     S
C1430  C1228   1.402   1_655 S
C1431  C1446   1.402   .     A
C1431  O1521   1.390   .     S
C1431  C1262   1.402   1_655 S
C1432  C1447   1.405   .     A
C1432  O1523   1.388   .     S
C1433  C1444   1.406   .     A
C1433  C1437   1.395   .     A
C1433  O1515   1.384   .     S
C1434  O1516   1.383   .     S
C1434  C1445   1.410   .     A
C1434  C1438   1.392   .     A
C1435  C1439   1.398   .     A
C1435  O1517   1.383   .     S
C1435  C1445   1.409   .     A
C1436  C1441   1.401   .     A
C1436  C1444   1.404   .     A
C1436  O1518   1.391   .     S
C1437  C1442   1.412   .     A
C1437  F1469   1.357   .     S
C1438  F1470   1.353   .     S
C1438  C1443   1.399   .     A
C1439  C1443   1.401   .     A
C1439  F1471   1.357   .     S
C1440  O1522   1.306   .     A
C1440  C1446   1.454   .     S
C1440  O1524   1.299   .     A
C1441  C1442   1.407   .     A
C1441  F1472   1.343   .     S
C1442  C1451   1.486   .     S
C1443  C1461   1.458   .     S
C1445  C526    1.468   1_556 S
C1447  C1466   1.403   .     A
C1448  H1495   1.102   .     S
C1448  H1484   1.105   .     S
C1448  H1473   1.116   .     S
C1448  O1530   1.405   .     S
C1449  H1504   1.109   .     S
C1449  O1512   1.408   .     S
C1449  H1505   1.109   .     S
C1449  H1503   1.105   .     S
C1450  H1507   1.116   .     S
C1450  O1513   1.420   .     S
C1450  H1506   1.107   .     S
C1450  H1508   1.107   .     S
C1451  O1529   1.317   .     A
C1451  O1526   1.306   .     A
C1452  H1476   1.115   .     S
C1452  H1475   1.109   .     S
C1452  H1474   1.104   .     S
C1452  O1514   1.414   .     S
C1453  O1515   1.409   .     S
C1453  H1478   1.115   .     S
C1453  H1479   1.109   .     S
C1454  H1482   1.109   .     S
C1454  H1481   1.115   .     S
C1454  O1516   1.409   .     S
C1454  H562    1.109   1_556 S
C1455  H1483   1.113   .     S
C1455  H1485   1.113   .     S
C1455  H1486   1.109   .     S
C1455  O1517   1.410   .     S
C1456  H1489   1.116   .     S
C1456  H1488   1.110   .     S
C1456  O1518   1.414   .     S
C1457  H1492   1.109   .     S
C1457  O1519   1.413   .     S
C1457  H1490   1.113   .     S
C1458  O1520   1.422   .     S
C1458  H1494   1.108   .     S
C1458  H1493   1.108   .     S
C1458  H1496   1.117   .     S
C1459  H1498   1.110   .     S
C1459  H1499   1.110   .     S
C1459  O1521   1.414   .     S
C1459  H1497   1.115   .     S
C1460  H1500   1.113   .     S
C1460  H1502   1.108   .     S
C1460  O1523   1.413   .     S
C1460  H1501   1.109   .     S
C1461  O1527   1.307   .     A
C1461  O1528   1.302   .     A
C1462  O1530   1.366   .     S
C1462  N1510   1.372   .     A
C1463  N1509   1.381   .     A
C1463  O1512   1.385   .     S
C1463  C1770   1.435   .     S
C1464  N1510   1.374   .     A
C1464  O1513   1.379   .     S
C1465  N1509   1.373   .     A
C1465  O1514   1.380   .     S
C1465  C1768   1.419   .     S
C1466  O1519   1.376   .     S
Cu1467 N1509   2.042   .     S
Cu1467 Cu1468  2.718   .     S
Cu1467 O1526   1.954   .     S
Cu1467 O1528   1.962   .     S
Cu1467 O1524   1.972   .     S
Cu1467 O1511   1.961   .     S
Cu1468 O1527   1.954   .     S
Cu1468 O1529   1.962   .     S
Cu1468 N1510   2.042   .     S
Cu1468 O1522   1.961   .     S
Cu1468 O1525   1.972   .     S
H1477  C535    1.110   1_556 S
H1487  C538    1.109   1_556 S
H1491  C1253   1.111   1_655 S
C1531  C1549   1.456   .     S
C1531  O1627   1.310   .     A
C1531  O1613   1.297   .     A
C1532  C1548   1.411   .     A
C1532  O1622   1.382   .     S
C1532  C1636   1.402   .     S
C1533  C1548   1.402   .     A
C1533  O1623   1.390   .     S
C1533  C1670   1.402   .     S
C1534  C1549   1.405   .     A
C1534  O1625   1.388   .     S
C1534  C1736   1.402   1_455 S
C1535  C1546   1.406   .     A
C1535  C1539   1.395   .     A
C1535  O1617   1.384   .     S
C1536  O1618   1.383   .     S
C1536  C1547   1.410   .     A
C1536  C1540   1.392   .     A
C1537  C1541   1.398   .     A
C1537  O1619   1.383   .     S
C1537  C1547   1.409   .     A
C1538  C1543   1.401   .     A
C1538  C1546   1.404   .     A
C1538  O1620   1.391   .     S
C1539  C1544   1.412   .     A
C1539  F1571   1.357   .     S
C1540  F1572   1.353   .     S
C1540  C1545   1.399   .     A
C1541  C1545   1.401   .     A
C1541  F1573   1.357   .     S
C1542  O1624   1.306   .     A
C1542  C1548   1.454   .     S
C1542  O1626   1.299   .     A
C1543  C1544   1.407   .     A
C1543  F1574   1.343   .     S
C1544  C1553   1.486   .     S
C1545  C1563   1.458   .     S
C1547  C628    1.468   1_556 S
C1549  C1568   1.403   .     A
C1550  H1597   1.102   .     S
C1550  H1586   1.105   .     S
C1550  H1575   1.116   .     S
C1550  O1632   1.405   .     S
C1551  H1606   1.109   .     S
C1551  O1614   1.408   .     S
C1551  H1607   1.109   .     S
C1551  H1605   1.105   .     S
C1552  H1609   1.116   .     S
C1552  O1615   1.420   .     S
C1552  H1608   1.107   .     S
C1552  H1610   1.107   .     S
C1553  O1631   1.317   .     A
C1553  O1628   1.306   .     A
C1554  H1578   1.115   .     S
C1554  H1577   1.109   .     S
C1554  H1576   1.104   .     S
C1554  O1616   1.414   .     S
C1555  O1617   1.409   .     S
C1555  H1580   1.115   .     S
C1555  H1581   1.109   .     S
C1556  H1584   1.109   .     S
C1556  H1583   1.115   .     S
C1556  O1618   1.409   .     S
C1556  H664    1.109   1_556 S
C1557  H1585   1.113   .     S
C1557  H1587   1.113   .     S
C1557  H1588   1.109   .     S
C1557  O1619   1.410   .     S
C1558  H1591   1.116   .     S
C1558  H1590   1.110   .     S
C1558  O1620   1.414   .     S
C1559  H1594   1.109   .     S
C1559  O1621   1.413   .     S
C1559  H1592   1.113   .     S
C1559  H1797   1.111   1_455 S
C1560  O1622   1.422   .     S
C1560  H1596   1.108   .     S
C1560  H1595   1.108   .     S
C1560  H1598   1.117   .     S
C1561  H1600   1.110   .     S
C1561  H1601   1.110   .     S
C1561  O1623   1.414   .     S
C1561  H1599   1.115   .     S
C1562  H1602   1.113   .     S
C1562  H1604   1.108   .     S
C1562  O1625   1.413   .     S
C1562  H1603   1.109   .     S
C1563  O1629   1.307   .     A
C1563  O1630   1.302   .     A
C1564  O1632   1.366   .     S
C1564  N1612   1.372   .     A
C1565  N1611   1.381   .     A
C1565  O1614   1.385   .     S
C1565  C954    1.435   1_565 S
C1566  N1612   1.374   .     A
C1566  O1615   1.379   .     S
C1567  N1611   1.373   .     A
C1567  O1616   1.380   .     S
C1567  C952    1.419   1_565 S
C1568  O1621   1.376   .     S
C1568  C1737   1.402   1_455 S
Cu1569 N1611   2.042   .     S
Cu1569 Cu1570  2.718   .     S
Cu1569 O1628   1.954   .     S
Cu1569 O1630   1.962   .     S
Cu1569 O1626   1.972   .     S
Cu1569 O1613   1.961   .     S
Cu1570 O1629   1.954   .     S
Cu1570 O1631   1.962   .     S
Cu1570 N1612   2.042   .     S
Cu1570 O1624   1.961   .     S
Cu1570 O1627   1.972   .     S
H1579  C637    1.110   1_556 S
H1589  C640    1.109   1_556 S
H1593  C1661   1.111   .     S
C1633  C1651   1.456   .     S
C1633  O1729   1.310   .     A
C1633  O1715   1.297   .     A
C1634  C1650   1.411   .     A
C1634  O1724   1.382   .     S
C1634  C1738   1.402   .     S
C1635  C1650   1.402   .     A
C1635  O1725   1.390   .     S
C1635  C1772   1.402   .     S
C1636  C1651   1.405   .     A
C1636  O1727   1.388   .     S
C1637  C1648   1.406   .     A
C1637  C1641   1.395   .     A
C1637  O1719   1.384   .     S
C1638  O1720   1.383   .     S
C1638  C1649   1.410   .     A
C1638  C1642   1.392   .     A
C1639  C1643   1.398   .     A
C1639  O1721   1.383   .     S
C1639  C1649   1.409   .     A
C1640  C1645   1.401   .     A
C1640  C1648   1.404   .     A
C1640  O1722   1.391   .     S
C1641  C1646   1.412   .     A
C1641  F1673   1.357   .     S
C1642  F1674   1.353   .     S
C1642  C1647   1.399   .     A
C1643  C1647   1.401   .     A
C1643  F1675   1.357   .     S
C1644  O1726   1.306   .     A
C1644  C1650   1.454   .     S
C1644  O1728   1.299   .     A
C1645  C1646   1.407   .     A
C1645  F1676   1.343   .     S
C1646  C1655   1.486   .     S
C1647  C1665   1.458   .     S
C1649  C730    1.468   1_556 S
C1651  C1670   1.403   .     A
C1652  H1699   1.102   .     S
C1652  H1688   1.105   .     S
C1652  H1677   1.116   .     S
C1652  O1734   1.405   .     S
C1653  H1708   1.109   .     S
C1653  O1716   1.408   .     S
C1653  H1709   1.109   .     S
C1653  H1707   1.105   .     S
C1654  H1711   1.116   .     S
C1654  O1717   1.420   .     S
C1654  H1710   1.107   .     S
C1654  H1712   1.107   .     S
C1655  O1733   1.317   .     A
C1655  O1730   1.306   .     A
C1656  H1680   1.115   .     S
C1656  H1679   1.109   .     S
C1656  H1678   1.104   .     S
C1656  O1718   1.414   .     S
C1657  O1719   1.409   .     S
C1657  H1682   1.115   .     S
C1657  H1683   1.109   .     S
C1658  H1686   1.109   .     S
C1658  H1685   1.115   .     S
C1658  O1720   1.409   .     S
C1658  H766    1.109   1_556 S
C1659  H1687   1.113   .     S
C1659  H1689   1.113   .     S
C1659  H1690   1.109   .     S
C1659  O1721   1.410   .     S
C1660  H1693   1.116   .     S
C1660  H1692   1.110   .     S
C1660  O1722   1.414   .     S
C1661  H1696   1.109   .     S
C1661  O1723   1.413   .     S
C1661  H1694   1.113   .     S
C1662  O1724   1.422   .     S
C1662  H1698   1.108   .     S
C1662  H1697   1.108   .     S
C1662  H1700   1.117   .     S
C1663  H1702   1.110   .     S
C1663  H1703   1.110   .     S
C1663  O1725   1.414   .     S
C1663  H1701   1.115   .     S
C1664  H1704   1.113   .     S
C1664  H1706   1.108   .     S
C1664  O1727   1.413   .     S
C1664  H1705   1.109   .     S
C1665  O1731   1.307   .     A
C1665  O1732   1.302   .     A
C1666  O1734   1.366   .     S
C1666  N1714   1.372   .     A
C1667  N1713   1.381   .     A
C1667  O1716   1.385   .     S
C1667  C1056   1.435   1_565 S
C1668  N1714   1.374   .     A
C1668  O1717   1.379   .     S
C1669  N1713   1.373   .     A
C1669  O1718   1.380   .     S
C1669  C1054   1.419   1_565 S
C1670  O1723   1.376   .     S
Cu1671 N1713   2.042   .     S
Cu1671 Cu1672  2.718   .     S
Cu1671 O1730   1.954   .     S
Cu1671 O1732   1.962   .     S
Cu1671 O1728   1.972   .     S
Cu1671 O1715   1.961   .     S
Cu1672 O1731   1.954   .     S
Cu1672 O1733   1.962   .     S
Cu1672 N1714   2.042   .     S
Cu1672 O1726   1.961   .     S
Cu1672 O1729   1.972   .     S
H1681  C739    1.110   1_556 S
H1691  C742    1.109   1_556 S
H1695  C1763   1.111   .     S
C1735  C1753   1.456   .     S
C1735  O1831   1.310   .     A
C1735  O1817   1.297   .     A
C1736  C1752   1.411   .     A
C1736  O1826   1.382   .     S
C1736  C1534   1.402   1_655 S
C1737  C1752   1.402   .     A
C1737  O1827   1.390   .     S
C1737  C1568   1.402   1_655 S
C1738  C1753   1.405   .     A
C1738  O1829   1.388   .     S
C1739  C1750   1.406   .     A
C1739  C1743   1.395   .     A
C1739  O1821   1.384   .     S
C1740  O1822   1.383   .     S
C1740  C1751   1.410   .     A
C1740  C1744   1.392   .     A
C1741  C1745   1.398   .     A
C1741  O1823   1.383   .     S
C1741  C1751   1.409   .     A
C1742  C1747   1.401   .     A
C1742  C1750   1.404   .     A
C1742  O1824   1.391   .     S
C1743  C1748   1.412   .     A
C1743  F1775   1.357   .     S
C1744  F1776   1.353   .     S
C1744  C1749   1.399   .     A
C1745  C1749   1.401   .     A
C1745  F1777   1.357   .     S
C1746  O1828   1.306   .     A
C1746  C1752   1.454   .     S
C1746  O1830   1.299   .     A
C1747  C1748   1.407   .     A
C1747  F1778   1.343   .     S
C1748  C1757   1.486   .     S
C1749  C1767   1.458   .     S
C1751  C832    1.468   1_556 S
C1753  C1772   1.403   .     A
C1754  H1801   1.102   .     S
C1754  H1790   1.105   .     S
C1754  H1779   1.116   .     S
C1754  O1836   1.405   .     S
C1755  H1810   1.109   .     S
C1755  O1818   1.408   .     S
C1755  H1811   1.109   .     S
C1755  H1809   1.105   .     S
C1756  H1813   1.116   .     S
C1756  O1819   1.420   .     S
C1756  H1812   1.107   .     S
C1756  H1814   1.107   .     S
C1757  O1835   1.317   .     A
C1757  O1832   1.306   .     A
C1758  H1782   1.115   .     S
C1758  H1781   1.109   .     S
C1758  H1780   1.104   .     S
C1758  O1820   1.414   .     S
C1759  O1821   1.409   .     S
C1759  H1784   1.115   .     S
C1759  H1785   1.109   .     S
C1760  H1788   1.109   .     S
C1760  H1787   1.115   .     S
C1760  O1822   1.409   .     S
C1760  H868    1.109   1_556 S
C1761  H1789   1.113   .     S
C1761  H1791   1.113   .     S
C1761  H1792   1.109   .     S
C1761  O1823   1.410   .     S
C1762  H1795   1.116   .     S
C1762  H1794   1.110   .     S
C1762  O1824   1.414   .     S
C1763  H1798   1.109   .     S
C1763  O1825   1.413   .     S
C1763  H1796   1.113   .     S
C1764  O1826   1.422   .     S
C1764  H1800   1.108   .     S
C1764  H1799   1.108   .     S
C1764  H1802   1.117   .     S
C1765  H1804   1.110   .     S
C1765  H1805   1.110   .     S
C1765  O1827   1.414   .     S
C1765  H1803   1.115   .     S
C1766  H1806   1.113   .     S
C1766  H1808   1.108   .     S
C1766  O1829   1.413   .     S
C1766  H1807   1.109   .     S
C1767  O1833   1.307   .     A
C1767  O1834   1.302   .     A
C1768  O1836   1.366   .     S
C1768  N1816   1.372   .     A
C1769  N1815   1.381   .     A
C1769  O1818   1.385   .     S
C1769  C1158   1.435   1_565 S
C1770  N1816   1.374   .     A
C1770  O1819   1.379   .     S
C1771  N1815   1.373   .     A
C1771  O1820   1.380   .     S
C1771  C1156   1.419   1_565 S
C1772  O1825   1.376   .     S
Cu1773 N1815   2.042   .     S
Cu1773 Cu1774  2.718   .     S
Cu1773 O1832   1.954   .     S
Cu1773 O1834   1.962   .     S
Cu1773 O1830   1.972   .     S
Cu1773 O1817   1.961   .     S
Cu1774 O1833   1.954   .     S
Cu1774 O1835   1.962   .     S
Cu1774 N1816   2.042   .     S
Cu1774 O1828   1.961   .     S
Cu1774 O1831   1.972   .     S
H1783  C841    1.110   1_556 S
H1793  C844    1.109   1_556 S
H1797  C1559   1.111   1_655 S
