data_str_m2_o2_o10_pcu_sym.13
_audit_creation_date              2020-01-03
_audit_creation_method            'Materials Studio'
_symmetry_space_group_name_H-M    'P1'
_symmetry_Int_Tables_number       1
_symmetry_cell_setting            triclinic
loop_
_symmetry_equiv_pos_as_xyz
  x,y,z
_cell_length_a                    26.2521
_cell_length_b                    30.1426
_cell_length_c                    27.9723
_cell_angle_alpha                 87.6552
_cell_angle_beta                  97.4115
_cell_angle_gamma                 91.9066
loop_
_atom_site_label
_atom_site_type_symbol
_atom_site_fract_x
_atom_site_fract_y
_atom_site_fract_z
_atom_site_U_iso_or_equiv
_atom_site_adp_type
_atom_site_occupancy
C1     C     0.16768   0.16514   0.25101   0.00000  Uiso   1.00
C2     C     0.20451   0.27688   0.44813   0.00000  Uiso   1.00
C3     C     0.16277   0.25142   0.02691   0.00000  Uiso   1.00
C4     C     0.17056   0.24858   0.47308   0.00000  Uiso   1.00
C5     C     0.06815   0.24986   0.23780   0.00000  Uiso   1.00
C6     C     0.26518   0.25014   0.26220   0.00000  Uiso   1.00
C7     C     0.01316   0.24945   0.23099   0.00000  Uiso   1.00
C8     C     0.32018   0.25055   0.26901   0.00000  Uiso   1.00
C9     C     0.13690   0.04660   0.28079   0.00000  Uiso   1.00
C10    C     0.19643   0.45340   0.21921   0.00000  Uiso   1.00
C11    C     0.13567   0.09253   0.27790   0.00000  Uiso   1.00
C12    C     0.16565   0.33487   0.24899   0.00000  Uiso   1.00
C13    C     0.19766   0.40747   0.22210   0.00000  Uiso   1.00
C14    C     0.17133   0.11697   0.25404   0.00000  Uiso   1.00
C15    C     0.16200   0.38303   0.24596   0.00000  Uiso   1.00
C16    C     0.21391   0.09572   0.24008   0.00000  Uiso   1.00
C17    C     0.11942   0.40428   0.25992   0.00000  Uiso   1.00
C18    C     0.21659   0.04897   0.24686   0.00000  Uiso   1.00
C19    C     0.11675   0.45103   0.25314   0.00000  Uiso   1.00
C20    C     0.17146   0.02414   0.25628   0.00000  Uiso   1.00
C21    C     0.16187   0.47586   0.24372   0.00000  Uiso   1.00
C22    C     0.25751   0.12329   0.22223   0.00000  Uiso   1.00
C23    C     0.18594   0.28617   0.05459   0.00000  Uiso   1.00
C24    C     0.07583   0.37671   0.27777   0.00000  Uiso   1.00
C25    C     0.26926   0.02899   0.25826   0.00000  Uiso   1.00
C26    C     0.06407   0.47101   0.24174   0.00000  Uiso   1.00
C27    C     0.22192   0.32071   0.13071   0.00000  Uiso   1.00
C28    C     0.11141   0.17929   0.36929   0.00000  Uiso   1.00
C29    C     0.07835   0.20423   0.02791   0.00000  Uiso   1.00
C30    C     0.25498   0.29577   0.47209   0.00000  Uiso   1.00
C31    C     0.14739   0.21383   0.44541   0.00000  Uiso   1.00
C32    C     0.19147   0.28343   0.10531   0.00000  Uiso   1.00
C33    C     0.14186   0.21657   0.39469   0.00000  Uiso   1.00
C34    C     0.13467   0.22111   0.10303   0.00000  Uiso   1.00
C35    C     0.19866   0.27889   0.39697   0.00000  Uiso   1.00
C36    C     0.12882   0.22312   0.05187   0.00000  Uiso   1.00
Cu37   Cu    0.16667   0.25000   0.29822   0.00000  Uiso   1.00
Cu38   Cu    0.16667   0.25001   0.20178   0.00000  Uiso   1.00
F39    F     0.32282   0.24765   0.18474   0.00000  Uiso   1.00
F40    F     0.01051   0.25235   0.31526   0.00000  Uiso   1.00
F41    F     0.10687   0.02484   0.31055   0.00000  Uiso   1.00
F42    F     0.22646   0.47516   0.18945   0.00000  Uiso   1.00
F43    F     0.19661   0.32587   0.03290   0.00000  Uiso   1.00
F44    F     0.13672   0.17413   0.46710   0.00000  Uiso   1.00
H45    H     0.10649   0.10904   0.29410   0.00000  Uiso   1.00
H46    H     0.04473   0.39701   0.28777   0.00000  Uiso   1.00
H47    H     0.26746   0.49542   0.27585   0.00000  Uiso   1.00
H48    H     0.28854   0.02754   0.22534   0.00000  Uiso   1.00
H49    H     0.29380   0.04974   0.28451   0.00000  Uiso   1.00
H50    H     0.04479   0.47246   0.27466   0.00000  Uiso   1.00
H51    H     0.06588   0.00458   0.22415   0.00000  Uiso   1.00
H52    H     0.03953   0.45026   0.21549   0.00000  Uiso   1.00
H53    H     0.24109   0.31081   0.16652   0.00000  Uiso   1.00
H54    H     0.25360   0.33255   0.11019   0.00000  Uiso   1.00
H55    H     0.19651   0.34903   0.13300   0.00000  Uiso   1.00
H56    H     0.22684   0.39096   0.20590   0.00000  Uiso   1.00
H57    H     0.09224   0.18919   0.33348   0.00000  Uiso   1.00
H58    H     0.13682   0.15097   0.36700   0.00000  Uiso   1.00
H59    H     0.07973   0.16745   0.38981   0.00000  Uiso   1.00
H60    H     0.06797   0.21838   0.49087   0.00000  Uiso   1.00
H61    H     0.07914   0.16742   0.02818   0.00000  Uiso   1.00
H62    H     0.04668   0.21327   0.04817   0.00000  Uiso   1.00
H63    H     0.25419   0.33258   0.47182   0.00000  Uiso   1.00
H64    H     0.26536   0.28162   0.00913   0.00000  Uiso   1.00
H65    H     0.28665   0.28673   0.45183   0.00000  Uiso   1.00
H66    H     0.10994   0.19892   0.12173   0.00000  Uiso   1.00
H67    H     0.22339   0.30108   0.37827   0.00000  Uiso   1.00
H68    H     0.27447   0.14610   0.25059   0.00000  Uiso   1.00
H69    H     0.28861   0.10299   0.21223   0.00000  Uiso   1.00
H70    H     0.24288   0.14308   0.18930   0.00000  Uiso   1.00
H71    H     0.05887   0.35390   0.24941   0.00000  Uiso   1.00
H72    H     0.09045   0.35692   0.31070   0.00000  Uiso   1.00
N73    N     0.16667   0.25001   0.12934   0.00000  Uiso   1.00
N74    N     0.16667   0.24999   0.37066   0.00000  Uiso   1.00
O75    O     0.16667   0.18573   0.29072   0.00000  Uiso   1.00
O76    O     0.16666   0.31428   0.20928   0.00000  Uiso   1.00
O77    O     0.16667   0.18573   0.20928   0.00000  Uiso   1.00
O78    O     0.16666   0.31427   0.29072   0.00000  Uiso   1.00
O79    O     0.09161   0.25000   0.28132   0.00000  Uiso   1.00
O80    O     0.24172   0.25001   0.21868   0.00000  Uiso   1.00
O81    O     0.09161   0.25000   0.19988   0.00000  Uiso   1.00
O82    O     0.24172   0.25000   0.30012   0.00000  Uiso   1.00
C83    C     0.50102   0.16514   0.25101   0.00000  Uiso   1.00
C84    C     0.53784   0.27688   0.44813   0.00000  Uiso   1.00
C85    C     0.49611   0.25142   0.02691   0.00000  Uiso   1.00
C86    C     0.50389   0.24858   0.47308   0.00000  Uiso   1.00
C87    C     0.40149   0.24986   0.23780   0.00000  Uiso   1.00
C88    C     0.59851   0.25014   0.26220   0.00000  Uiso   1.00
C89    C     0.34649   0.24945   0.23099   0.00000  Uiso   1.00
C90    C     0.65351   0.25055   0.26901   0.00000  Uiso   1.00
C91    C     0.47023   0.04660   0.28079   0.00000  Uiso   1.00
C92    C     0.52976   0.45340   0.21921   0.00000  Uiso   1.00
C93    C     0.46900   0.09253   0.27790   0.00000  Uiso   1.00
C94    C     0.49898   0.33487   0.24899   0.00000  Uiso   1.00
C95    C     0.53100   0.40747   0.22210   0.00000  Uiso   1.00
C96    C     0.50466   0.11697   0.25404   0.00000  Uiso   1.00
C97    C     0.49534   0.38303   0.24596   0.00000  Uiso   1.00
C98    C     0.54724   0.09572   0.24008   0.00000  Uiso   1.00
C99    C     0.45275   0.40428   0.25992   0.00000  Uiso   1.00
C100   C     0.54992   0.04897   0.24686   0.00000  Uiso   1.00
C101   C     0.45008   0.45103   0.25314   0.00000  Uiso   1.00
C102   C     0.50479   0.02414   0.25628   0.00000  Uiso   1.00
C103   C     0.49520   0.47586   0.24372   0.00000  Uiso   1.00
C104   C     0.59084   0.12329   0.22223   0.00000  Uiso   1.00
C105   C     0.51928   0.28617   0.05459   0.00000  Uiso   1.00
C106   C     0.40916   0.37671   0.27777   0.00000  Uiso   1.00
C107   C     0.60259   0.02899   0.25826   0.00000  Uiso   1.00
C108   C     0.39741   0.47101   0.24174   0.00000  Uiso   1.00
C109   C     0.55526   0.32071   0.13071   0.00000  Uiso   1.00
C110   C     0.44474   0.17929   0.36929   0.00000  Uiso   1.00
C111   C     0.41169   0.20423   0.02791   0.00000  Uiso   1.00
C112   C     0.58831   0.29577   0.47209   0.00000  Uiso   1.00
C113   C     0.48072   0.21383   0.44541   0.00000  Uiso   1.00
C114   C     0.52481   0.28343   0.10531   0.00000  Uiso   1.00
C115   C     0.47519   0.21657   0.39469   0.00000  Uiso   1.00
C116   C     0.46800   0.22111   0.10303   0.00000  Uiso   1.00
C117   C     0.53200   0.27889   0.39697   0.00000  Uiso   1.00
C118   C     0.46216   0.22312   0.05187   0.00000  Uiso   1.00
Cu119  Cu    0.50000   0.25000   0.29822   0.00000  Uiso   1.00
Cu120  Cu    0.50000   0.25001   0.20178   0.00000  Uiso   1.00
F121   F     0.65616   0.24765   0.18474   0.00000  Uiso   1.00
F122   F     0.34384   0.25235   0.31526   0.00000  Uiso   1.00
F123   F     0.44020   0.02484   0.31055   0.00000  Uiso   1.00
F124   F     0.55979   0.47516   0.18945   0.00000  Uiso   1.00
F125   F     0.52995   0.32587   0.03290   0.00000  Uiso   1.00
F126   F     0.47005   0.17413   0.46710   0.00000  Uiso   1.00
H127   H     0.43982   0.10904   0.29410   0.00000  Uiso   1.00
H128   H     0.37806   0.39701   0.28777   0.00000  Uiso   1.00
H129   H     0.60079   0.49542   0.27585   0.00000  Uiso   1.00
H130   H     0.62188   0.02754   0.22534   0.00000  Uiso   1.00
H131   H     0.62713   0.04974   0.28451   0.00000  Uiso   1.00
H132   H     0.37812   0.47246   0.27466   0.00000  Uiso   1.00
H133   H     0.39921   0.00458   0.22415   0.00000  Uiso   1.00
H134   H     0.37287   0.45026   0.21549   0.00000  Uiso   1.00
H135   H     0.57442   0.31081   0.16652   0.00000  Uiso   1.00
H136   H     0.58694   0.33255   0.11019   0.00000  Uiso   1.00
H137   H     0.52984   0.34903   0.13300   0.00000  Uiso   1.00
H138   H     0.56018   0.39096   0.20590   0.00000  Uiso   1.00
H139   H     0.42558   0.18919   0.33348   0.00000  Uiso   1.00
H140   H     0.47016   0.15097   0.36700   0.00000  Uiso   1.00
H141   H     0.41306   0.16745   0.38981   0.00000  Uiso   1.00
H142   H     0.40131   0.21838   0.49087   0.00000  Uiso   1.00
H143   H     0.41248   0.16742   0.02818   0.00000  Uiso   1.00
H144   H     0.38002   0.21327   0.04817   0.00000  Uiso   1.00
H145   H     0.58752   0.33258   0.47182   0.00000  Uiso   1.00
H146   H     0.59869   0.28162   0.00913   0.00000  Uiso   1.00
H147   H     0.61998   0.28673   0.45183   0.00000  Uiso   1.00
H148   H     0.44327   0.19892   0.12173   0.00000  Uiso   1.00
H149   H     0.55673   0.30108   0.37827   0.00000  Uiso   1.00
H150   H     0.60780   0.14610   0.25059   0.00000  Uiso   1.00
H151   H     0.62194   0.10299   0.21223   0.00000  Uiso   1.00
H152   H     0.57621   0.14308   0.18930   0.00000  Uiso   1.00
H153   H     0.39220   0.35390   0.24941   0.00000  Uiso   1.00
H154   H     0.42379   0.35692   0.31070   0.00000  Uiso   1.00
N155   N     0.50000   0.25001   0.12934   0.00000  Uiso   1.00
N156   N     0.50000   0.24999   0.37066   0.00000  Uiso   1.00
O157   O     0.50000   0.18573   0.29072   0.00000  Uiso   1.00
O158   O     0.50000   0.31428   0.20928   0.00000  Uiso   1.00
O159   O     0.50000   0.18573   0.20928   0.00000  Uiso   1.00
O160   O     0.50000   0.31427   0.29072   0.00000  Uiso   1.00
O161   O     0.42495   0.25000   0.28132   0.00000  Uiso   1.00
O162   O     0.57505   0.25001   0.21868   0.00000  Uiso   1.00
O163   O     0.42495   0.25000   0.19988   0.00000  Uiso   1.00
O164   O     0.57505   0.25000   0.30012   0.00000  Uiso   1.00
C165   C     0.83435   0.16514   0.25101   0.00000  Uiso   1.00
C166   C     0.87118   0.27688   0.44813   0.00000  Uiso   1.00
C167   C     0.82944   0.25142   0.02691   0.00000  Uiso   1.00
C168   C     0.83723   0.24858   0.47308   0.00000  Uiso   1.00
C169   C     0.73482   0.24986   0.23780   0.00000  Uiso   1.00
C170   C     0.93185   0.25014   0.26220   0.00000  Uiso   1.00
C171   C     0.67982   0.24945   0.23099   0.00000  Uiso   1.00
C172   C     0.98684   0.25055   0.26901   0.00000  Uiso   1.00
C173   C     0.80357   0.04660   0.28079   0.00000  Uiso   1.00
C174   C     0.86310   0.45340   0.21921   0.00000  Uiso   1.00
C175   C     0.80234   0.09253   0.27790   0.00000  Uiso   1.00
C176   C     0.83232   0.33487   0.24899   0.00000  Uiso   1.00
C177   C     0.86433   0.40747   0.22210   0.00000  Uiso   1.00
C178   C     0.83800   0.11697   0.25404   0.00000  Uiso   1.00
C179   C     0.82867   0.38303   0.24596   0.00000  Uiso   1.00
C180   C     0.88058   0.09572   0.24008   0.00000  Uiso   1.00
C181   C     0.78609   0.40428   0.25992   0.00000  Uiso   1.00
C182   C     0.88325   0.04897   0.24686   0.00000  Uiso   1.00
C183   C     0.78341   0.45103   0.25314   0.00000  Uiso   1.00
C184   C     0.83813   0.02414   0.25628   0.00000  Uiso   1.00
C185   C     0.82854   0.47586   0.24372   0.00000  Uiso   1.00
C186   C     0.92417   0.12329   0.22223   0.00000  Uiso   1.00
C187   C     0.85261   0.28617   0.05459   0.00000  Uiso   1.00
C188   C     0.74249   0.37671   0.27777   0.00000  Uiso   1.00
C189   C     0.93592   0.02899   0.25826   0.00000  Uiso   1.00
C190   C     0.73074   0.47101   0.24174   0.00000  Uiso   1.00
C191   C     0.88859   0.32071   0.13071   0.00000  Uiso   1.00
C192   C     0.77808   0.17929   0.36929   0.00000  Uiso   1.00
C193   C     0.74502   0.20423   0.02791   0.00000  Uiso   1.00
C194   C     0.92165   0.29577   0.47209   0.00000  Uiso   1.00
C195   C     0.81406   0.21383   0.44541   0.00000  Uiso   1.00
C196   C     0.85814   0.28343   0.10531   0.00000  Uiso   1.00
C197   C     0.80853   0.21657   0.39469   0.00000  Uiso   1.00
C198   C     0.80134   0.22111   0.10303   0.00000  Uiso   1.00
C199   C     0.86533   0.27889   0.39697   0.00000  Uiso   1.00
C200   C     0.79549   0.22312   0.05187   0.00000  Uiso   1.00
Cu201  Cu    0.83333   0.25000   0.29822   0.00000  Uiso   1.00
Cu202  Cu    0.83333   0.25001   0.20178   0.00000  Uiso   1.00
F203   F     0.98949   0.24765   0.18474   0.00000  Uiso   1.00
F204   F     0.67718   0.25235   0.31526   0.00000  Uiso   1.00
F205   F     0.77354   0.02484   0.31055   0.00000  Uiso   1.00
F206   F     0.89313   0.47516   0.18945   0.00000  Uiso   1.00
F207   F     0.86328   0.32587   0.03290   0.00000  Uiso   1.00
F208   F     0.80339   0.17413   0.46710   0.00000  Uiso   1.00
H209   H     0.77316   0.10904   0.29410   0.00000  Uiso   1.00
H210   H     0.71139   0.39701   0.28777   0.00000  Uiso   1.00
H211   H     0.93412   0.49542   0.27585   0.00000  Uiso   1.00
H212   H     0.95521   0.02754   0.22534   0.00000  Uiso   1.00
H213   H     0.96046   0.04974   0.28451   0.00000  Uiso   1.00
H214   H     0.71146   0.47246   0.27466   0.00000  Uiso   1.00
H215   H     0.73254   0.00458   0.22415   0.00000  Uiso   1.00
H216   H     0.70620   0.45026   0.21549   0.00000  Uiso   1.00
H217   H     0.90776   0.31081   0.16652   0.00000  Uiso   1.00
H218   H     0.92027   0.33255   0.11019   0.00000  Uiso   1.00
H219   H     0.86318   0.34903   0.13300   0.00000  Uiso   1.00
H220   H     0.89351   0.39096   0.20590   0.00000  Uiso   1.00
H221   H     0.75891   0.18919   0.33348   0.00000  Uiso   1.00
H222   H     0.80349   0.15097   0.36700   0.00000  Uiso   1.00
H223   H     0.74640   0.16745   0.38981   0.00000  Uiso   1.00
H224   H     0.73464   0.21838   0.49087   0.00000  Uiso   1.00
H225   H     0.74581   0.16742   0.02818   0.00000  Uiso   1.00
H226   H     0.71335   0.21327   0.04817   0.00000  Uiso   1.00
H227   H     0.92086   0.33258   0.47182   0.00000  Uiso   1.00
H228   H     0.93203   0.28162   0.00913   0.00000  Uiso   1.00
H229   H     0.95332   0.28673   0.45183   0.00000  Uiso   1.00
H230   H     0.77661   0.19892   0.12173   0.00000  Uiso   1.00
H231   H     0.89006   0.30108   0.37827   0.00000  Uiso   1.00
H232   H     0.94113   0.14610   0.25059   0.00000  Uiso   1.00
H233   H     0.95527   0.10299   0.21223   0.00000  Uiso   1.00
H234   H     0.90955   0.14308   0.18930   0.00000  Uiso   1.00
H235   H     0.72553   0.35390   0.24941   0.00000  Uiso   1.00
H236   H     0.75712   0.35692   0.31070   0.00000  Uiso   1.00
N237   N     0.83333   0.25001   0.12934   0.00000  Uiso   1.00
N238   N     0.83333   0.24999   0.37066   0.00000  Uiso   1.00
O239   O     0.83334   0.18573   0.29072   0.00000  Uiso   1.00
O240   O     0.83333   0.31428   0.20928   0.00000  Uiso   1.00
O241   O     0.83334   0.18573   0.20928   0.00000  Uiso   1.00
O242   O     0.83333   0.31427   0.29072   0.00000  Uiso   1.00
O243   O     0.75828   0.25000   0.28132   0.00000  Uiso   1.00
O244   O     0.90839   0.25001   0.21868   0.00000  Uiso   1.00
O245   O     0.75828   0.25000   0.19988   0.00000  Uiso   1.00
O246   O     0.90839   0.25000   0.30012   0.00000  Uiso   1.00
C247   C     0.16768   0.66514   0.25101   0.00000  Uiso   1.00
C248   C     0.20451   0.77688   0.44813   0.00000  Uiso   1.00
C249   C     0.16277   0.75142   0.02691   0.00000  Uiso   1.00
C250   C     0.17056   0.74858   0.47308   0.00000  Uiso   1.00
C251   C     0.06815   0.74986   0.23780   0.00000  Uiso   1.00
C252   C     0.26518   0.75014   0.26220   0.00000  Uiso   1.00
C253   C     0.01316   0.74945   0.23099   0.00000  Uiso   1.00
C254   C     0.32018   0.75055   0.26901   0.00000  Uiso   1.00
C255   C     0.13690   0.54660   0.28079   0.00000  Uiso   1.00
C256   C     0.19643   0.95340   0.21921   0.00000  Uiso   1.00
C257   C     0.13567   0.59253   0.27790   0.00000  Uiso   1.00
C258   C     0.16565   0.83487   0.24899   0.00000  Uiso   1.00
C259   C     0.19766   0.90747   0.22210   0.00000  Uiso   1.00
C260   C     0.17133   0.61697   0.25404   0.00000  Uiso   1.00
C261   C     0.16200   0.88303   0.24596   0.00000  Uiso   1.00
C262   C     0.21391   0.59572   0.24008   0.00000  Uiso   1.00
C263   C     0.11942   0.90428   0.25992   0.00000  Uiso   1.00
C264   C     0.21659   0.54897   0.24686   0.00000  Uiso   1.00
C265   C     0.11675   0.95103   0.25314   0.00000  Uiso   1.00
C266   C     0.17146   0.52414   0.25628   0.00000  Uiso   1.00
C267   C     0.16187   0.97586   0.24372   0.00000  Uiso   1.00
C268   C     0.25751   0.62329   0.22223   0.00000  Uiso   1.00
C269   C     0.18594   0.78617   0.05459   0.00000  Uiso   1.00
C270   C     0.07583   0.87671   0.27777   0.00000  Uiso   1.00
C271   C     0.26926   0.52899   0.25826   0.00000  Uiso   1.00
C272   C     0.06407   0.97101   0.24174   0.00000  Uiso   1.00
C273   C     0.22192   0.82071   0.13071   0.00000  Uiso   1.00
C274   C     0.11141   0.67929   0.36929   0.00000  Uiso   1.00
C275   C     0.07835   0.70423   0.02791   0.00000  Uiso   1.00
C276   C     0.25498   0.79577   0.47209   0.00000  Uiso   1.00
C277   C     0.14739   0.71383   0.44541   0.00000  Uiso   1.00
C278   C     0.19147   0.78343   0.10531   0.00000  Uiso   1.00
C279   C     0.14186   0.71657   0.39469   0.00000  Uiso   1.00
C280   C     0.13467   0.72111   0.10303   0.00000  Uiso   1.00
C281   C     0.19866   0.77889   0.39697   0.00000  Uiso   1.00
C282   C     0.12882   0.72312   0.05187   0.00000  Uiso   1.00
Cu283  Cu    0.16667   0.75000   0.29822   0.00000  Uiso   1.00
Cu284  Cu    0.16667   0.75001   0.20178   0.00000  Uiso   1.00
F285   F     0.32282   0.74765   0.18474   0.00000  Uiso   1.00
F286   F     0.01051   0.75235   0.31526   0.00000  Uiso   1.00
F287   F     0.10687   0.52484   0.31055   0.00000  Uiso   1.00
F288   F     0.22646   0.97516   0.18945   0.00000  Uiso   1.00
F289   F     0.19661   0.82587   0.03290   0.00000  Uiso   1.00
F290   F     0.13672   0.67413   0.46710   0.00000  Uiso   1.00
H291   H     0.10649   0.60904   0.29410   0.00000  Uiso   1.00
H292   H     0.04473   0.89701   0.28777   0.00000  Uiso   1.00
H293   H     0.26746   0.99542   0.27585   0.00000  Uiso   1.00
H294   H     0.28854   0.52754   0.22534   0.00000  Uiso   1.00
H295   H     0.29380   0.54974   0.28451   0.00000  Uiso   1.00
H296   H     0.04479   0.97246   0.27466   0.00000  Uiso   1.00
H297   H     0.06588   0.50458   0.22415   0.00000  Uiso   1.00
H298   H     0.03953   0.95026   0.21549   0.00000  Uiso   1.00
H299   H     0.24109   0.81081   0.16652   0.00000  Uiso   1.00
H300   H     0.25360   0.83255   0.11019   0.00000  Uiso   1.00
H301   H     0.19651   0.84903   0.13300   0.00000  Uiso   1.00
H302   H     0.22684   0.89096   0.20590   0.00000  Uiso   1.00
H303   H     0.09224   0.68919   0.33348   0.00000  Uiso   1.00
H304   H     0.13682   0.65097   0.36700   0.00000  Uiso   1.00
H305   H     0.07973   0.66745   0.38981   0.00000  Uiso   1.00
H306   H     0.06797   0.71838   0.49087   0.00000  Uiso   1.00
H307   H     0.07914   0.66742   0.02818   0.00000  Uiso   1.00
H308   H     0.04668   0.71327   0.04817   0.00000  Uiso   1.00
H309   H     0.25419   0.83258   0.47182   0.00000  Uiso   1.00
H310   H     0.26536   0.78162   0.00913   0.00000  Uiso   1.00
H311   H     0.28665   0.78673   0.45183   0.00000  Uiso   1.00
H312   H     0.10994   0.69892   0.12173   0.00000  Uiso   1.00
H313   H     0.22339   0.80108   0.37827   0.00000  Uiso   1.00
H314   H     0.27447   0.64610   0.25059   0.00000  Uiso   1.00
H315   H     0.28861   0.60299   0.21223   0.00000  Uiso   1.00
H316   H     0.24288   0.64308   0.18930   0.00000  Uiso   1.00
H317   H     0.05887   0.85390   0.24941   0.00000  Uiso   1.00
H318   H     0.09045   0.85692   0.31070   0.00000  Uiso   1.00
N319   N     0.16667   0.75001   0.12934   0.00000  Uiso   1.00
N320   N     0.16667   0.74999   0.37066   0.00000  Uiso   1.00
O321   O     0.16667   0.68573   0.29072   0.00000  Uiso   1.00
O322   O     0.16666   0.81428   0.20928   0.00000  Uiso   1.00
O323   O     0.16667   0.68573   0.20928   0.00000  Uiso   1.00
O324   O     0.16666   0.81427   0.29072   0.00000  Uiso   1.00
O325   O     0.09161   0.75000   0.28132   0.00000  Uiso   1.00
O326   O     0.24172   0.75001   0.21868   0.00000  Uiso   1.00
O327   O     0.09161   0.75000   0.19988   0.00000  Uiso   1.00
O328   O     0.24172   0.75000   0.30012   0.00000  Uiso   1.00
C329   C     0.50102   0.66514   0.25101   0.00000  Uiso   1.00
C330   C     0.53784   0.77688   0.44813   0.00000  Uiso   1.00
C331   C     0.49611   0.75142   0.02691   0.00000  Uiso   1.00
C332   C     0.50389   0.74858   0.47308   0.00000  Uiso   1.00
C333   C     0.40149   0.74986   0.23780   0.00000  Uiso   1.00
C334   C     0.59851   0.75014   0.26220   0.00000  Uiso   1.00
C335   C     0.34649   0.74945   0.23099   0.00000  Uiso   1.00
C336   C     0.65351   0.75055   0.26901   0.00000  Uiso   1.00
C337   C     0.47023   0.54660   0.28079   0.00000  Uiso   1.00
C338   C     0.52976   0.95340   0.21921   0.00000  Uiso   1.00
C339   C     0.46900   0.59253   0.27790   0.00000  Uiso   1.00
C340   C     0.49898   0.83487   0.24899   0.00000  Uiso   1.00
C341   C     0.53100   0.90747   0.22210   0.00000  Uiso   1.00
C342   C     0.50466   0.61697   0.25404   0.00000  Uiso   1.00
C343   C     0.49534   0.88303   0.24596   0.00000  Uiso   1.00
C344   C     0.54724   0.59572   0.24008   0.00000  Uiso   1.00
C345   C     0.45275   0.90428   0.25992   0.00000  Uiso   1.00
C346   C     0.54992   0.54897   0.24686   0.00000  Uiso   1.00
C347   C     0.45008   0.95103   0.25314   0.00000  Uiso   1.00
C348   C     0.50479   0.52414   0.25628   0.00000  Uiso   1.00
C349   C     0.49520   0.97586   0.24372   0.00000  Uiso   1.00
C350   C     0.59084   0.62329   0.22223   0.00000  Uiso   1.00
C351   C     0.51928   0.78617   0.05459   0.00000  Uiso   1.00
C352   C     0.40916   0.87671   0.27777   0.00000  Uiso   1.00
C353   C     0.60259   0.52899   0.25826   0.00000  Uiso   1.00
C354   C     0.39741   0.97101   0.24174   0.00000  Uiso   1.00
C355   C     0.55526   0.82071   0.13071   0.00000  Uiso   1.00
C356   C     0.44474   0.67929   0.36929   0.00000  Uiso   1.00
C357   C     0.41169   0.70423   0.02791   0.00000  Uiso   1.00
C358   C     0.58831   0.79577   0.47209   0.00000  Uiso   1.00
C359   C     0.48072   0.71383   0.44541   0.00000  Uiso   1.00
C360   C     0.52481   0.78343   0.10531   0.00000  Uiso   1.00
C361   C     0.47519   0.71657   0.39469   0.00000  Uiso   1.00
C362   C     0.46800   0.72111   0.10303   0.00000  Uiso   1.00
C363   C     0.53200   0.77889   0.39697   0.00000  Uiso   1.00
C364   C     0.46216   0.72312   0.05187   0.00000  Uiso   1.00
Cu365  Cu    0.50000   0.75000   0.29822   0.00000  Uiso   1.00
Cu366  Cu    0.50000   0.75001   0.20178   0.00000  Uiso   1.00
F367   F     0.65616   0.74765   0.18474   0.00000  Uiso   1.00
F368   F     0.34384   0.75235   0.31526   0.00000  Uiso   1.00
F369   F     0.44020   0.52484   0.31055   0.00000  Uiso   1.00
F370   F     0.55979   0.97516   0.18945   0.00000  Uiso   1.00
F371   F     0.52995   0.82587   0.03290   0.00000  Uiso   1.00
F372   F     0.47005   0.67413   0.46710   0.00000  Uiso   1.00
H373   H     0.43982   0.60904   0.29410   0.00000  Uiso   1.00
H374   H     0.37806   0.89701   0.28777   0.00000  Uiso   1.00
H375   H     0.60079   0.99542   0.27585   0.00000  Uiso   1.00
H376   H     0.62188   0.52754   0.22534   0.00000  Uiso   1.00
H377   H     0.62713   0.54974   0.28451   0.00000  Uiso   1.00
H378   H     0.37812   0.97246   0.27466   0.00000  Uiso   1.00
H379   H     0.39921   0.50458   0.22415   0.00000  Uiso   1.00
H380   H     0.37287   0.95026   0.21549   0.00000  Uiso   1.00
H381   H     0.57442   0.81081   0.16652   0.00000  Uiso   1.00
H382   H     0.58694   0.83255   0.11019   0.00000  Uiso   1.00
H383   H     0.52984   0.84903   0.13300   0.00000  Uiso   1.00
H384   H     0.56018   0.89096   0.20590   0.00000  Uiso   1.00
H385   H     0.42558   0.68919   0.33348   0.00000  Uiso   1.00
H386   H     0.47016   0.65097   0.36700   0.00000  Uiso   1.00
H387   H     0.41306   0.66745   0.38981   0.00000  Uiso   1.00
H388   H     0.40131   0.71838   0.49087   0.00000  Uiso   1.00
H389   H     0.41248   0.66742   0.02818   0.00000  Uiso   1.00
H390   H     0.38002   0.71327   0.04817   0.00000  Uiso   1.00
H391   H     0.58752   0.83258   0.47182   0.00000  Uiso   1.00
H392   H     0.59869   0.78162   0.00913   0.00000  Uiso   1.00
H393   H     0.61998   0.78673   0.45183   0.00000  Uiso   1.00
H394   H     0.44327   0.69892   0.12173   0.00000  Uiso   1.00
H395   H     0.55673   0.80108   0.37827   0.00000  Uiso   1.00
H396   H     0.60780   0.64610   0.25059   0.00000  Uiso   1.00
H397   H     0.62194   0.60299   0.21223   0.00000  Uiso   1.00
H398   H     0.57621   0.64308   0.18930   0.00000  Uiso   1.00
H399   H     0.39220   0.85390   0.24941   0.00000  Uiso   1.00
H400   H     0.42379   0.85692   0.31070   0.00000  Uiso   1.00
N401   N     0.50000   0.75001   0.12934   0.00000  Uiso   1.00
N402   N     0.50000   0.74999   0.37066   0.00000  Uiso   1.00
O403   O     0.50000   0.68573   0.29072   0.00000  Uiso   1.00
O404   O     0.50000   0.81428   0.20928   0.00000  Uiso   1.00
O405   O     0.50000   0.68573   0.20928   0.00000  Uiso   1.00
O406   O     0.50000   0.81427   0.29072   0.00000  Uiso   1.00
O407   O     0.42495   0.75000   0.28132   0.00000  Uiso   1.00
O408   O     0.57505   0.75001   0.21868   0.00000  Uiso   1.00
O409   O     0.42495   0.75000   0.19988   0.00000  Uiso   1.00
O410   O     0.57505   0.75000   0.30012   0.00000  Uiso   1.00
C411   C     0.83435   0.66514   0.25101   0.00000  Uiso   1.00
C412   C     0.87118   0.77688   0.44813   0.00000  Uiso   1.00
C413   C     0.82944   0.75142   0.02691   0.00000  Uiso   1.00
C414   C     0.83723   0.74858   0.47308   0.00000  Uiso   1.00
C415   C     0.73482   0.74986   0.23780   0.00000  Uiso   1.00
C416   C     0.93185   0.75014   0.26220   0.00000  Uiso   1.00
C417   C     0.67982   0.74945   0.23099   0.00000  Uiso   1.00
C418   C     0.98684   0.75055   0.26901   0.00000  Uiso   1.00
C419   C     0.80357   0.54660   0.28079   0.00000  Uiso   1.00
C420   C     0.86310   0.95340   0.21921   0.00000  Uiso   1.00
C421   C     0.80234   0.59253   0.27790   0.00000  Uiso   1.00
C422   C     0.83232   0.83487   0.24899   0.00000  Uiso   1.00
C423   C     0.86433   0.90747   0.22210   0.00000  Uiso   1.00
C424   C     0.83800   0.61697   0.25404   0.00000  Uiso   1.00
C425   C     0.82867   0.88303   0.24596   0.00000  Uiso   1.00
C426   C     0.88058   0.59572   0.24008   0.00000  Uiso   1.00
C427   C     0.78609   0.90428   0.25992   0.00000  Uiso   1.00
C428   C     0.88325   0.54897   0.24686   0.00000  Uiso   1.00
C429   C     0.78341   0.95103   0.25314   0.00000  Uiso   1.00
C430   C     0.83813   0.52414   0.25628   0.00000  Uiso   1.00
C431   C     0.82854   0.97586   0.24372   0.00000  Uiso   1.00
C432   C     0.92417   0.62329   0.22223   0.00000  Uiso   1.00
C433   C     0.85261   0.78617   0.05459   0.00000  Uiso   1.00
C434   C     0.74249   0.87671   0.27777   0.00000  Uiso   1.00
C435   C     0.93592   0.52899   0.25826   0.00000  Uiso   1.00
C436   C     0.73074   0.97101   0.24174   0.00000  Uiso   1.00
C437   C     0.88859   0.82071   0.13071   0.00000  Uiso   1.00
C438   C     0.77808   0.67929   0.36929   0.00000  Uiso   1.00
C439   C     0.74502   0.70423   0.02791   0.00000  Uiso   1.00
C440   C     0.92165   0.79577   0.47209   0.00000  Uiso   1.00
C441   C     0.81406   0.71383   0.44541   0.00000  Uiso   1.00
C442   C     0.85814   0.78343   0.10531   0.00000  Uiso   1.00
C443   C     0.80853   0.71657   0.39469   0.00000  Uiso   1.00
C444   C     0.80134   0.72111   0.10303   0.00000  Uiso   1.00
C445   C     0.86533   0.77889   0.39697   0.00000  Uiso   1.00
C446   C     0.79549   0.72312   0.05187   0.00000  Uiso   1.00
Cu447  Cu    0.83333   0.75000   0.29822   0.00000  Uiso   1.00
Cu448  Cu    0.83333   0.75001   0.20178   0.00000  Uiso   1.00
F449   F     0.98949   0.74765   0.18474   0.00000  Uiso   1.00
F450   F     0.67718   0.75235   0.31526   0.00000  Uiso   1.00
F451   F     0.77354   0.52484   0.31055   0.00000  Uiso   1.00
F452   F     0.89313   0.97516   0.18945   0.00000  Uiso   1.00
F453   F     0.86328   0.82587   0.03290   0.00000  Uiso   1.00
F454   F     0.80339   0.67413   0.46710   0.00000  Uiso   1.00
H455   H     0.77316   0.60904   0.29410   0.00000  Uiso   1.00
H456   H     0.71139   0.89701   0.28777   0.00000  Uiso   1.00
H457   H     0.93412   0.99542   0.27585   0.00000  Uiso   1.00
H458   H     0.95521   0.52754   0.22534   0.00000  Uiso   1.00
H459   H     0.96046   0.54974   0.28451   0.00000  Uiso   1.00
H460   H     0.71146   0.97246   0.27466   0.00000  Uiso   1.00
H461   H     0.73254   0.50458   0.22415   0.00000  Uiso   1.00
H462   H     0.70620   0.95026   0.21549   0.00000  Uiso   1.00
H463   H     0.90776   0.81081   0.16652   0.00000  Uiso   1.00
H464   H     0.92027   0.83255   0.11019   0.00000  Uiso   1.00
H465   H     0.86318   0.84903   0.13300   0.00000  Uiso   1.00
H466   H     0.89351   0.89096   0.20590   0.00000  Uiso   1.00
H467   H     0.75891   0.68919   0.33348   0.00000  Uiso   1.00
H468   H     0.80349   0.65097   0.36700   0.00000  Uiso   1.00
H469   H     0.74640   0.66745   0.38981   0.00000  Uiso   1.00
H470   H     0.73464   0.71838   0.49087   0.00000  Uiso   1.00
H471   H     0.74581   0.66742   0.02818   0.00000  Uiso   1.00
H472   H     0.71335   0.71327   0.04817   0.00000  Uiso   1.00
H473   H     0.92086   0.83258   0.47182   0.00000  Uiso   1.00
H474   H     0.93203   0.78162   0.00913   0.00000  Uiso   1.00
H475   H     0.95332   0.78673   0.45183   0.00000  Uiso   1.00
H476   H     0.77661   0.69892   0.12173   0.00000  Uiso   1.00
H477   H     0.89006   0.80108   0.37827   0.00000  Uiso   1.00
H478   H     0.94113   0.64610   0.25059   0.00000  Uiso   1.00
H479   H     0.95527   0.60299   0.21223   0.00000  Uiso   1.00
H480   H     0.90955   0.64308   0.18930   0.00000  Uiso   1.00
H481   H     0.72553   0.85390   0.24941   0.00000  Uiso   1.00
H482   H     0.75712   0.85692   0.31070   0.00000  Uiso   1.00
N483   N     0.83333   0.75001   0.12934   0.00000  Uiso   1.00
N484   N     0.83333   0.74999   0.37066   0.00000  Uiso   1.00
O485   O     0.83334   0.68573   0.29072   0.00000  Uiso   1.00
O486   O     0.83333   0.81428   0.20928   0.00000  Uiso   1.00
O487   O     0.83334   0.68573   0.20928   0.00000  Uiso   1.00
O488   O     0.83333   0.81427   0.29072   0.00000  Uiso   1.00
O489   O     0.75828   0.75000   0.28132   0.00000  Uiso   1.00
O490   O     0.90839   0.75001   0.21868   0.00000  Uiso   1.00
O491   O     0.75828   0.75000   0.19988   0.00000  Uiso   1.00
O492   O     0.90839   0.75000   0.30012   0.00000  Uiso   1.00
C493   C     0.16768   0.16514   0.75101   0.00000  Uiso   1.00
C494   C     0.20451   0.27688   0.94813   0.00000  Uiso   1.00
C495   C     0.16277   0.25142   0.52691   0.00000  Uiso   1.00
C496   C     0.17056   0.24858   0.97308   0.00000  Uiso   1.00
C497   C     0.06815   0.24986   0.73780   0.00000  Uiso   1.00
C498   C     0.26518   0.25014   0.76220   0.00000  Uiso   1.00
C499   C     0.01316   0.24945   0.73099   0.00000  Uiso   1.00
C500   C     0.32018   0.25055   0.76901   0.00000  Uiso   1.00
C501   C     0.13690   0.04660   0.78079   0.00000  Uiso   1.00
C502   C     0.19643   0.45340   0.71921   0.00000  Uiso   1.00
C503   C     0.13567   0.09253   0.77790   0.00000  Uiso   1.00
C504   C     0.16565   0.33487   0.74899   0.00000  Uiso   1.00
C505   C     0.19766   0.40747   0.72210   0.00000  Uiso   1.00
C506   C     0.17133   0.11697   0.75404   0.00000  Uiso   1.00
C507   C     0.16200   0.38303   0.74596   0.00000  Uiso   1.00
C508   C     0.21391   0.09572   0.74008   0.00000  Uiso   1.00
C509   C     0.11942   0.40428   0.75992   0.00000  Uiso   1.00
C510   C     0.21659   0.04897   0.74686   0.00000  Uiso   1.00
C511   C     0.11675   0.45103   0.75314   0.00000  Uiso   1.00
C512   C     0.17146   0.02414   0.75628   0.00000  Uiso   1.00
C513   C     0.16187   0.47586   0.74372   0.00000  Uiso   1.00
C514   C     0.25751   0.12329   0.72223   0.00000  Uiso   1.00
C515   C     0.18594   0.28617   0.55459   0.00000  Uiso   1.00
C516   C     0.07583   0.37671   0.77777   0.00000  Uiso   1.00
C517   C     0.26926   0.02899   0.75826   0.00000  Uiso   1.00
C518   C     0.06407   0.47101   0.74174   0.00000  Uiso   1.00
C519   C     0.22192   0.32071   0.63071   0.00000  Uiso   1.00
C520   C     0.11141   0.17929   0.86929   0.00000  Uiso   1.00
C521   C     0.07835   0.20423   0.52791   0.00000  Uiso   1.00
C522   C     0.25498   0.29577   0.97209   0.00000  Uiso   1.00
C523   C     0.14739   0.21383   0.94541   0.00000  Uiso   1.00
C524   C     0.19147   0.28343   0.60531   0.00000  Uiso   1.00
C525   C     0.14186   0.21657   0.89469   0.00000  Uiso   1.00
C526   C     0.13467   0.22111   0.60303   0.00000  Uiso   1.00
C527   C     0.19866   0.27889   0.89697   0.00000  Uiso   1.00
C528   C     0.12882   0.22312   0.55187   0.00000  Uiso   1.00
Cu529  Cu    0.16667   0.25000   0.79822   0.00000  Uiso   1.00
Cu530  Cu    0.16667   0.25001   0.70178   0.00000  Uiso   1.00
F531   F     0.32282   0.24765   0.68474   0.00000  Uiso   1.00
F532   F     0.01051   0.25235   0.81526   0.00000  Uiso   1.00
F533   F     0.10687   0.02484   0.81055   0.00000  Uiso   1.00
F534   F     0.22646   0.47516   0.68945   0.00000  Uiso   1.00
F535   F     0.19661   0.32587   0.53290   0.00000  Uiso   1.00
F536   F     0.13672   0.17413   0.96710   0.00000  Uiso   1.00
H537   H     0.10649   0.10904   0.79410   0.00000  Uiso   1.00
H538   H     0.04473   0.39701   0.78777   0.00000  Uiso   1.00
H539   H     0.26746   0.49542   0.77585   0.00000  Uiso   1.00
H540   H     0.28854   0.02754   0.72534   0.00000  Uiso   1.00
H541   H     0.29380   0.04974   0.78451   0.00000  Uiso   1.00
H542   H     0.04479   0.47246   0.77466   0.00000  Uiso   1.00
H543   H     0.06588   0.00458   0.72415   0.00000  Uiso   1.00
H544   H     0.03953   0.45026   0.71549   0.00000  Uiso   1.00
H545   H     0.24109   0.31081   0.66652   0.00000  Uiso   1.00
H546   H     0.25360   0.33255   0.61019   0.00000  Uiso   1.00
H547   H     0.19651   0.34903   0.63300   0.00000  Uiso   1.00
H548   H     0.22684   0.39096   0.70590   0.00000  Uiso   1.00
H549   H     0.09224   0.18919   0.83348   0.00000  Uiso   1.00
H550   H     0.13682   0.15097   0.86700   0.00000  Uiso   1.00
H551   H     0.07973   0.16745   0.88981   0.00000  Uiso   1.00
H552   H     0.06797   0.21838   0.99087   0.00000  Uiso   1.00
H553   H     0.07914   0.16742   0.52818   0.00000  Uiso   1.00
H554   H     0.04668   0.21327   0.54817   0.00000  Uiso   1.00
H555   H     0.25419   0.33258   0.97182   0.00000  Uiso   1.00
H556   H     0.26536   0.28162   0.50913   0.00000  Uiso   1.00
H557   H     0.28665   0.28673   0.95183   0.00000  Uiso   1.00
H558   H     0.10994   0.19892   0.62173   0.00000  Uiso   1.00
H559   H     0.22339   0.30108   0.87827   0.00000  Uiso   1.00
H560   H     0.27447   0.14610   0.75059   0.00000  Uiso   1.00
H561   H     0.28861   0.10299   0.71223   0.00000  Uiso   1.00
H562   H     0.24288   0.14308   0.68930   0.00000  Uiso   1.00
H563   H     0.05887   0.35390   0.74941   0.00000  Uiso   1.00
H564   H     0.09045   0.35692   0.81070   0.00000  Uiso   1.00
N565   N     0.16667   0.25001   0.62934   0.00000  Uiso   1.00
N566   N     0.16667   0.24999   0.87066   0.00000  Uiso   1.00
O567   O     0.16667   0.18573   0.79072   0.00000  Uiso   1.00
O568   O     0.16666   0.31428   0.70928   0.00000  Uiso   1.00
O569   O     0.16667   0.18573   0.70928   0.00000  Uiso   1.00
O570   O     0.16666   0.31427   0.79072   0.00000  Uiso   1.00
O571   O     0.09161   0.25000   0.78132   0.00000  Uiso   1.00
O572   O     0.24172   0.25001   0.71868   0.00000  Uiso   1.00
O573   O     0.09161   0.25000   0.69988   0.00000  Uiso   1.00
O574   O     0.24172   0.25000   0.80012   0.00000  Uiso   1.00
C575   C     0.50102   0.16514   0.75101   0.00000  Uiso   1.00
C576   C     0.53784   0.27688   0.94813   0.00000  Uiso   1.00
C577   C     0.49611   0.25142   0.52691   0.00000  Uiso   1.00
C578   C     0.50389   0.24858   0.97308   0.00000  Uiso   1.00
C579   C     0.40149   0.24986   0.73780   0.00000  Uiso   1.00
C580   C     0.59851   0.25014   0.76220   0.00000  Uiso   1.00
C581   C     0.34649   0.24945   0.73099   0.00000  Uiso   1.00
C582   C     0.65351   0.25055   0.76901   0.00000  Uiso   1.00
C583   C     0.47023   0.04660   0.78079   0.00000  Uiso   1.00
C584   C     0.52976   0.45340   0.71921   0.00000  Uiso   1.00
C585   C     0.46900   0.09253   0.77790   0.00000  Uiso   1.00
C586   C     0.49898   0.33487   0.74899   0.00000  Uiso   1.00
C587   C     0.53100   0.40747   0.72210   0.00000  Uiso   1.00
C588   C     0.50466   0.11697   0.75404   0.00000  Uiso   1.00
C589   C     0.49534   0.38303   0.74596   0.00000  Uiso   1.00
C590   C     0.54724   0.09572   0.74008   0.00000  Uiso   1.00
C591   C     0.45275   0.40428   0.75992   0.00000  Uiso   1.00
C592   C     0.54992   0.04897   0.74686   0.00000  Uiso   1.00
C593   C     0.45008   0.45103   0.75314   0.00000  Uiso   1.00
C594   C     0.50479   0.02414   0.75628   0.00000  Uiso   1.00
C595   C     0.49520   0.47586   0.74372   0.00000  Uiso   1.00
C596   C     0.59084   0.12329   0.72223   0.00000  Uiso   1.00
C597   C     0.51928   0.28617   0.55459   0.00000  Uiso   1.00
C598   C     0.40916   0.37671   0.77777   0.00000  Uiso   1.00
C599   C     0.60259   0.02899   0.75826   0.00000  Uiso   1.00
C600   C     0.39741   0.47101   0.74174   0.00000  Uiso   1.00
C601   C     0.55526   0.32071   0.63071   0.00000  Uiso   1.00
C602   C     0.44474   0.17929   0.86929   0.00000  Uiso   1.00
C603   C     0.41169   0.20423   0.52791   0.00000  Uiso   1.00
C604   C     0.58831   0.29577   0.97209   0.00000  Uiso   1.00
C605   C     0.48072   0.21383   0.94541   0.00000  Uiso   1.00
C606   C     0.52481   0.28343   0.60531   0.00000  Uiso   1.00
C607   C     0.47519   0.21657   0.89469   0.00000  Uiso   1.00
C608   C     0.46800   0.22111   0.60303   0.00000  Uiso   1.00
C609   C     0.53200   0.27889   0.89697   0.00000  Uiso   1.00
C610   C     0.46216   0.22312   0.55187   0.00000  Uiso   1.00
Cu611  Cu    0.50000   0.25000   0.79822   0.00000  Uiso   1.00
Cu612  Cu    0.50000   0.25001   0.70178   0.00000  Uiso   1.00
F613   F     0.65616   0.24765   0.68474   0.00000  Uiso   1.00
F614   F     0.34384   0.25235   0.81526   0.00000  Uiso   1.00
F615   F     0.44020   0.02484   0.81055   0.00000  Uiso   1.00
F616   F     0.55979   0.47516   0.68945   0.00000  Uiso   1.00
F617   F     0.52995   0.32587   0.53290   0.00000  Uiso   1.00
F618   F     0.47005   0.17413   0.96710   0.00000  Uiso   1.00
H619   H     0.43982   0.10904   0.79410   0.00000  Uiso   1.00
H620   H     0.37806   0.39701   0.78777   0.00000  Uiso   1.00
H621   H     0.60079   0.49542   0.77585   0.00000  Uiso   1.00
H622   H     0.62188   0.02754   0.72534   0.00000  Uiso   1.00
H623   H     0.62713   0.04974   0.78451   0.00000  Uiso   1.00
H624   H     0.37812   0.47246   0.77466   0.00000  Uiso   1.00
H625   H     0.39921   0.00458   0.72415   0.00000  Uiso   1.00
H626   H     0.37287   0.45026   0.71549   0.00000  Uiso   1.00
H627   H     0.57442   0.31081   0.66652   0.00000  Uiso   1.00
H628   H     0.58694   0.33255   0.61019   0.00000  Uiso   1.00
H629   H     0.52984   0.34903   0.63300   0.00000  Uiso   1.00
H630   H     0.56018   0.39096   0.70590   0.00000  Uiso   1.00
H631   H     0.42558   0.18919   0.83348   0.00000  Uiso   1.00
H632   H     0.47016   0.15097   0.86700   0.00000  Uiso   1.00
H633   H     0.41306   0.16745   0.88981   0.00000  Uiso   1.00
H634   H     0.40131   0.21838   0.99087   0.00000  Uiso   1.00
H635   H     0.41248   0.16742   0.52818   0.00000  Uiso   1.00
H636   H     0.38002   0.21327   0.54817   0.00000  Uiso   1.00
H637   H     0.58752   0.33258   0.97182   0.00000  Uiso   1.00
H638   H     0.59869   0.28162   0.50913   0.00000  Uiso   1.00
H639   H     0.61998   0.28673   0.95183   0.00000  Uiso   1.00
H640   H     0.44327   0.19892   0.62173   0.00000  Uiso   1.00
H641   H     0.55673   0.30108   0.87827   0.00000  Uiso   1.00
H642   H     0.60780   0.14610   0.75059   0.00000  Uiso   1.00
H643   H     0.62194   0.10299   0.71223   0.00000  Uiso   1.00
H644   H     0.57621   0.14308   0.68930   0.00000  Uiso   1.00
H645   H     0.39220   0.35390   0.74941   0.00000  Uiso   1.00
H646   H     0.42379   0.35692   0.81070   0.00000  Uiso   1.00
N647   N     0.50000   0.25001   0.62934   0.00000  Uiso   1.00
N648   N     0.50000   0.24999   0.87066   0.00000  Uiso   1.00
O649   O     0.50000   0.18573   0.79072   0.00000  Uiso   1.00
O650   O     0.50000   0.31428   0.70928   0.00000  Uiso   1.00
O651   O     0.50000   0.18573   0.70928   0.00000  Uiso   1.00
O652   O     0.50000   0.31427   0.79072   0.00000  Uiso   1.00
O653   O     0.42495   0.25000   0.78132   0.00000  Uiso   1.00
O654   O     0.57505   0.25001   0.71868   0.00000  Uiso   1.00
O655   O     0.42495   0.25000   0.69988   0.00000  Uiso   1.00
O656   O     0.57505   0.25000   0.80012   0.00000  Uiso   1.00
C657   C     0.83435   0.16514   0.75101   0.00000  Uiso   1.00
C658   C     0.87118   0.27688   0.94813   0.00000  Uiso   1.00
C659   C     0.82944   0.25142   0.52691   0.00000  Uiso   1.00
C660   C     0.83723   0.24858   0.97308   0.00000  Uiso   1.00
C661   C     0.73482   0.24986   0.73780   0.00000  Uiso   1.00
C662   C     0.93185   0.25014   0.76220   0.00000  Uiso   1.00
C663   C     0.67982   0.24945   0.73099   0.00000  Uiso   1.00
C664   C     0.98684   0.25055   0.76901   0.00000  Uiso   1.00
C665   C     0.80357   0.04660   0.78079   0.00000  Uiso   1.00
C666   C     0.86310   0.45340   0.71921   0.00000  Uiso   1.00
C667   C     0.80234   0.09253   0.77790   0.00000  Uiso   1.00
C668   C     0.83232   0.33487   0.74899   0.00000  Uiso   1.00
C669   C     0.86433   0.40747   0.72210   0.00000  Uiso   1.00
C670   C     0.83800   0.11697   0.75404   0.00000  Uiso   1.00
C671   C     0.82867   0.38303   0.74596   0.00000  Uiso   1.00
C672   C     0.88058   0.09572   0.74008   0.00000  Uiso   1.00
C673   C     0.78609   0.40428   0.75992   0.00000  Uiso   1.00
C674   C     0.88325   0.04897   0.74686   0.00000  Uiso   1.00
C675   C     0.78341   0.45103   0.75314   0.00000  Uiso   1.00
C676   C     0.83813   0.02414   0.75628   0.00000  Uiso   1.00
C677   C     0.82854   0.47586   0.74372   0.00000  Uiso   1.00
C678   C     0.92417   0.12329   0.72223   0.00000  Uiso   1.00
C679   C     0.85261   0.28617   0.55459   0.00000  Uiso   1.00
C680   C     0.74249   0.37671   0.77777   0.00000  Uiso   1.00
C681   C     0.93592   0.02899   0.75826   0.00000  Uiso   1.00
C682   C     0.73074   0.47101   0.74174   0.00000  Uiso   1.00
C683   C     0.88859   0.32071   0.63071   0.00000  Uiso   1.00
C684   C     0.77808   0.17929   0.86929   0.00000  Uiso   1.00
C685   C     0.74502   0.20423   0.52791   0.00000  Uiso   1.00
C686   C     0.92165   0.29577   0.97209   0.00000  Uiso   1.00
C687   C     0.81406   0.21383   0.94541   0.00000  Uiso   1.00
C688   C     0.85814   0.28343   0.60531   0.00000  Uiso   1.00
C689   C     0.80853   0.21657   0.89469   0.00000  Uiso   1.00
C690   C     0.80134   0.22111   0.60303   0.00000  Uiso   1.00
C691   C     0.86533   0.27889   0.89697   0.00000  Uiso   1.00
C692   C     0.79549   0.22312   0.55187   0.00000  Uiso   1.00
Cu693  Cu    0.83333   0.25000   0.79822   0.00000  Uiso   1.00
Cu694  Cu    0.83333   0.25001   0.70178   0.00000  Uiso   1.00
F695   F     0.98949   0.24765   0.68474   0.00000  Uiso   1.00
F696   F     0.67718   0.25235   0.81526   0.00000  Uiso   1.00
F697   F     0.77354   0.02484   0.81055   0.00000  Uiso   1.00
F698   F     0.89313   0.47516   0.68945   0.00000  Uiso   1.00
F699   F     0.86328   0.32587   0.53290   0.00000  Uiso   1.00
F700   F     0.80339   0.17413   0.96710   0.00000  Uiso   1.00
H701   H     0.77316   0.10904   0.79410   0.00000  Uiso   1.00
H702   H     0.71139   0.39701   0.78777   0.00000  Uiso   1.00
H703   H     0.93412   0.49542   0.77585   0.00000  Uiso   1.00
H704   H     0.95521   0.02754   0.72534   0.00000  Uiso   1.00
H705   H     0.96046   0.04974   0.78451   0.00000  Uiso   1.00
H706   H     0.71146   0.47246   0.77466   0.00000  Uiso   1.00
H707   H     0.73254   0.00458   0.72415   0.00000  Uiso   1.00
H708   H     0.70620   0.45026   0.71549   0.00000  Uiso   1.00
H709   H     0.90776   0.31081   0.66652   0.00000  Uiso   1.00
H710   H     0.92027   0.33255   0.61019   0.00000  Uiso   1.00
H711   H     0.86318   0.34903   0.63300   0.00000  Uiso   1.00
H712   H     0.89351   0.39096   0.70590   0.00000  Uiso   1.00
H713   H     0.75891   0.18919   0.83348   0.00000  Uiso   1.00
H714   H     0.80349   0.15097   0.86700   0.00000  Uiso   1.00
H715   H     0.74640   0.16745   0.88981   0.00000  Uiso   1.00
H716   H     0.73464   0.21838   0.99087   0.00000  Uiso   1.00
H717   H     0.74581   0.16742   0.52818   0.00000  Uiso   1.00
H718   H     0.71335   0.21327   0.54817   0.00000  Uiso   1.00
H719   H     0.92086   0.33258   0.97182   0.00000  Uiso   1.00
H720   H     0.93203   0.28162   0.50913   0.00000  Uiso   1.00
H721   H     0.95332   0.28673   0.95183   0.00000  Uiso   1.00
H722   H     0.77661   0.19892   0.62173   0.00000  Uiso   1.00
H723   H     0.89006   0.30108   0.87827   0.00000  Uiso   1.00
H724   H     0.94113   0.14610   0.75059   0.00000  Uiso   1.00
H725   H     0.95527   0.10299   0.71223   0.00000  Uiso   1.00
H726   H     0.90955   0.14308   0.68930   0.00000  Uiso   1.00
H727   H     0.72553   0.35390   0.74941   0.00000  Uiso   1.00
H728   H     0.75712   0.35692   0.81070   0.00000  Uiso   1.00
N729   N     0.83333   0.25001   0.62934   0.00000  Uiso   1.00
N730   N     0.83333   0.24999   0.87066   0.00000  Uiso   1.00
O731   O     0.83334   0.18573   0.79072   0.00000  Uiso   1.00
O732   O     0.83333   0.31428   0.70928   0.00000  Uiso   1.00
O733   O     0.83334   0.18573   0.70928   0.00000  Uiso   1.00
O734   O     0.83333   0.31427   0.79072   0.00000  Uiso   1.00
O735   O     0.75828   0.25000   0.78132   0.00000  Uiso   1.00
O736   O     0.90839   0.25001   0.71868   0.00000  Uiso   1.00
O737   O     0.75828   0.25000   0.69988   0.00000  Uiso   1.00
O738   O     0.90839   0.25000   0.80012   0.00000  Uiso   1.00
C739   C     0.16768   0.66514   0.75101   0.00000  Uiso   1.00
C740   C     0.20451   0.77688   0.94813   0.00000  Uiso   1.00
C741   C     0.16277   0.75142   0.52691   0.00000  Uiso   1.00
C742   C     0.17056   0.74858   0.97308   0.00000  Uiso   1.00
C743   C     0.06815   0.74986   0.73780   0.00000  Uiso   1.00
C744   C     0.26518   0.75014   0.76220   0.00000  Uiso   1.00
C745   C     0.01316   0.74945   0.73099   0.00000  Uiso   1.00
C746   C     0.32018   0.75055   0.76901   0.00000  Uiso   1.00
C747   C     0.13690   0.54660   0.78079   0.00000  Uiso   1.00
C748   C     0.19643   0.95340   0.71921   0.00000  Uiso   1.00
C749   C     0.13567   0.59253   0.77790   0.00000  Uiso   1.00
C750   C     0.16565   0.83487   0.74899   0.00000  Uiso   1.00
C751   C     0.19766   0.90747   0.72210   0.00000  Uiso   1.00
C752   C     0.17133   0.61697   0.75404   0.00000  Uiso   1.00
C753   C     0.16200   0.88303   0.74596   0.00000  Uiso   1.00
C754   C     0.21391   0.59572   0.74008   0.00000  Uiso   1.00
C755   C     0.11942   0.90428   0.75992   0.00000  Uiso   1.00
C756   C     0.21659   0.54897   0.74686   0.00000  Uiso   1.00
C757   C     0.11675   0.95103   0.75314   0.00000  Uiso   1.00
C758   C     0.17146   0.52414   0.75628   0.00000  Uiso   1.00
C759   C     0.16187   0.97586   0.74372   0.00000  Uiso   1.00
C760   C     0.25751   0.62329   0.72223   0.00000  Uiso   1.00
C761   C     0.18594   0.78617   0.55459   0.00000  Uiso   1.00
C762   C     0.07583   0.87671   0.77777   0.00000  Uiso   1.00
C763   C     0.26926   0.52899   0.75826   0.00000  Uiso   1.00
C764   C     0.06407   0.97101   0.74174   0.00000  Uiso   1.00
C765   C     0.22192   0.82071   0.63071   0.00000  Uiso   1.00
C766   C     0.11141   0.67929   0.86929   0.00000  Uiso   1.00
C767   C     0.07835   0.70423   0.52791   0.00000  Uiso   1.00
C768   C     0.25498   0.79577   0.97209   0.00000  Uiso   1.00
C769   C     0.14739   0.71383   0.94541   0.00000  Uiso   1.00
C770   C     0.19147   0.78343   0.60531   0.00000  Uiso   1.00
C771   C     0.14186   0.71657   0.89469   0.00000  Uiso   1.00
C772   C     0.13467   0.72111   0.60303   0.00000  Uiso   1.00
C773   C     0.19866   0.77889   0.89697   0.00000  Uiso   1.00
C774   C     0.12882   0.72312   0.55187   0.00000  Uiso   1.00
Cu775  Cu    0.16667   0.75000   0.79822   0.00000  Uiso   1.00
Cu776  Cu    0.16667   0.75001   0.70178   0.00000  Uiso   1.00
F777   F     0.32282   0.74765   0.68474   0.00000  Uiso   1.00
F778   F     0.01051   0.75235   0.81526   0.00000  Uiso   1.00
F779   F     0.10687   0.52484   0.81055   0.00000  Uiso   1.00
F780   F     0.22646   0.97516   0.68945   0.00000  Uiso   1.00
F781   F     0.19661   0.82587   0.53290   0.00000  Uiso   1.00
F782   F     0.13672   0.67413   0.96710   0.00000  Uiso   1.00
H783   H     0.10649   0.60904   0.79410   0.00000  Uiso   1.00
H784   H     0.04473   0.89701   0.78777   0.00000  Uiso   1.00
H785   H     0.26746   0.99542   0.77585   0.00000  Uiso   1.00
H786   H     0.28854   0.52754   0.72534   0.00000  Uiso   1.00
H787   H     0.29380   0.54974   0.78451   0.00000  Uiso   1.00
H788   H     0.04479   0.97246   0.77466   0.00000  Uiso   1.00
H789   H     0.06588   0.50458   0.72415   0.00000  Uiso   1.00
H790   H     0.03953   0.95026   0.71549   0.00000  Uiso   1.00
H791   H     0.24109   0.81081   0.66652   0.00000  Uiso   1.00
H792   H     0.25360   0.83255   0.61019   0.00000  Uiso   1.00
H793   H     0.19651   0.84903   0.63300   0.00000  Uiso   1.00
H794   H     0.22684   0.89096   0.70590   0.00000  Uiso   1.00
H795   H     0.09224   0.68919   0.83348   0.00000  Uiso   1.00
H796   H     0.13682   0.65097   0.86700   0.00000  Uiso   1.00
H797   H     0.07973   0.66745   0.88981   0.00000  Uiso   1.00
H798   H     0.06797   0.71838   0.99087   0.00000  Uiso   1.00
H799   H     0.07914   0.66742   0.52818   0.00000  Uiso   1.00
H800   H     0.04668   0.71327   0.54817   0.00000  Uiso   1.00
H801   H     0.25419   0.83258   0.97182   0.00000  Uiso   1.00
H802   H     0.26536   0.78162   0.50913   0.00000  Uiso   1.00
H803   H     0.28665   0.78673   0.95183   0.00000  Uiso   1.00
H804   H     0.10994   0.69892   0.62173   0.00000  Uiso   1.00
H805   H     0.22339   0.80108   0.87827   0.00000  Uiso   1.00
H806   H     0.27447   0.64610   0.75059   0.00000  Uiso   1.00
H807   H     0.28861   0.60299   0.71223   0.00000  Uiso   1.00
H808   H     0.24288   0.64308   0.68930   0.00000  Uiso   1.00
H809   H     0.05887   0.85390   0.74941   0.00000  Uiso   1.00
H810   H     0.09045   0.85692   0.81070   0.00000  Uiso   1.00
N811   N     0.16667   0.75001   0.62934   0.00000  Uiso   1.00
N812   N     0.16667   0.74999   0.87066   0.00000  Uiso   1.00
O813   O     0.16667   0.68573   0.79072   0.00000  Uiso   1.00
O814   O     0.16666   0.81428   0.70928   0.00000  Uiso   1.00
O815   O     0.16667   0.68573   0.70928   0.00000  Uiso   1.00
O816   O     0.16666   0.81427   0.79072   0.00000  Uiso   1.00
O817   O     0.09161   0.75000   0.78132   0.00000  Uiso   1.00
O818   O     0.24172   0.75001   0.71868   0.00000  Uiso   1.00
O819   O     0.09161   0.75000   0.69988   0.00000  Uiso   1.00
O820   O     0.24172   0.75000   0.80012   0.00000  Uiso   1.00
C821   C     0.50102   0.66514   0.75101   0.00000  Uiso   1.00
C822   C     0.53784   0.77688   0.94813   0.00000  Uiso   1.00
C823   C     0.49611   0.75142   0.52691   0.00000  Uiso   1.00
C824   C     0.50389   0.74858   0.97308   0.00000  Uiso   1.00
C825   C     0.40149   0.74986   0.73780   0.00000  Uiso   1.00
C826   C     0.59851   0.75014   0.76220   0.00000  Uiso   1.00
C827   C     0.34649   0.74945   0.73099   0.00000  Uiso   1.00
C828   C     0.65351   0.75055   0.76901   0.00000  Uiso   1.00
C829   C     0.47023   0.54660   0.78079   0.00000  Uiso   1.00
C830   C     0.52976   0.95340   0.71921   0.00000  Uiso   1.00
C831   C     0.46900   0.59253   0.77790   0.00000  Uiso   1.00
C832   C     0.49898   0.83487   0.74899   0.00000  Uiso   1.00
C833   C     0.53100   0.90747   0.72210   0.00000  Uiso   1.00
C834   C     0.50466   0.61697   0.75404   0.00000  Uiso   1.00
C835   C     0.49534   0.88303   0.74596   0.00000  Uiso   1.00
C836   C     0.54724   0.59572   0.74008   0.00000  Uiso   1.00
C837   C     0.45275   0.90428   0.75992   0.00000  Uiso   1.00
C838   C     0.54992   0.54897   0.74686   0.00000  Uiso   1.00
C839   C     0.45008   0.95103   0.75314   0.00000  Uiso   1.00
C840   C     0.50479   0.52414   0.75628   0.00000  Uiso   1.00
C841   C     0.49520   0.97586   0.74372   0.00000  Uiso   1.00
C842   C     0.59084   0.62329   0.72223   0.00000  Uiso   1.00
C843   C     0.51928   0.78617   0.55459   0.00000  Uiso   1.00
C844   C     0.40916   0.87671   0.77777   0.00000  Uiso   1.00
C845   C     0.60259   0.52899   0.75826   0.00000  Uiso   1.00
C846   C     0.39741   0.97101   0.74174   0.00000  Uiso   1.00
C847   C     0.55526   0.82071   0.63071   0.00000  Uiso   1.00
C848   C     0.44474   0.67929   0.86929   0.00000  Uiso   1.00
C849   C     0.41169   0.70423   0.52791   0.00000  Uiso   1.00
C850   C     0.58831   0.79577   0.97209   0.00000  Uiso   1.00
C851   C     0.48072   0.71383   0.94541   0.00000  Uiso   1.00
C852   C     0.52481   0.78343   0.60531   0.00000  Uiso   1.00
C853   C     0.47519   0.71657   0.89469   0.00000  Uiso   1.00
C854   C     0.46800   0.72111   0.60303   0.00000  Uiso   1.00
C855   C     0.53200   0.77889   0.89697   0.00000  Uiso   1.00
C856   C     0.46216   0.72312   0.55187   0.00000  Uiso   1.00
Cu857  Cu    0.50000   0.75000   0.79822   0.00000  Uiso   1.00
Cu858  Cu    0.50000   0.75001   0.70178   0.00000  Uiso   1.00
F859   F     0.65616   0.74765   0.68474   0.00000  Uiso   1.00
F860   F     0.34384   0.75235   0.81526   0.00000  Uiso   1.00
F861   F     0.44020   0.52484   0.81055   0.00000  Uiso   1.00
F862   F     0.55979   0.97516   0.68945   0.00000  Uiso   1.00
F863   F     0.52995   0.82587   0.53290   0.00000  Uiso   1.00
F864   F     0.47005   0.67413   0.96710   0.00000  Uiso   1.00
H865   H     0.43982   0.60904   0.79410   0.00000  Uiso   1.00
H866   H     0.37806   0.89701   0.78777   0.00000  Uiso   1.00
H867   H     0.60079   0.99542   0.77585   0.00000  Uiso   1.00
H868   H     0.62188   0.52754   0.72534   0.00000  Uiso   1.00
H869   H     0.62713   0.54974   0.78451   0.00000  Uiso   1.00
H870   H     0.37812   0.97246   0.77466   0.00000  Uiso   1.00
H871   H     0.39921   0.50458   0.72415   0.00000  Uiso   1.00
H872   H     0.37287   0.95026   0.71549   0.00000  Uiso   1.00
H873   H     0.57442   0.81081   0.66652   0.00000  Uiso   1.00
H874   H     0.58694   0.83255   0.61019   0.00000  Uiso   1.00
H875   H     0.52984   0.84903   0.63300   0.00000  Uiso   1.00
H876   H     0.56018   0.89096   0.70590   0.00000  Uiso   1.00
H877   H     0.42558   0.68919   0.83348   0.00000  Uiso   1.00
H878   H     0.47016   0.65097   0.86700   0.00000  Uiso   1.00
H879   H     0.41306   0.66745   0.88981   0.00000  Uiso   1.00
H880   H     0.40131   0.71838   0.99087   0.00000  Uiso   1.00
H881   H     0.41248   0.66742   0.52818   0.00000  Uiso   1.00
H882   H     0.38002   0.71327   0.54817   0.00000  Uiso   1.00
H883   H     0.58752   0.83258   0.97182   0.00000  Uiso   1.00
H884   H     0.59869   0.78162   0.50913   0.00000  Uiso   1.00
H885   H     0.61998   0.78673   0.95183   0.00000  Uiso   1.00
H886   H     0.44327   0.69892   0.62173   0.00000  Uiso   1.00
H887   H     0.55673   0.80108   0.87827   0.00000  Uiso   1.00
H888   H     0.60780   0.64610   0.75059   0.00000  Uiso   1.00
H889   H     0.62194   0.60299   0.71223   0.00000  Uiso   1.00
H890   H     0.57621   0.64308   0.68930   0.00000  Uiso   1.00
H891   H     0.39220   0.85390   0.74941   0.00000  Uiso   1.00
H892   H     0.42379   0.85692   0.81070   0.00000  Uiso   1.00
N893   N     0.50000   0.75001   0.62934   0.00000  Uiso   1.00
N894   N     0.50000   0.74999   0.87066   0.00000  Uiso   1.00
O895   O     0.50000   0.68573   0.79072   0.00000  Uiso   1.00
O896   O     0.50000   0.81428   0.70928   0.00000  Uiso   1.00
O897   O     0.50000   0.68573   0.70928   0.00000  Uiso   1.00
O898   O     0.50000   0.81427   0.79072   0.00000  Uiso   1.00
O899   O     0.42495   0.75000   0.78132   0.00000  Uiso   1.00
O900   O     0.57505   0.75001   0.71868   0.00000  Uiso   1.00
O901   O     0.42495   0.75000   0.69988   0.00000  Uiso   1.00
O902   O     0.57505   0.75000   0.80012   0.00000  Uiso   1.00
C903   C     0.83435   0.66514   0.75101   0.00000  Uiso   1.00
C904   C     0.87118   0.77688   0.94813   0.00000  Uiso   1.00
C905   C     0.82944   0.75142   0.52691   0.00000  Uiso   1.00
C906   C     0.83723   0.74858   0.97308   0.00000  Uiso   1.00
C907   C     0.73482   0.74986   0.73780   0.00000  Uiso   1.00
C908   C     0.93185   0.75014   0.76220   0.00000  Uiso   1.00
C909   C     0.67982   0.74945   0.73099   0.00000  Uiso   1.00
C910   C     0.98684   0.75055   0.76901   0.00000  Uiso   1.00
C911   C     0.80357   0.54660   0.78079   0.00000  Uiso   1.00
C912   C     0.86310   0.95340   0.71921   0.00000  Uiso   1.00
C913   C     0.80234   0.59253   0.77790   0.00000  Uiso   1.00
C914   C     0.83232   0.83487   0.74899   0.00000  Uiso   1.00
C915   C     0.86433   0.90747   0.72210   0.00000  Uiso   1.00
C916   C     0.83800   0.61697   0.75404   0.00000  Uiso   1.00
C917   C     0.82867   0.88303   0.74596   0.00000  Uiso   1.00
C918   C     0.88058   0.59572   0.74008   0.00000  Uiso   1.00
C919   C     0.78609   0.90428   0.75992   0.00000  Uiso   1.00
C920   C     0.88325   0.54897   0.74686   0.00000  Uiso   1.00
C921   C     0.78341   0.95103   0.75314   0.00000  Uiso   1.00
C922   C     0.83813   0.52414   0.75628   0.00000  Uiso   1.00
C923   C     0.82854   0.97586   0.74372   0.00000  Uiso   1.00
C924   C     0.92417   0.62329   0.72223   0.00000  Uiso   1.00
C925   C     0.85261   0.78617   0.55459   0.00000  Uiso   1.00
C926   C     0.74249   0.87671   0.77777   0.00000  Uiso   1.00
C927   C     0.93592   0.52899   0.75826   0.00000  Uiso   1.00
C928   C     0.73074   0.97101   0.74174   0.00000  Uiso   1.00
C929   C     0.88859   0.82071   0.63071   0.00000  Uiso   1.00
C930   C     0.77808   0.67929   0.86929   0.00000  Uiso   1.00
C931   C     0.74502   0.70423   0.52791   0.00000  Uiso   1.00
C932   C     0.92165   0.79577   0.97209   0.00000  Uiso   1.00
C933   C     0.81406   0.71383   0.94541   0.00000  Uiso   1.00
C934   C     0.85814   0.78343   0.60531   0.00000  Uiso   1.00
C935   C     0.80853   0.71657   0.89469   0.00000  Uiso   1.00
C936   C     0.80134   0.72111   0.60303   0.00000  Uiso   1.00
C937   C     0.86533   0.77889   0.89697   0.00000  Uiso   1.00
C938   C     0.79549   0.72312   0.55187   0.00000  Uiso   1.00
Cu939  Cu    0.83333   0.75000   0.79822   0.00000  Uiso   1.00
Cu940  Cu    0.83333   0.75001   0.70178   0.00000  Uiso   1.00
F941   F     0.98949   0.74765   0.68474   0.00000  Uiso   1.00
F942   F     0.67718   0.75235   0.81526   0.00000  Uiso   1.00
F943   F     0.77354   0.52484   0.81055   0.00000  Uiso   1.00
F944   F     0.89313   0.97516   0.68945   0.00000  Uiso   1.00
F945   F     0.86328   0.82587   0.53290   0.00000  Uiso   1.00
F946   F     0.80339   0.67413   0.96710   0.00000  Uiso   1.00
H947   H     0.77316   0.60904   0.79410   0.00000  Uiso   1.00
H948   H     0.71139   0.89701   0.78777   0.00000  Uiso   1.00
H949   H     0.93412   0.99542   0.77585   0.00000  Uiso   1.00
H950   H     0.95521   0.52754   0.72534   0.00000  Uiso   1.00
H951   H     0.96046   0.54974   0.78451   0.00000  Uiso   1.00
H952   H     0.71146   0.97246   0.77466   0.00000  Uiso   1.00
H953   H     0.73254   0.50458   0.72415   0.00000  Uiso   1.00
H954   H     0.70620   0.95026   0.71549   0.00000  Uiso   1.00
H955   H     0.90776   0.81081   0.66652   0.00000  Uiso   1.00
H956   H     0.92027   0.83255   0.61019   0.00000  Uiso   1.00
H957   H     0.86318   0.84903   0.63300   0.00000  Uiso   1.00
H958   H     0.89351   0.89096   0.70590   0.00000  Uiso   1.00
H959   H     0.75891   0.68919   0.83348   0.00000  Uiso   1.00
H960   H     0.80349   0.65097   0.86700   0.00000  Uiso   1.00
H961   H     0.74640   0.66745   0.88981   0.00000  Uiso   1.00
H962   H     0.73464   0.71838   0.99087   0.00000  Uiso   1.00
H963   H     0.74581   0.66742   0.52818   0.00000  Uiso   1.00
H964   H     0.71335   0.71327   0.54817   0.00000  Uiso   1.00
H965   H     0.92086   0.83258   0.97182   0.00000  Uiso   1.00
H966   H     0.93203   0.78162   0.50913   0.00000  Uiso   1.00
H967   H     0.95332   0.78673   0.95183   0.00000  Uiso   1.00
H968   H     0.77661   0.69892   0.62173   0.00000  Uiso   1.00
H969   H     0.89006   0.80108   0.87827   0.00000  Uiso   1.00
H970   H     0.94113   0.64610   0.75059   0.00000  Uiso   1.00
H971   H     0.95527   0.60299   0.71223   0.00000  Uiso   1.00
H972   H     0.90955   0.64308   0.68930   0.00000  Uiso   1.00
H973   H     0.72553   0.85390   0.74941   0.00000  Uiso   1.00
H974   H     0.75712   0.85692   0.81070   0.00000  Uiso   1.00
N975   N     0.83333   0.75001   0.62934   0.00000  Uiso   1.00
N976   N     0.83333   0.74999   0.87066   0.00000  Uiso   1.00
O977   O     0.83334   0.68573   0.79072   0.00000  Uiso   1.00
O978   O     0.83333   0.81428   0.70928   0.00000  Uiso   1.00
O979   O     0.83334   0.68573   0.70928   0.00000  Uiso   1.00
O980   O     0.83333   0.81427   0.79072   0.00000  Uiso   1.00
O981   O     0.75828   0.75000   0.78132   0.00000  Uiso   1.00
O982   O     0.90839   0.75001   0.71868   0.00000  Uiso   1.00
O983   O     0.75828   0.75000   0.69988   0.00000  Uiso   1.00
O984   O     0.90839   0.75000   0.80012   0.00000  Uiso   1.00
loop_
_geom_bond_atom_site_label_1
_geom_bond_atom_site_label_2
_geom_bond_distance
_geom_bond_site_symmetry_2
_ccdc_geom_bond_type
C1     O77     1.297   .     A
C1     O75     1.298   .     A
C1     C14     1.456   .     S
C2     C35     1.418   .     A
C2     C4      1.439   .     A
C2     C30     1.510   .     S
C3     C23     1.403   .     A
C3     C36     1.439   .     A
C3     C496    1.552   1_554 S
C4     C31     1.403   .     A
C4     C495    1.552   .     S
C5     O79     1.292   .     A
C5     C7      1.431   .     S
C5     O81     1.293   .     A
C6     O82     1.293   .     A
C6     C8      1.431   .     S
C6     O80     1.292   .     A
C7     C172    1.343   1_455 S
C7     F203    1.363   1_455 S
C8     C89     1.343   .     S
C8     F122    1.363   .     S
C9     C20     1.411   .     A
C9     C11     1.385   .     A
C9     F41     1.354   .     S
C10    F42     1.354   .     S
C10    C21     1.411   .     A
C10    C13     1.385   .     A
C11    C14     1.393   .     A
C11    H45     1.083   .     S
C12    O78     1.297   .     A
C12    C15     1.456   .     S
C12    O76     1.298   .     A
C13    H56     1.083   .     S
C13    C15     1.393   .     A
C14    C16     1.412   .     A
C15    C17     1.412   .     A
C16    C22     1.517   .     S
C16    C18     1.417   .     A
C17    C24     1.517   .     S
C17    C19     1.417   .     A
C18    C20     1.428   .     A
C18    C25     1.517   .     S
C19    C21     1.428   .     A
C19    C26     1.517   .     S
C20    C267    1.516   1_545 S
C21    C266    1.516   .     S
C22    H69     1.107   .     S
C22    H68     1.111   .     S
C22    H70     1.109   .     S
C23    F43     1.357   .     S
C23    C32     1.407   .     A
C24    H72     1.109   .     S
C24    H46     1.107   .     S
C24    H71     1.111   .     S
C25    H48     1.109   .     S
C25    H49     1.111   .     S
C25    H293    1.109   1_545 S
C26    H50     1.109   .     S
C26    H52     1.111   .     S
C26    H297    1.109   .     S
C27    H54     1.111   .     S
C27    H55     1.110   .     S
C27    C32     1.505   .     S
C27    H53     1.096   .     S
C28    H57     1.096   .     S
C28    C33     1.505   .     S
C28    H59     1.111   .     S
C28    H58     1.110   .     S
C29    C36     1.510   .     S
C29    H61     1.110   .     S
C29    H62     1.112   .     S
C29    H552    1.108   1_554 S
C30    H63     1.110   .     S
C30    H65     1.112   .     S
C30    H556    1.108   .     S
C31    C33     1.407   .     A
C31    F44     1.357   .     S
C32    N73     1.380   .     A
C33    N74     1.380   .     A
C34    H66     1.083   .     S
C34    C36     1.418   .     A
C34    N73     1.360   .     A
C35    N74     1.360   .     A
C35    H67     1.083   .     S
Cu37   N74     2.026   .     S
Cu37   O79     1.966   .     S
Cu37   O75     1.957   .     S
Cu37   Cu38    2.697   .     S
Cu37   O82     1.964   .     S
Cu37   O78     1.940   .     S
Cu38   O76     1.957   .     S
Cu38   O81     1.964   .     S
Cu38   O77     1.940   .     S
Cu38   O80     1.966   .     S
Cu38   N73     2.026   .     S
F39    C89     1.363   .     S
F40    C172    1.363   1_455 S
H47    C271    1.109   .     S
H51    C272    1.109   1_545 S
H60    C521    1.108   .     S
H64    C522    1.108   1_554 S
C83    O159    1.297   .     A
C83    O157    1.298   .     A
C83    C96     1.456   .     S
C84    C117    1.418   .     A
C84    C86     1.439   .     A
C84    C112    1.510   .     S
C85    C105    1.403   .     A
C85    C118    1.439   .     A
C85    C578    1.552   1_554 S
C86    C113    1.403   .     A
C86    C577    1.552   .     S
C87    O161    1.292   .     A
C87    C89     1.431   .     S
C87    O163    1.293   .     A
C88    O164    1.293   .     A
C88    C90     1.431   .     S
C88    O162    1.292   .     A
C90    C171    1.343   .     S
C90    F204    1.363   .     S
C91    C102    1.411   .     A
C91    C93     1.385   .     A
C91    F123    1.354   .     S
C92    F124    1.354   .     S
C92    C103    1.411   .     A
C92    C95     1.385   .     A
C93    C96     1.393   .     A
C93    H127    1.083   .     S
C94    O160    1.297   .     A
C94    C97     1.456   .     S
C94    O158    1.298   .     A
C95    H138    1.083   .     S
C95    C97     1.393   .     A
C96    C98     1.412   .     A
C97    C99     1.412   .     A
C98    C104    1.517   .     S
C98    C100    1.417   .     A
C99    C106    1.517   .     S
C99    C101    1.417   .     A
C100   C102    1.428   .     A
C100   C107    1.517   .     S
C101   C103    1.428   .     A
C101   C108    1.517   .     S
C102   C349    1.516   1_545 S
C103   C348    1.516   .     S
C104   H151    1.107   .     S
C104   H150    1.111   .     S
C104   H152    1.109   .     S
C105   F125    1.357   .     S
C105   C114    1.407   .     A
C106   H154    1.109   .     S
C106   H128    1.107   .     S
C106   H153    1.111   .     S
C107   H130    1.109   .     S
C107   H131    1.111   .     S
C107   H375    1.109   1_545 S
C108   H132    1.109   .     S
C108   H134    1.111   .     S
C108   H379    1.109   .     S
C109   H136    1.111   .     S
C109   H137    1.110   .     S
C109   C114    1.505   .     S
C109   H135    1.096   .     S
C110   H139    1.096   .     S
C110   C115    1.505   .     S
C110   H141    1.111   .     S
C110   H140    1.110   .     S
C111   C118    1.510   .     S
C111   H143    1.110   .     S
C111   H144    1.112   .     S
C111   H634    1.108   1_554 S
C112   H145    1.110   .     S
C112   H147    1.112   .     S
C112   H638    1.108   .     S
C113   C115    1.407   .     A
C113   F126    1.357   .     S
C114   N155    1.380   .     A
C115   N156    1.380   .     A
C116   H148    1.083   .     S
C116   C118    1.418   .     A
C116   N155    1.360   .     A
C117   N156    1.360   .     A
C117   H149    1.083   .     S
Cu119  N156    2.026   .     S
Cu119  O161    1.966   .     S
Cu119  O157    1.957   .     S
Cu119  Cu120   2.697   .     S
Cu119  O164    1.964   .     S
Cu119  O160    1.940   .     S
Cu120  O158    1.957   .     S
Cu120  O163    1.964   .     S
Cu120  O159    1.940   .     S
Cu120  O162    1.966   .     S
Cu120  N155    2.026   .     S
F121   C171    1.363   .     S
H129   C353    1.109   .     S
H133   C354    1.109   1_545 S
H142   C603    1.108   .     S
H146   C604    1.108   1_554 S
C165   O241    1.297   .     A
C165   O239    1.298   .     A
C165   C178    1.456   .     S
C166   C199    1.418   .     A
C166   C168    1.439   .     A
C166   C194    1.510   .     S
C167   C187    1.403   .     A
C167   C200    1.439   .     A
C167   C660    1.552   1_554 S
C168   C195    1.403   .     A
C168   C659    1.552   .     S
C169   O243    1.292   .     A
C169   C171    1.431   .     S
C169   O245    1.293   .     A
C170   O246    1.293   .     A
C170   C172    1.431   .     S
C170   O244    1.292   .     A
C172   C7      1.343   1_655 S
C172   F40     1.363   1_655 S
C173   C184    1.411   .     A
C173   C175    1.385   .     A
C173   F205    1.354   .     S
C174   F206    1.354   .     S
C174   C185    1.411   .     A
C174   C177    1.385   .     A
C175   C178    1.393   .     A
C175   H209    1.083   .     S
C176   O242    1.297   .     A
C176   C179    1.456   .     S
C176   O240    1.298   .     A
C177   H220    1.083   .     S
C177   C179    1.393   .     A
C178   C180    1.412   .     A
C179   C181    1.412   .     A
C180   C186    1.517   .     S
C180   C182    1.417   .     A
C181   C188    1.517   .     S
C181   C183    1.417   .     A
C182   C184    1.428   .     A
C182   C189    1.517   .     S
C183   C185    1.428   .     A
C183   C190    1.517   .     S
C184   C431    1.516   1_545 S
C185   C430    1.516   .     S
C186   H233    1.107   .     S
C186   H232    1.111   .     S
C186   H234    1.109   .     S
C187   F207    1.357   .     S
C187   C196    1.407   .     A
C188   H236    1.109   .     S
C188   H210    1.107   .     S
C188   H235    1.111   .     S
C189   H212    1.109   .     S
C189   H213    1.111   .     S
C189   H457    1.109   1_545 S
C190   H214    1.109   .     S
C190   H216    1.111   .     S
C190   H461    1.109   .     S
C191   H218    1.111   .     S
C191   H219    1.110   .     S
C191   C196    1.505   .     S
C191   H217    1.096   .     S
C192   H221    1.096   .     S
C192   C197    1.505   .     S
C192   H223    1.111   .     S
C192   H222    1.110   .     S
C193   C200    1.510   .     S
C193   H225    1.110   .     S
C193   H226    1.112   .     S
C193   H716    1.108   1_554 S
C194   H227    1.110   .     S
C194   H229    1.112   .     S
C194   H720    1.108   .     S
C195   C197    1.407   .     A
C195   F208    1.357   .     S
C196   N237    1.380   .     A
C197   N238    1.380   .     A
C198   H230    1.083   .     S
C198   C200    1.418   .     A
C198   N237    1.360   .     A
C199   N238    1.360   .     A
C199   H231    1.083   .     S
Cu201  N238    2.026   .     S
Cu201  O243    1.966   .     S
Cu201  O239    1.957   .     S
Cu201  Cu202   2.697   .     S
Cu201  O246    1.964   .     S
Cu201  O242    1.940   .     S
Cu202  O240    1.957   .     S
Cu202  O245    1.964   .     S
Cu202  O241    1.940   .     S
Cu202  O244    1.966   .     S
Cu202  N237    2.026   .     S
F203   C7      1.363   1_655 S
H211   C435    1.109   .     S
H215   C436    1.109   1_545 S
H224   C685    1.108   .     S
H228   C686    1.108   1_554 S
C247   O323    1.297   .     A
C247   O321    1.298   .     A
C247   C260    1.456   .     S
C248   C281    1.418   .     A
C248   C250    1.439   .     A
C248   C276    1.510   .     S
C249   C269    1.403   .     A
C249   C282    1.439   .     A
C249   C742    1.552   1_554 S
C250   C277    1.403   .     A
C250   C741    1.552   .     S
C251   O325    1.292   .     A
C251   C253    1.431   .     S
C251   O327    1.293   .     A
C252   O328    1.293   .     A
C252   C254    1.431   .     S
C252   O326    1.292   .     A
C253   C418    1.343   1_455 S
C253   F449    1.363   1_455 S
C254   C335    1.343   .     S
C254   F368    1.363   .     S
C255   C266    1.411   .     A
C255   C257    1.385   .     A
C255   F287    1.354   .     S
C256   F288    1.354   .     S
C256   C267    1.411   .     A
C256   C259    1.385   .     A
C257   C260    1.393   .     A
C257   H291    1.083   .     S
C258   O324    1.297   .     A
C258   C261    1.456   .     S
C258   O322    1.298   .     A
C259   H302    1.083   .     S
C259   C261    1.393   .     A
C260   C262    1.412   .     A
C261   C263    1.412   .     A
C262   C268    1.517   .     S
C262   C264    1.417   .     A
C263   C270    1.517   .     S
C263   C265    1.417   .     A
C264   C266    1.428   .     A
C264   C271    1.517   .     S
C265   C267    1.428   .     A
C265   C272    1.517   .     S
C267   C20     1.516   1_565 S
C268   H315    1.107   .     S
C268   H314    1.111   .     S
C268   H316    1.109   .     S
C269   F289    1.357   .     S
C269   C278    1.407   .     A
C270   H318    1.109   .     S
C270   H292    1.107   .     S
C270   H317    1.111   .     S
C271   H294    1.109   .     S
C271   H295    1.111   .     S
C272   H296    1.109   .     S
C272   H298    1.111   .     S
C272   H51     1.109   1_565 S
C273   H300    1.111   .     S
C273   H301    1.110   .     S
C273   C278    1.505   .     S
C273   H299    1.096   .     S
C274   H303    1.096   .     S
C274   C279    1.505   .     S
C274   H305    1.111   .     S
C274   H304    1.110   .     S
C275   C282    1.510   .     S
C275   H307    1.110   .     S
C275   H308    1.112   .     S
C275   H798    1.108   1_554 S
C276   H309    1.110   .     S
C276   H311    1.112   .     S
C276   H802    1.108   .     S
C277   C279    1.407   .     A
C277   F290    1.357   .     S
C278   N319    1.380   .     A
C279   N320    1.380   .     A
C280   H312    1.083   .     S
C280   C282    1.418   .     A
C280   N319    1.360   .     A
C281   N320    1.360   .     A
C281   H313    1.083   .     S
Cu283  N320    2.026   .     S
Cu283  O325    1.966   .     S
Cu283  O321    1.957   .     S
Cu283  Cu284   2.697   .     S
Cu283  O328    1.964   .     S
Cu283  O324    1.940   .     S
Cu284  O322    1.957   .     S
Cu284  O327    1.964   .     S
Cu284  O323    1.940   .     S
Cu284  O326    1.966   .     S
Cu284  N319    2.026   .     S
F285   C335    1.363   .     S
F286   C418    1.363   1_455 S
H293   C25     1.109   1_565 S
H306   C767    1.108   .     S
H310   C768    1.108   1_554 S
C329   O405    1.297   .     A
C329   O403    1.298   .     A
C329   C342    1.456   .     S
C330   C363    1.418   .     A
C330   C332    1.439   .     A
C330   C358    1.510   .     S
C331   C351    1.403   .     A
C331   C364    1.439   .     A
C331   C824    1.552   1_554 S
C332   C359    1.403   .     A
C332   C823    1.552   .     S
C333   O407    1.292   .     A
C333   C335    1.431   .     S
C333   O409    1.293   .     A
C334   O410    1.293   .     A
C334   C336    1.431   .     S
C334   O408    1.292   .     A
C336   C417    1.343   .     S
C336   F450    1.363   .     S
C337   C348    1.411   .     A
C337   C339    1.385   .     A
C337   F369    1.354   .     S
C338   F370    1.354   .     S
C338   C349    1.411   .     A
C338   C341    1.385   .     A
C339   C342    1.393   .     A
C339   H373    1.083   .     S
C340   O406    1.297   .     A
C340   C343    1.456   .     S
C340   O404    1.298   .     A
C341   H384    1.083   .     S
C341   C343    1.393   .     A
C342   C344    1.412   .     A
C343   C345    1.412   .     A
C344   C350    1.517   .     S
C344   C346    1.417   .     A
C345   C352    1.517   .     S
C345   C347    1.417   .     A
C346   C348    1.428   .     A
C346   C353    1.517   .     S
C347   C349    1.428   .     A
C347   C354    1.517   .     S
C349   C102    1.516   1_565 S
C350   H397    1.107   .     S
C350   H396    1.111   .     S
C350   H398    1.109   .     S
C351   F371    1.357   .     S
C351   C360    1.407   .     A
C352   H400    1.109   .     S
C352   H374    1.107   .     S
C352   H399    1.111   .     S
C353   H376    1.109   .     S
C353   H377    1.111   .     S
C354   H378    1.109   .     S
C354   H380    1.111   .     S
C354   H133    1.109   1_565 S
C355   H382    1.111   .     S
C355   H383    1.110   .     S
C355   C360    1.505   .     S
C355   H381    1.096   .     S
C356   H385    1.096   .     S
C356   C361    1.505   .     S
C356   H387    1.111   .     S
C356   H386    1.110   .     S
C357   C364    1.510   .     S
C357   H389    1.110   .     S
C357   H390    1.112   .     S
C357   H880    1.108   1_554 S
C358   H391    1.110   .     S
C358   H393    1.112   .     S
C358   H884    1.108   .     S
C359   C361    1.407   .     A
C359   F372    1.357   .     S
C360   N401    1.380   .     A
C361   N402    1.380   .     A
C362   H394    1.083   .     S
C362   C364    1.418   .     A
C362   N401    1.360   .     A
C363   N402    1.360   .     A
C363   H395    1.083   .     S
Cu365  N402    2.026   .     S
Cu365  O407    1.966   .     S
Cu365  O403    1.957   .     S
Cu365  Cu366   2.697   .     S
Cu365  O410    1.964   .     S
Cu365  O406    1.940   .     S
Cu366  O404    1.957   .     S
Cu366  O409    1.964   .     S
Cu366  O405    1.940   .     S
Cu366  O408    1.966   .     S
Cu366  N401    2.026   .     S
F367   C417    1.363   .     S
H375   C107    1.109   1_565 S
H388   C849    1.108   .     S
H392   C850    1.108   1_554 S
C411   O487    1.297   .     A
C411   O485    1.298   .     A
C411   C424    1.456   .     S
C412   C445    1.418   .     A
C412   C414    1.439   .     A
C412   C440    1.510   .     S
C413   C433    1.403   .     A
C413   C446    1.439   .     A
C413   C906    1.552   1_554 S
C414   C441    1.403   .     A
C414   C905    1.552   .     S
C415   O489    1.292   .     A
C415   C417    1.431   .     S
C415   O491    1.293   .     A
C416   O492    1.293   .     A
C416   C418    1.431   .     S
C416   O490    1.292   .     A
C418   C253    1.343   1_655 S
C418   F286    1.363   1_655 S
C419   C430    1.411   .     A
C419   C421    1.385   .     A
C419   F451    1.354   .     S
C420   F452    1.354   .     S
C420   C431    1.411   .     A
C420   C423    1.385   .     A
C421   C424    1.393   .     A
C421   H455    1.083   .     S
C422   O488    1.297   .     A
C422   C425    1.456   .     S
C422   O486    1.298   .     A
C423   H466    1.083   .     S
C423   C425    1.393   .     A
C424   C426    1.412   .     A
C425   C427    1.412   .     A
C426   C432    1.517   .     S
C426   C428    1.417   .     A
C427   C434    1.517   .     S
C427   C429    1.417   .     A
C428   C430    1.428   .     A
C428   C435    1.517   .     S
C429   C431    1.428   .     A
C429   C436    1.517   .     S
C431   C184    1.516   1_565 S
C432   H479    1.107   .     S
C432   H478    1.111   .     S
C432   H480    1.109   .     S
C433   F453    1.357   .     S
C433   C442    1.407   .     A
C434   H482    1.109   .     S
C434   H456    1.107   .     S
C434   H481    1.111   .     S
C435   H458    1.109   .     S
C435   H459    1.111   .     S
C436   H460    1.109   .     S
C436   H462    1.111   .     S
C436   H215    1.109   1_565 S
C437   H464    1.111   .     S
C437   H465    1.110   .     S
C437   C442    1.505   .     S
C437   H463    1.096   .     S
C438   H467    1.096   .     S
C438   C443    1.505   .     S
C438   H469    1.111   .     S
C438   H468    1.110   .     S
C439   C446    1.510   .     S
C439   H471    1.110   .     S
C439   H472    1.112   .     S
C439   H962    1.108   1_554 S
C440   H473    1.110   .     S
C440   H475    1.112   .     S
C440   H966    1.108   .     S
C441   C443    1.407   .     A
C441   F454    1.357   .     S
C442   N483    1.380   .     A
C443   N484    1.380   .     A
C444   H476    1.083   .     S
C444   C446    1.418   .     A
C444   N483    1.360   .     A
C445   N484    1.360   .     A
C445   H477    1.083   .     S
Cu447  N484    2.026   .     S
Cu447  O489    1.966   .     S
Cu447  O485    1.957   .     S
Cu447  Cu448   2.697   .     S
Cu447  O492    1.964   .     S
Cu447  O488    1.940   .     S
Cu448  O486    1.957   .     S
Cu448  O491    1.964   .     S
Cu448  O487    1.940   .     S
Cu448  O490    1.966   .     S
Cu448  N483    2.026   .     S
F449   C253    1.363   1_655 S
H457   C189    1.109   1_565 S
H470   C931    1.108   .     S
H474   C932    1.108   1_554 S
C493   O569    1.297   .     A
C493   O567    1.298   .     A
C493   C506    1.456   .     S
C494   C527    1.418   .     A
C494   C496    1.439   .     A
C494   C522    1.510   .     S
C495   C515    1.403   .     A
C495   C528    1.439   .     A
C496   C523    1.403   .     A
C496   C3      1.552   1_556 S
C497   O571    1.292   .     A
C497   C499    1.431   .     S
C497   O573    1.293   .     A
C498   O574    1.293   .     A
C498   C500    1.431   .     S
C498   O572    1.292   .     A
C499   C664    1.343   1_455 S
C499   F695    1.363   1_455 S
C500   C581    1.343   .     S
C500   F614    1.363   .     S
C501   C512    1.411   .     A
C501   C503    1.385   .     A
C501   F533    1.354   .     S
C502   F534    1.354   .     S
C502   C513    1.411   .     A
C502   C505    1.385   .     A
C503   C506    1.393   .     A
C503   H537    1.083   .     S
C504   O570    1.297   .     A
C504   C507    1.456   .     S
C504   O568    1.298   .     A
C505   H548    1.083   .     S
C505   C507    1.393   .     A
C506   C508    1.412   .     A
C507   C509    1.412   .     A
C508   C514    1.517   .     S
C508   C510    1.417   .     A
C509   C516    1.517   .     S
C509   C511    1.417   .     A
C510   C512    1.428   .     A
C510   C517    1.517   .     S
C511   C513    1.428   .     A
C511   C518    1.517   .     S
C512   C759    1.516   1_545 S
C513   C758    1.516   .     S
C514   H561    1.107   .     S
C514   H560    1.111   .     S
C514   H562    1.109   .     S
C515   F535    1.357   .     S
C515   C524    1.407   .     A
C516   H564    1.109   .     S
C516   H538    1.107   .     S
C516   H563    1.111   .     S
C517   H540    1.109   .     S
C517   H541    1.111   .     S
C517   H785    1.109   1_545 S
C518   H542    1.109   .     S
C518   H544    1.111   .     S
C518   H789    1.109   .     S
C519   H546    1.111   .     S
C519   H547    1.110   .     S
C519   C524    1.505   .     S
C519   H545    1.096   .     S
C520   H549    1.096   .     S
C520   C525    1.505   .     S
C520   H551    1.111   .     S
C520   H550    1.110   .     S
C521   C528    1.510   .     S
C521   H553    1.110   .     S
C521   H554    1.112   .     S
C522   H555    1.110   .     S
C522   H557    1.112   .     S
C522   H64     1.108   1_556 S
C523   C525    1.407   .     A
C523   F536    1.357   .     S
C524   N565    1.380   .     A
C525   N566    1.380   .     A
C526   H558    1.083   .     S
C526   C528    1.418   .     A
C526   N565    1.360   .     A
C527   N566    1.360   .     A
C527   H559    1.083   .     S
Cu529  N566    2.026   .     S
Cu529  O571    1.966   .     S
Cu529  O567    1.957   .     S
Cu529  Cu530   2.697   .     S
Cu529  O574    1.964   .     S
Cu529  O570    1.940   .     S
Cu530  O568    1.957   .     S
Cu530  O573    1.964   .     S
Cu530  O569    1.940   .     S
Cu530  O572    1.966   .     S
Cu530  N565    2.026   .     S
F531   C581    1.363   .     S
F532   C664    1.363   1_455 S
H539   C763    1.109   .     S
H543   C764    1.109   1_545 S
H552   C29     1.108   1_556 S
C575   O651    1.297   .     A
C575   O649    1.298   .     A
C575   C588    1.456   .     S
C576   C609    1.418   .     A
C576   C578    1.439   .     A
C576   C604    1.510   .     S
C577   C597    1.403   .     A
C577   C610    1.439   .     A
C578   C605    1.403   .     A
C578   C85     1.552   1_556 S
C579   O653    1.292   .     A
C579   C581    1.431   .     S
C579   O655    1.293   .     A
C580   O656    1.293   .     A
C580   C582    1.431   .     S
C580   O654    1.292   .     A
C582   C663    1.343   .     S
C582   F696    1.363   .     S
C583   C594    1.411   .     A
C583   C585    1.385   .     A
C583   F615    1.354   .     S
C584   F616    1.354   .     S
C584   C595    1.411   .     A
C584   C587    1.385   .     A
C585   C588    1.393   .     A
C585   H619    1.083   .     S
C586   O652    1.297   .     A
C586   C589    1.456   .     S
C586   O650    1.298   .     A
C587   H630    1.083   .     S
C587   C589    1.393   .     A
C588   C590    1.412   .     A
C589   C591    1.412   .     A
C590   C596    1.517   .     S
C590   C592    1.417   .     A
C591   C598    1.517   .     S
C591   C593    1.417   .     A
C592   C594    1.428   .     A
C592   C599    1.517   .     S
C593   C595    1.428   .     A
C593   C600    1.517   .     S
C594   C841    1.516   1_545 S
C595   C840    1.516   .     S
C596   H643    1.107   .     S
C596   H642    1.111   .     S
C596   H644    1.109   .     S
C597   F617    1.357   .     S
C597   C606    1.407   .     A
C598   H646    1.109   .     S
C598   H620    1.107   .     S
C598   H645    1.111   .     S
C599   H622    1.109   .     S
C599   H623    1.111   .     S
C599   H867    1.109   1_545 S
C600   H624    1.109   .     S
C600   H626    1.111   .     S
C600   H871    1.109   .     S
C601   H628    1.111   .     S
C601   H629    1.110   .     S
C601   C606    1.505   .     S
C601   H627    1.096   .     S
C602   H631    1.096   .     S
C602   C607    1.505   .     S
C602   H633    1.111   .     S
C602   H632    1.110   .     S
C603   C610    1.510   .     S
C603   H635    1.110   .     S
C603   H636    1.112   .     S
C604   H637    1.110   .     S
C604   H639    1.112   .     S
C604   H146    1.108   1_556 S
C605   C607    1.407   .     A
C605   F618    1.357   .     S
C606   N647    1.380   .     A
C607   N648    1.380   .     A
C608   H640    1.083   .     S
C608   C610    1.418   .     A
C608   N647    1.360   .     A
C609   N648    1.360   .     A
C609   H641    1.083   .     S
Cu611  N648    2.026   .     S
Cu611  O653    1.966   .     S
Cu611  O649    1.957   .     S
Cu611  Cu612   2.697   .     S
Cu611  O656    1.964   .     S
Cu611  O652    1.940   .     S
Cu612  O650    1.957   .     S
Cu612  O655    1.964   .     S
Cu612  O651    1.940   .     S
Cu612  O654    1.966   .     S
Cu612  N647    2.026   .     S
F613   C663    1.363   .     S
H621   C845    1.109   .     S
H625   C846    1.109   1_545 S
H634   C111    1.108   1_556 S
C657   O733    1.297   .     A
C657   O731    1.298   .     A
C657   C670    1.456   .     S
C658   C691    1.418   .     A
C658   C660    1.439   .     A
C658   C686    1.510   .     S
C659   C679    1.403   .     A
C659   C692    1.439   .     A
C660   C687    1.403   .     A
C660   C167    1.552   1_556 S
C661   O735    1.292   .     A
C661   C663    1.431   .     S
C661   O737    1.293   .     A
C662   O738    1.293   .     A
C662   C664    1.431   .     S
C662   O736    1.292   .     A
C664   C499    1.343   1_655 S
C664   F532    1.363   1_655 S
C665   C676    1.411   .     A
C665   C667    1.385   .     A
C665   F697    1.354   .     S
C666   F698    1.354   .     S
C666   C677    1.411   .     A
C666   C669    1.385   .     A
C667   C670    1.393   .     A
C667   H701    1.083   .     S
C668   O734    1.297   .     A
C668   C671    1.456   .     S
C668   O732    1.298   .     A
C669   H712    1.083   .     S
C669   C671    1.393   .     A
C670   C672    1.412   .     A
C671   C673    1.412   .     A
C672   C678    1.517   .     S
C672   C674    1.417   .     A
C673   C680    1.517   .     S
C673   C675    1.417   .     A
C674   C676    1.428   .     A
C674   C681    1.517   .     S
C675   C677    1.428   .     A
C675   C682    1.517   .     S
C676   C923    1.516   1_545 S
C677   C922    1.516   .     S
C678   H725    1.107   .     S
C678   H724    1.111   .     S
C678   H726    1.109   .     S
C679   F699    1.357   .     S
C679   C688    1.407   .     A
C680   H728    1.109   .     S
C680   H702    1.107   .     S
C680   H727    1.111   .     S
C681   H704    1.109   .     S
C681   H705    1.111   .     S
C681   H949    1.109   1_545 S
C682   H706    1.109   .     S
C682   H708    1.111   .     S
C682   H953    1.109   .     S
C683   H710    1.111   .     S
C683   H711    1.110   .     S
C683   C688    1.505   .     S
C683   H709    1.096   .     S
C684   H713    1.096   .     S
C684   C689    1.505   .     S
C684   H715    1.111   .     S
C684   H714    1.110   .     S
C685   C692    1.510   .     S
C685   H717    1.110   .     S
C685   H718    1.112   .     S
C686   H719    1.110   .     S
C686   H721    1.112   .     S
C686   H228    1.108   1_556 S
C687   C689    1.407   .     A
C687   F700    1.357   .     S
C688   N729    1.380   .     A
C689   N730    1.380   .     A
C690   H722    1.083   .     S
C690   C692    1.418   .     A
C690   N729    1.360   .     A
C691   N730    1.360   .     A
C691   H723    1.083   .     S
Cu693  N730    2.026   .     S
Cu693  O735    1.966   .     S
Cu693  O731    1.957   .     S
Cu693  Cu694   2.697   .     S
Cu693  O738    1.964   .     S
Cu693  O734    1.940   .     S
Cu694  O732    1.957   .     S
Cu694  O737    1.964   .     S
Cu694  O733    1.940   .     S
Cu694  O736    1.966   .     S
Cu694  N729    2.026   .     S
F695   C499    1.363   1_655 S
H703   C927    1.109   .     S
H707   C928    1.109   1_545 S
H716   C193    1.108   1_556 S
C739   O815    1.297   .     A
C739   O813    1.298   .     A
C739   C752    1.456   .     S
C740   C773    1.418   .     A
C740   C742    1.439   .     A
C740   C768    1.510   .     S
C741   C761    1.403   .     A
C741   C774    1.439   .     A
C742   C769    1.403   .     A
C742   C249    1.552   1_556 S
C743   O817    1.292   .     A
C743   C745    1.431   .     S
C743   O819    1.293   .     A
C744   O820    1.293   .     A
C744   C746    1.431   .     S
C744   O818    1.292   .     A
C745   C910    1.343   1_455 S
C745   F941    1.363   1_455 S
C746   C827    1.343   .     S
C746   F860    1.363   .     S
C747   C758    1.411   .     A
C747   C749    1.385   .     A
C747   F779    1.354   .     S
C748   F780    1.354   .     S
C748   C759    1.411   .     A
C748   C751    1.385   .     A
C749   C752    1.393   .     A
C749   H783    1.083   .     S
C750   O816    1.297   .     A
C750   C753    1.456   .     S
C750   O814    1.298   .     A
C751   H794    1.083   .     S
C751   C753    1.393   .     A
C752   C754    1.412   .     A
C753   C755    1.412   .     A
C754   C760    1.517   .     S
C754   C756    1.417   .     A
C755   C762    1.517   .     S
C755   C757    1.417   .     A
C756   C758    1.428   .     A
C756   C763    1.517   .     S
C757   C759    1.428   .     A
C757   C764    1.517   .     S
C759   C512    1.516   1_565 S
C760   H807    1.107   .     S
C760   H806    1.111   .     S
C760   H808    1.109   .     S
C761   F781    1.357   .     S
C761   C770    1.407   .     A
C762   H810    1.109   .     S
C762   H784    1.107   .     S
C762   H809    1.111   .     S
C763   H786    1.109   .     S
C763   H787    1.111   .     S
C764   H788    1.109   .     S
C764   H790    1.111   .     S
C764   H543    1.109   1_565 S
C765   H792    1.111   .     S
C765   H793    1.110   .     S
C765   C770    1.505   .     S
C765   H791    1.096   .     S
C766   H795    1.096   .     S
C766   C771    1.505   .     S
C766   H797    1.111   .     S
C766   H796    1.110   .     S
C767   C774    1.510   .     S
C767   H799    1.110   .     S
C767   H800    1.112   .     S
C768   H801    1.110   .     S
C768   H803    1.112   .     S
C768   H310    1.108   1_556 S
C769   C771    1.407   .     A
C769   F782    1.357   .     S
C770   N811    1.380   .     A
C771   N812    1.380   .     A
C772   H804    1.083   .     S
C772   C774    1.418   .     A
C772   N811    1.360   .     A
C773   N812    1.360   .     A
C773   H805    1.083   .     S
Cu775  N812    2.026   .     S
Cu775  O817    1.966   .     S
Cu775  O813    1.957   .     S
Cu775  Cu776   2.697   .     S
Cu775  O820    1.964   .     S
Cu775  O816    1.940   .     S
Cu776  O814    1.957   .     S
Cu776  O819    1.964   .     S
Cu776  O815    1.940   .     S
Cu776  O818    1.966   .     S
Cu776  N811    2.026   .     S
F777   C827    1.363   .     S
F778   C910    1.363   1_455 S
H785   C517    1.109   1_565 S
H798   C275    1.108   1_556 S
C821   O897    1.297   .     A
C821   O895    1.298   .     A
C821   C834    1.456   .     S
C822   C855    1.418   .     A
C822   C824    1.439   .     A
C822   C850    1.510   .     S
C823   C843    1.403   .     A
C823   C856    1.439   .     A
C824   C851    1.403   .     A
C824   C331    1.552   1_556 S
C825   O899    1.292   .     A
C825   C827    1.431   .     S
C825   O901    1.293   .     A
C826   O902    1.293   .     A
C826   C828    1.431   .     S
C826   O900    1.292   .     A
C828   C909    1.343   .     S
C828   F942    1.363   .     S
C829   C840    1.411   .     A
C829   C831    1.385   .     A
C829   F861    1.354   .     S
C830   F862    1.354   .     S
C830   C841    1.411   .     A
C830   C833    1.385   .     A
C831   C834    1.393   .     A
C831   H865    1.083   .     S
C832   O898    1.297   .     A
C832   C835    1.456   .     S
C832   O896    1.298   .     A
C833   H876    1.083   .     S
C833   C835    1.393   .     A
C834   C836    1.412   .     A
C835   C837    1.412   .     A
C836   C842    1.517   .     S
C836   C838    1.417   .     A
C837   C844    1.517   .     S
C837   C839    1.417   .     A
C838   C840    1.428   .     A
C838   C845    1.517   .     S
C839   C841    1.428   .     A
C839   C846    1.517   .     S
C841   C594    1.516   1_565 S
C842   H889    1.107   .     S
C842   H888    1.111   .     S
C842   H890    1.109   .     S
C843   F863    1.357   .     S
C843   C852    1.407   .     A
C844   H892    1.109   .     S
C844   H866    1.107   .     S
C844   H891    1.111   .     S
C845   H868    1.109   .     S
C845   H869    1.111   .     S
C846   H870    1.109   .     S
C846   H872    1.111   .     S
C846   H625    1.109   1_565 S
C847   H874    1.111   .     S
C847   H875    1.110   .     S
C847   C852    1.505   .     S
C847   H873    1.096   .     S
C848   H877    1.096   .     S
C848   C853    1.505   .     S
C848   H879    1.111   .     S
C848   H878    1.110   .     S
C849   C856    1.510   .     S
C849   H881    1.110   .     S
C849   H882    1.112   .     S
C850   H883    1.110   .     S
C850   H885    1.112   .     S
C850   H392    1.108   1_556 S
C851   C853    1.407   .     A
C851   F864    1.357   .     S
C852   N893    1.380   .     A
C853   N894    1.380   .     A
C854   H886    1.083   .     S
C854   C856    1.418   .     A
C854   N893    1.360   .     A
C855   N894    1.360   .     A
C855   H887    1.083   .     S
Cu857  N894    2.026   .     S
Cu857  O899    1.966   .     S
Cu857  O895    1.957   .     S
Cu857  Cu858   2.697   .     S
Cu857  O902    1.964   .     S
Cu857  O898    1.940   .     S
Cu858  O896    1.957   .     S
Cu858  O901    1.964   .     S
Cu858  O897    1.940   .     S
Cu858  O900    1.966   .     S
Cu858  N893    2.026   .     S
F859   C909    1.363   .     S
H867   C599    1.109   1_565 S
H880   C357    1.108   1_556 S
C903   O979    1.297   .     A
C903   O977    1.298   .     A
C903   C916    1.456   .     S
C904   C937    1.418   .     A
C904   C906    1.439   .     A
C904   C932    1.510   .     S
C905   C925    1.403   .     A
C905   C938    1.439   .     A
C906   C933    1.403   .     A
C906   C413    1.552   1_556 S
C907   O981    1.292   .     A
C907   C909    1.431   .     S
C907   O983    1.293   .     A
C908   O984    1.293   .     A
C908   C910    1.431   .     S
C908   O982    1.292   .     A
C910   C745    1.343   1_655 S
C910   F778    1.363   1_655 S
C911   C922    1.411   .     A
C911   C913    1.385   .     A
C911   F943    1.354   .     S
C912   F944    1.354   .     S
C912   C923    1.411   .     A
C912   C915    1.385   .     A
C913   C916    1.393   .     A
C913   H947    1.083   .     S
C914   O980    1.297   .     A
C914   C917    1.456   .     S
C914   O978    1.298   .     A
C915   H958    1.083   .     S
C915   C917    1.393   .     A
C916   C918    1.412   .     A
C917   C919    1.412   .     A
C918   C924    1.517   .     S
C918   C920    1.417   .     A
C919   C926    1.517   .     S
C919   C921    1.417   .     A
C920   C922    1.428   .     A
C920   C927    1.517   .     S
C921   C923    1.428   .     A
C921   C928    1.517   .     S
C923   C676    1.516   1_565 S
C924   H971    1.107   .     S
C924   H970    1.111   .     S
C924   H972    1.109   .     S
C925   F945    1.357   .     S
C925   C934    1.407   .     A
C926   H974    1.109   .     S
C926   H948    1.107   .     S
C926   H973    1.111   .     S
C927   H950    1.109   .     S
C927   H951    1.111   .     S
C928   H952    1.109   .     S
C928   H954    1.111   .     S
C928   H707    1.109   1_565 S
C929   H956    1.111   .     S
C929   H957    1.110   .     S
C929   C934    1.505   .     S
C929   H955    1.096   .     S
C930   H959    1.096   .     S
C930   C935    1.505   .     S
C930   H961    1.111   .     S
C930   H960    1.110   .     S
C931   C938    1.510   .     S
C931   H963    1.110   .     S
C931   H964    1.112   .     S
C932   H965    1.110   .     S
C932   H967    1.112   .     S
C932   H474    1.108   1_556 S
C933   C935    1.407   .     A
C933   F946    1.357   .     S
C934   N975    1.380   .     A
C935   N976    1.380   .     A
C936   H968    1.083   .     S
C936   C938    1.418   .     A
C936   N975    1.360   .     A
C937   N976    1.360   .     A
C937   H969    1.083   .     S
Cu939  N976    2.026   .     S
Cu939  O981    1.966   .     S
Cu939  O977    1.957   .     S
Cu939  Cu940   2.697   .     S
Cu939  O984    1.964   .     S
Cu939  O980    1.940   .     S
Cu940  O978    1.957   .     S
Cu940  O983    1.964   .     S
Cu940  O979    1.940   .     S
Cu940  O982    1.966   .     S
Cu940  N975    2.026   .     S
F941   C745    1.363   1_655 S
H949   C681    1.109   1_565 S
H962   C439    1.108   1_556 S
