data_str_m3_o10_o16_pcu_sym.83
_audit_creation_date              2020-01-03
_audit_creation_method            'Materials Studio'
_symmetry_space_group_name_H-M    'P1'
_symmetry_Int_Tables_number       1
_symmetry_cell_setting            triclinic
loop_
_symmetry_equiv_pos_as_xyz
  x,y,z
_cell_length_a                    23.4209
_cell_length_b                    25.9122
_cell_length_c                    24.2877
_cell_angle_alpha                 91.9329
_cell_angle_beta                  101.1553
_cell_angle_gamma                 94.3616
loop_
_atom_site_label
_atom_site_type_symbol
_atom_site_fract_x
_atom_site_fract_y
_atom_site_fract_z
_atom_site_U_iso_or_equiv
_atom_site_adp_type
_atom_site_occupancy
C1     C     0.01552   0.26484   0.24970   0.00000  Uiso   1.00
C2     C     0.05312   0.16963   0.41602   0.00000  Uiso   1.00
C3     C     0.02700   0.31908   0.25456   0.00000  Uiso   1.00
C4     C     0.03541   0.16838   0.35519   0.00000  Uiso   1.00
C5     C     0.31459   0.01421   0.25766   0.00000  Uiso   1.00
C6     C     0.31953   0.06859   0.25372   0.00000  Uiso   1.00
C7     C     0.29749   0.16305   0.14493   0.00000  Uiso   1.00
C8     C     0.26997   0.09771   0.00233   0.00000  Uiso   1.00
C9     C     0.27678   0.15333   0.08533   0.00000  Uiso   1.00
C10    C     0.02462   0.20043   0.44897   0.00000  Uiso   1.00
C11    C     0.04847   0.21113   0.00544   0.00000  Uiso   1.00
C12    C     0.13223   0.16359   0.49513   0.00000  Uiso   1.00
C13    C     0.10246   0.19399   0.02835   0.00000  Uiso   1.00
C14    C     0.08905   0.00504   0.25559   0.00000  Uiso   1.00
C15    C     0.10341   0.14634   0.44071   0.00000  Uiso   1.00
C16    C     0.18964   0.14977   0.01387   0.00000  Uiso   1.00
C17    C     0.21368   0.11275   0.48237   0.00000  Uiso   1.00
C18    C     0.18060   0.09048   0.43227   0.00000  Uiso   1.00
C19    C     0.12594   0.10699   0.41177   0.00000  Uiso   1.00
C20    C     0.22414   0.17239   0.06288   0.00000  Uiso   1.00
C21    C     0.30107   0.11712   0.05459   0.00000  Uiso   1.00
H22    H     0.00893   0.10207   0.07208   0.00000  Uiso   1.00
H23    H     0.02617   0.23442   0.03105   0.00000  Uiso   1.00
H24    H     0.10087   0.08842   0.37333   0.00000  Uiso   1.00
H25    H     0.10996   0.32710   0.22138   0.00000  Uiso   1.00
H26    H     0.27117   0.33014   0.25898   0.00000  Uiso   1.00
H27    H     0.15684   0.12524   0.20863   0.00000  Uiso   1.00
H28    H     0.17649   0.20806   0.29140   0.00000  Uiso   1.00
H29    H     0.19724   0.06085   0.40857   0.00000  Uiso   1.00
H30    H     0.28862   0.06931   0.47884   0.00000  Uiso   1.00
H31    H     0.20971   0.20332   0.08632   0.00000  Uiso   1.00
H32    H     0.31833   0.21762   0.43067   0.00000  Uiso   1.00
H33    H     0.11907   0.20397   0.07230   0.00000  Uiso   1.00
N34    N     0.14493   0.15223   0.23542   0.00000  Uiso   1.00
N35    N     0.18840   0.18110   0.26457   0.00000  Uiso   1.00
O36    O     0.29769   0.24629   0.25357   0.00000  Uiso   1.00
O37    O     0.05742   0.23704   0.24423   0.00000  Uiso   1.00
O38    O     0.31490   0.17358   0.33380   0.00000  Uiso   1.00
O39    O     0.07463   0.16433   0.32446   0.00000  Uiso   1.00
O40    O     0.27592   0.09629   0.25576   0.00000  Uiso   1.00
O41    O     0.03565   0.08704   0.24642   0.00000  Uiso   1.00
O42    O     0.25870   0.16901   0.17554   0.00000  Uiso   1.00
O43    O     0.01843   0.15976   0.16620   0.00000  Uiso   1.00
O44    O     0.11790   0.03037   0.29610   0.00000  Uiso   1.00
Zn45   Zn    0.27119   0.17284   0.25623   0.00000  Uiso   1.00
Zn46   Zn    0.06214   0.16049   0.24376   0.00000  Uiso   1.00
C47    C     0.34885   0.26484   0.24970   0.00000  Uiso   1.00
C48    C     0.38645   0.16963   0.41602   0.00000  Uiso   1.00
C49    C     0.36033   0.31908   0.25456   0.00000  Uiso   1.00
C50    C     0.36874   0.16838   0.35519   0.00000  Uiso   1.00
C51    C     0.64792   0.01421   0.25766   0.00000  Uiso   1.00
C52    C     0.65287   0.06859   0.25372   0.00000  Uiso   1.00
C53    C     0.63082   0.16305   0.14493   0.00000  Uiso   1.00
C54    C     0.60331   0.09771   0.00233   0.00000  Uiso   1.00
C55    C     0.61011   0.15333   0.08533   0.00000  Uiso   1.00
C56    C     0.35795   0.20043   0.44897   0.00000  Uiso   1.00
C57    C     0.38180   0.21113   0.00544   0.00000  Uiso   1.00
C58    C     0.46556   0.16359   0.49513   0.00000  Uiso   1.00
C59    C     0.43579   0.19399   0.02835   0.00000  Uiso   1.00
C60    C     0.42239   0.00504   0.25559   0.00000  Uiso   1.00
C61    C     0.43674   0.14634   0.44071   0.00000  Uiso   1.00
C62    C     0.52298   0.14977   0.01387   0.00000  Uiso   1.00
C63    C     0.54702   0.11275   0.48237   0.00000  Uiso   1.00
C64    C     0.51394   0.09048   0.43227   0.00000  Uiso   1.00
C65    C     0.45928   0.10699   0.41177   0.00000  Uiso   1.00
C66    C     0.55747   0.17239   0.06288   0.00000  Uiso   1.00
C67    C     0.63440   0.11712   0.05459   0.00000  Uiso   1.00
H68    H     0.34226   0.10207   0.07208   0.00000  Uiso   1.00
H69    H     0.35950   0.23442   0.03105   0.00000  Uiso   1.00
H70    H     0.43420   0.08842   0.37333   0.00000  Uiso   1.00
H71    H     0.44330   0.32710   0.22138   0.00000  Uiso   1.00
H72    H     0.60450   0.33014   0.25898   0.00000  Uiso   1.00
H73    H     0.49017   0.12524   0.20863   0.00000  Uiso   1.00
H74    H     0.50982   0.20806   0.29140   0.00000  Uiso   1.00
H75    H     0.53058   0.06085   0.40857   0.00000  Uiso   1.00
H76    H     0.62195   0.06931   0.47884   0.00000  Uiso   1.00
H77    H     0.54304   0.20332   0.08632   0.00000  Uiso   1.00
H78    H     0.65166   0.21762   0.43067   0.00000  Uiso   1.00
H79    H     0.45240   0.20397   0.07230   0.00000  Uiso   1.00
N80    N     0.47827   0.15223   0.23542   0.00000  Uiso   1.00
N81    N     0.52173   0.18110   0.26457   0.00000  Uiso   1.00
O82    O     0.63102   0.24629   0.25357   0.00000  Uiso   1.00
O83    O     0.39075   0.23704   0.24423   0.00000  Uiso   1.00
O84    O     0.64823   0.17358   0.33380   0.00000  Uiso   1.00
O85    O     0.40796   0.16433   0.32446   0.00000  Uiso   1.00
O86    O     0.60925   0.09629   0.25576   0.00000  Uiso   1.00
O87    O     0.36898   0.08704   0.24642   0.00000  Uiso   1.00
O88    O     0.59204   0.16901   0.17554   0.00000  Uiso   1.00
O89    O     0.35177   0.15976   0.16620   0.00000  Uiso   1.00
O90    O     0.45123   0.03037   0.29610   0.00000  Uiso   1.00
Zn91   Zn    0.60453   0.17284   0.25623   0.00000  Uiso   1.00
Zn92   Zn    0.39547   0.16049   0.24376   0.00000  Uiso   1.00
C93    C     0.68219   0.26484   0.24970   0.00000  Uiso   1.00
C94    C     0.71979   0.16963   0.41602   0.00000  Uiso   1.00
C95    C     0.69367   0.31908   0.25456   0.00000  Uiso   1.00
C96    C     0.70207   0.16838   0.35519   0.00000  Uiso   1.00
C97    C     0.98125   0.01421   0.25766   0.00000  Uiso   1.00
C98    C     0.98620   0.06859   0.25372   0.00000  Uiso   1.00
C99    C     0.96416   0.16305   0.14493   0.00000  Uiso   1.00
C100   C     0.93664   0.09771   0.00233   0.00000  Uiso   1.00
C101   C     0.94344   0.15333   0.08533   0.00000  Uiso   1.00
C102   C     0.69128   0.20043   0.44897   0.00000  Uiso   1.00
C103   C     0.71514   0.21113   0.00544   0.00000  Uiso   1.00
C104   C     0.79890   0.16359   0.49513   0.00000  Uiso   1.00
C105   C     0.76913   0.19399   0.02835   0.00000  Uiso   1.00
C106   C     0.75572   0.00504   0.25559   0.00000  Uiso   1.00
C107   C     0.77008   0.14634   0.44071   0.00000  Uiso   1.00
C108   C     0.85631   0.14977   0.01387   0.00000  Uiso   1.00
C109   C     0.88035   0.11275   0.48237   0.00000  Uiso   1.00
C110   C     0.84727   0.09048   0.43227   0.00000  Uiso   1.00
C111   C     0.79261   0.10699   0.41177   0.00000  Uiso   1.00
C112   C     0.89080   0.17239   0.06288   0.00000  Uiso   1.00
C113   C     0.96773   0.11712   0.05459   0.00000  Uiso   1.00
H114   H     0.67560   0.10207   0.07208   0.00000  Uiso   1.00
H115   H     0.69283   0.23442   0.03105   0.00000  Uiso   1.00
H116   H     0.76754   0.08842   0.37333   0.00000  Uiso   1.00
H117   H     0.77663   0.32710   0.22138   0.00000  Uiso   1.00
H118   H     0.93784   0.33014   0.25898   0.00000  Uiso   1.00
H119   H     0.82350   0.12524   0.20863   0.00000  Uiso   1.00
H120   H     0.84315   0.20806   0.29140   0.00000  Uiso   1.00
H121   H     0.86391   0.06085   0.40857   0.00000  Uiso   1.00
H122   H     0.95529   0.06931   0.47884   0.00000  Uiso   1.00
H123   H     0.87637   0.20332   0.08632   0.00000  Uiso   1.00
H124   H     0.98500   0.21762   0.43067   0.00000  Uiso   1.00
H125   H     0.78573   0.20397   0.07230   0.00000  Uiso   1.00
N126   N     0.81160   0.15223   0.23542   0.00000  Uiso   1.00
N127   N     0.85507   0.18110   0.26457   0.00000  Uiso   1.00
O128   O     0.96435   0.24629   0.25357   0.00000  Uiso   1.00
O129   O     0.72408   0.23704   0.24423   0.00000  Uiso   1.00
O130   O     0.98157   0.17358   0.33380   0.00000  Uiso   1.00
O131   O     0.74130   0.16433   0.32446   0.00000  Uiso   1.00
O132   O     0.94258   0.09629   0.25576   0.00000  Uiso   1.00
O133   O     0.70231   0.08704   0.24642   0.00000  Uiso   1.00
O134   O     0.92537   0.16901   0.17554   0.00000  Uiso   1.00
O135   O     0.68510   0.15976   0.16620   0.00000  Uiso   1.00
O136   O     0.78457   0.03037   0.29610   0.00000  Uiso   1.00
Zn137  Zn    0.93786   0.17284   0.25623   0.00000  Uiso   1.00
Zn138  Zn    0.72881   0.16049   0.24376   0.00000  Uiso   1.00
C139   C     0.01552   0.59817   0.24970   0.00000  Uiso   1.00
C140   C     0.05312   0.50297   0.41602   0.00000  Uiso   1.00
C141   C     0.02700   0.65241   0.25456   0.00000  Uiso   1.00
C142   C     0.03541   0.50172   0.35519   0.00000  Uiso   1.00
C143   C     0.31459   0.34754   0.25766   0.00000  Uiso   1.00
C144   C     0.31953   0.40193   0.25372   0.00000  Uiso   1.00
C145   C     0.29749   0.49639   0.14493   0.00000  Uiso   1.00
C146   C     0.26997   0.43104   0.00233   0.00000  Uiso   1.00
C147   C     0.27678   0.48666   0.08533   0.00000  Uiso   1.00
C148   C     0.02462   0.53377   0.44897   0.00000  Uiso   1.00
C149   C     0.04847   0.54446   0.00544   0.00000  Uiso   1.00
C150   C     0.13223   0.49693   0.49513   0.00000  Uiso   1.00
C151   C     0.10246   0.52732   0.02835   0.00000  Uiso   1.00
C152   C     0.08905   0.33837   0.25559   0.00000  Uiso   1.00
C153   C     0.10341   0.47968   0.44071   0.00000  Uiso   1.00
C154   C     0.18964   0.48311   0.01387   0.00000  Uiso   1.00
C155   C     0.21368   0.44609   0.48237   0.00000  Uiso   1.00
C156   C     0.18060   0.42381   0.43227   0.00000  Uiso   1.00
C157   C     0.12594   0.44032   0.41177   0.00000  Uiso   1.00
C158   C     0.22414   0.50573   0.06288   0.00000  Uiso   1.00
C159   C     0.30107   0.45046   0.05459   0.00000  Uiso   1.00
H160   H     0.00893   0.43540   0.07208   0.00000  Uiso   1.00
H161   H     0.02617   0.56776   0.03105   0.00000  Uiso   1.00
H162   H     0.10087   0.42175   0.37333   0.00000  Uiso   1.00
H163   H     0.10996   0.66043   0.22138   0.00000  Uiso   1.00
H164   H     0.27117   0.66347   0.25898   0.00000  Uiso   1.00
H165   H     0.15684   0.45857   0.20863   0.00000  Uiso   1.00
H166   H     0.17649   0.54139   0.29140   0.00000  Uiso   1.00
H167   H     0.19724   0.39418   0.40857   0.00000  Uiso   1.00
H168   H     0.28862   0.40264   0.47884   0.00000  Uiso   1.00
H169   H     0.20971   0.53665   0.08632   0.00000  Uiso   1.00
H170   H     0.31833   0.55096   0.43067   0.00000  Uiso   1.00
H171   H     0.11907   0.53731   0.07230   0.00000  Uiso   1.00
N172   N     0.14493   0.48556   0.23542   0.00000  Uiso   1.00
N173   N     0.18840   0.51444   0.26457   0.00000  Uiso   1.00
O174   O     0.29769   0.57963   0.25357   0.00000  Uiso   1.00
O175   O     0.05742   0.57038   0.24423   0.00000  Uiso   1.00
O176   O     0.31490   0.50691   0.33380   0.00000  Uiso   1.00
O177   O     0.07463   0.49766   0.32446   0.00000  Uiso   1.00
O178   O     0.27592   0.42962   0.25576   0.00000  Uiso   1.00
O179   O     0.03565   0.42037   0.24642   0.00000  Uiso   1.00
O180   O     0.25870   0.50234   0.17554   0.00000  Uiso   1.00
O181   O     0.01843   0.49309   0.16620   0.00000  Uiso   1.00
O182   O     0.11790   0.36370   0.29610   0.00000  Uiso   1.00
Zn183  Zn    0.27119   0.50618   0.25623   0.00000  Uiso   1.00
Zn184  Zn    0.06214   0.49382   0.24376   0.00000  Uiso   1.00
C185   C     0.34885   0.59817   0.24970   0.00000  Uiso   1.00
C186   C     0.38645   0.50297   0.41602   0.00000  Uiso   1.00
C187   C     0.36033   0.65241   0.25456   0.00000  Uiso   1.00
C188   C     0.36874   0.50172   0.35519   0.00000  Uiso   1.00
C189   C     0.64792   0.34754   0.25766   0.00000  Uiso   1.00
C190   C     0.65287   0.40193   0.25372   0.00000  Uiso   1.00
C191   C     0.63082   0.49639   0.14493   0.00000  Uiso   1.00
C192   C     0.60331   0.43104   0.00233   0.00000  Uiso   1.00
C193   C     0.61011   0.48666   0.08533   0.00000  Uiso   1.00
C194   C     0.35795   0.53377   0.44897   0.00000  Uiso   1.00
C195   C     0.38180   0.54446   0.00544   0.00000  Uiso   1.00
C196   C     0.46556   0.49693   0.49513   0.00000  Uiso   1.00
C197   C     0.43579   0.52732   0.02835   0.00000  Uiso   1.00
C198   C     0.42239   0.33837   0.25559   0.00000  Uiso   1.00
C199   C     0.43674   0.47968   0.44071   0.00000  Uiso   1.00
C200   C     0.52298   0.48311   0.01387   0.00000  Uiso   1.00
C201   C     0.54702   0.44609   0.48237   0.00000  Uiso   1.00
C202   C     0.51394   0.42381   0.43227   0.00000  Uiso   1.00
C203   C     0.45928   0.44032   0.41177   0.00000  Uiso   1.00
C204   C     0.55747   0.50573   0.06288   0.00000  Uiso   1.00
C205   C     0.63440   0.45046   0.05459   0.00000  Uiso   1.00
H206   H     0.34226   0.43540   0.07208   0.00000  Uiso   1.00
H207   H     0.35950   0.56776   0.03105   0.00000  Uiso   1.00
H208   H     0.43420   0.42175   0.37333   0.00000  Uiso   1.00
H209   H     0.44330   0.66043   0.22138   0.00000  Uiso   1.00
H210   H     0.60450   0.66347   0.25898   0.00000  Uiso   1.00
H211   H     0.49017   0.45857   0.20863   0.00000  Uiso   1.00
H212   H     0.50982   0.54139   0.29140   0.00000  Uiso   1.00
H213   H     0.53058   0.39418   0.40857   0.00000  Uiso   1.00
H214   H     0.62195   0.40264   0.47884   0.00000  Uiso   1.00
H215   H     0.54304   0.53665   0.08632   0.00000  Uiso   1.00
H216   H     0.65166   0.55096   0.43067   0.00000  Uiso   1.00
H217   H     0.45240   0.53731   0.07230   0.00000  Uiso   1.00
N218   N     0.47827   0.48556   0.23542   0.00000  Uiso   1.00
N219   N     0.52173   0.51444   0.26457   0.00000  Uiso   1.00
O220   O     0.63102   0.57963   0.25357   0.00000  Uiso   1.00
O221   O     0.39075   0.57038   0.24423   0.00000  Uiso   1.00
O222   O     0.64823   0.50691   0.33380   0.00000  Uiso   1.00
O223   O     0.40796   0.49766   0.32446   0.00000  Uiso   1.00
O224   O     0.60925   0.42962   0.25576   0.00000  Uiso   1.00
O225   O     0.36898   0.42037   0.24642   0.00000  Uiso   1.00
O226   O     0.59204   0.50234   0.17554   0.00000  Uiso   1.00
O227   O     0.35177   0.49309   0.16620   0.00000  Uiso   1.00
O228   O     0.45123   0.36370   0.29610   0.00000  Uiso   1.00
Zn229  Zn    0.60453   0.50618   0.25623   0.00000  Uiso   1.00
Zn230  Zn    0.39547   0.49382   0.24376   0.00000  Uiso   1.00
C231   C     0.68219   0.59817   0.24970   0.00000  Uiso   1.00
C232   C     0.71979   0.50297   0.41602   0.00000  Uiso   1.00
C233   C     0.69367   0.65241   0.25456   0.00000  Uiso   1.00
C234   C     0.70207   0.50172   0.35519   0.00000  Uiso   1.00
C235   C     0.98125   0.34754   0.25766   0.00000  Uiso   1.00
C236   C     0.98620   0.40193   0.25372   0.00000  Uiso   1.00
C237   C     0.96416   0.49639   0.14493   0.00000  Uiso   1.00
C238   C     0.93664   0.43104   0.00233   0.00000  Uiso   1.00
C239   C     0.94344   0.48666   0.08533   0.00000  Uiso   1.00
C240   C     0.69128   0.53377   0.44897   0.00000  Uiso   1.00
C241   C     0.71514   0.54446   0.00544   0.00000  Uiso   1.00
C242   C     0.79890   0.49693   0.49513   0.00000  Uiso   1.00
C243   C     0.76913   0.52732   0.02835   0.00000  Uiso   1.00
C244   C     0.75572   0.33837   0.25559   0.00000  Uiso   1.00
C245   C     0.77008   0.47968   0.44071   0.00000  Uiso   1.00
C246   C     0.85631   0.48311   0.01387   0.00000  Uiso   1.00
C247   C     0.88035   0.44609   0.48237   0.00000  Uiso   1.00
C248   C     0.84727   0.42381   0.43227   0.00000  Uiso   1.00
C249   C     0.79261   0.44032   0.41177   0.00000  Uiso   1.00
C250   C     0.89080   0.50573   0.06288   0.00000  Uiso   1.00
C251   C     0.96773   0.45046   0.05459   0.00000  Uiso   1.00
H252   H     0.67560   0.43540   0.07208   0.00000  Uiso   1.00
H253   H     0.69283   0.56776   0.03105   0.00000  Uiso   1.00
H254   H     0.76754   0.42175   0.37333   0.00000  Uiso   1.00
H255   H     0.77663   0.66043   0.22138   0.00000  Uiso   1.00
H256   H     0.93784   0.66347   0.25898   0.00000  Uiso   1.00
H257   H     0.82350   0.45857   0.20863   0.00000  Uiso   1.00
H258   H     0.84315   0.54139   0.29140   0.00000  Uiso   1.00
H259   H     0.86391   0.39418   0.40857   0.00000  Uiso   1.00
H260   H     0.95529   0.40264   0.47884   0.00000  Uiso   1.00
H261   H     0.87637   0.53665   0.08632   0.00000  Uiso   1.00
H262   H     0.98500   0.55096   0.43067   0.00000  Uiso   1.00
H263   H     0.78573   0.53731   0.07230   0.00000  Uiso   1.00
N264   N     0.81160   0.48556   0.23542   0.00000  Uiso   1.00
N265   N     0.85507   0.51444   0.26457   0.00000  Uiso   1.00
O266   O     0.96435   0.57963   0.25357   0.00000  Uiso   1.00
O267   O     0.72408   0.57038   0.24423   0.00000  Uiso   1.00
O268   O     0.98157   0.50691   0.33380   0.00000  Uiso   1.00
O269   O     0.74130   0.49766   0.32446   0.00000  Uiso   1.00
O270   O     0.94258   0.42962   0.25576   0.00000  Uiso   1.00
O271   O     0.70231   0.42037   0.24642   0.00000  Uiso   1.00
O272   O     0.92537   0.50234   0.17554   0.00000  Uiso   1.00
O273   O     0.68510   0.49309   0.16620   0.00000  Uiso   1.00
O274   O     0.78457   0.36370   0.29610   0.00000  Uiso   1.00
Zn275  Zn    0.93786   0.50618   0.25623   0.00000  Uiso   1.00
Zn276  Zn    0.72881   0.49382   0.24376   0.00000  Uiso   1.00
C277   C     0.01552   0.93150   0.24970   0.00000  Uiso   1.00
C278   C     0.05312   0.83630   0.41602   0.00000  Uiso   1.00
C279   C     0.02700   0.98575   0.25456   0.00000  Uiso   1.00
C280   C     0.03541   0.83505   0.35519   0.00000  Uiso   1.00
C281   C     0.31459   0.68088   0.25766   0.00000  Uiso   1.00
C282   C     0.31953   0.73526   0.25372   0.00000  Uiso   1.00
C283   C     0.29749   0.82972   0.14493   0.00000  Uiso   1.00
C284   C     0.26997   0.76437   0.00233   0.00000  Uiso   1.00
C285   C     0.27678   0.81999   0.08533   0.00000  Uiso   1.00
C286   C     0.02462   0.86710   0.44897   0.00000  Uiso   1.00
C287   C     0.04847   0.87779   0.00544   0.00000  Uiso   1.00
C288   C     0.13223   0.83026   0.49513   0.00000  Uiso   1.00
C289   C     0.10246   0.86065   0.02835   0.00000  Uiso   1.00
C290   C     0.08905   0.67170   0.25559   0.00000  Uiso   1.00
C291   C     0.10341   0.81301   0.44071   0.00000  Uiso   1.00
C292   C     0.18964   0.81644   0.01387   0.00000  Uiso   1.00
C293   C     0.21368   0.77942   0.48237   0.00000  Uiso   1.00
C294   C     0.18060   0.75714   0.43227   0.00000  Uiso   1.00
C295   C     0.12594   0.77366   0.41177   0.00000  Uiso   1.00
C296   C     0.22414   0.83906   0.06288   0.00000  Uiso   1.00
C297   C     0.30107   0.78379   0.05459   0.00000  Uiso   1.00
H298   H     0.00893   0.76874   0.07208   0.00000  Uiso   1.00
H299   H     0.02617   0.90109   0.03105   0.00000  Uiso   1.00
H300   H     0.10087   0.75509   0.37333   0.00000  Uiso   1.00
H301   H     0.10996   0.99376   0.22138   0.00000  Uiso   1.00
H302   H     0.27117   0.99680   0.25898   0.00000  Uiso   1.00
H303   H     0.15684   0.79190   0.20863   0.00000  Uiso   1.00
H304   H     0.17649   0.87473   0.29140   0.00000  Uiso   1.00
H305   H     0.19724   0.72752   0.40857   0.00000  Uiso   1.00
H306   H     0.28862   0.73597   0.47884   0.00000  Uiso   1.00
H307   H     0.20971   0.86998   0.08632   0.00000  Uiso   1.00
H308   H     0.31833   0.88429   0.43067   0.00000  Uiso   1.00
H309   H     0.11907   0.87064   0.07230   0.00000  Uiso   1.00
N310   N     0.14493   0.81890   0.23542   0.00000  Uiso   1.00
N311   N     0.18840   0.84777   0.26457   0.00000  Uiso   1.00
O312   O     0.29769   0.91296   0.25357   0.00000  Uiso   1.00
O313   O     0.05742   0.90371   0.24423   0.00000  Uiso   1.00
O314   O     0.31490   0.84024   0.33380   0.00000  Uiso   1.00
O315   O     0.07463   0.83099   0.32446   0.00000  Uiso   1.00
O316   O     0.27592   0.76296   0.25576   0.00000  Uiso   1.00
O317   O     0.03565   0.75371   0.24642   0.00000  Uiso   1.00
O318   O     0.25870   0.83567   0.17554   0.00000  Uiso   1.00
O319   O     0.01843   0.82642   0.16620   0.00000  Uiso   1.00
O320   O     0.11790   0.69703   0.29610   0.00000  Uiso   1.00
Zn321  Zn    0.27119   0.83951   0.25623   0.00000  Uiso   1.00
Zn322  Zn    0.06214   0.82716   0.24376   0.00000  Uiso   1.00
C323   C     0.34885   0.93150   0.24970   0.00000  Uiso   1.00
C324   C     0.38645   0.83630   0.41602   0.00000  Uiso   1.00
C325   C     0.36033   0.98575   0.25456   0.00000  Uiso   1.00
C326   C     0.36874   0.83505   0.35519   0.00000  Uiso   1.00
C327   C     0.64792   0.68088   0.25766   0.00000  Uiso   1.00
C328   C     0.65287   0.73526   0.25372   0.00000  Uiso   1.00
C329   C     0.63082   0.82972   0.14493   0.00000  Uiso   1.00
C330   C     0.60331   0.76437   0.00233   0.00000  Uiso   1.00
C331   C     0.61011   0.81999   0.08533   0.00000  Uiso   1.00
C332   C     0.35795   0.86710   0.44897   0.00000  Uiso   1.00
C333   C     0.38180   0.87779   0.00544   0.00000  Uiso   1.00
C334   C     0.46556   0.83026   0.49513   0.00000  Uiso   1.00
C335   C     0.43579   0.86065   0.02835   0.00000  Uiso   1.00
C336   C     0.42239   0.67170   0.25559   0.00000  Uiso   1.00
C337   C     0.43674   0.81301   0.44071   0.00000  Uiso   1.00
C338   C     0.52298   0.81644   0.01387   0.00000  Uiso   1.00
C339   C     0.54702   0.77942   0.48237   0.00000  Uiso   1.00
C340   C     0.51394   0.75714   0.43227   0.00000  Uiso   1.00
C341   C     0.45928   0.77366   0.41177   0.00000  Uiso   1.00
C342   C     0.55747   0.83906   0.06288   0.00000  Uiso   1.00
C343   C     0.63440   0.78379   0.05459   0.00000  Uiso   1.00
H344   H     0.34226   0.76874   0.07208   0.00000  Uiso   1.00
H345   H     0.35950   0.90109   0.03105   0.00000  Uiso   1.00
H346   H     0.43420   0.75509   0.37333   0.00000  Uiso   1.00
H347   H     0.44330   0.99376   0.22138   0.00000  Uiso   1.00
H348   H     0.60450   0.99680   0.25898   0.00000  Uiso   1.00
H349   H     0.49017   0.79190   0.20863   0.00000  Uiso   1.00
H350   H     0.50982   0.87473   0.29140   0.00000  Uiso   1.00
H351   H     0.53058   0.72752   0.40857   0.00000  Uiso   1.00
H352   H     0.62195   0.73597   0.47884   0.00000  Uiso   1.00
H353   H     0.54304   0.86998   0.08632   0.00000  Uiso   1.00
H354   H     0.65166   0.88429   0.43067   0.00000  Uiso   1.00
H355   H     0.45240   0.87064   0.07230   0.00000  Uiso   1.00
N356   N     0.47827   0.81890   0.23542   0.00000  Uiso   1.00
N357   N     0.52173   0.84777   0.26457   0.00000  Uiso   1.00
O358   O     0.63102   0.91296   0.25357   0.00000  Uiso   1.00
O359   O     0.39075   0.90371   0.24423   0.00000  Uiso   1.00
O360   O     0.64823   0.84024   0.33380   0.00000  Uiso   1.00
O361   O     0.40796   0.83099   0.32446   0.00000  Uiso   1.00
O362   O     0.60925   0.76296   0.25576   0.00000  Uiso   1.00
O363   O     0.36898   0.75371   0.24642   0.00000  Uiso   1.00
O364   O     0.59204   0.83567   0.17554   0.00000  Uiso   1.00
O365   O     0.35177   0.82642   0.16620   0.00000  Uiso   1.00
O366   O     0.45123   0.69703   0.29610   0.00000  Uiso   1.00
Zn367  Zn    0.60453   0.83951   0.25623   0.00000  Uiso   1.00
Zn368  Zn    0.39547   0.82716   0.24376   0.00000  Uiso   1.00
C369   C     0.68219   0.93150   0.24970   0.00000  Uiso   1.00
C370   C     0.71979   0.83630   0.41602   0.00000  Uiso   1.00
C371   C     0.69367   0.98575   0.25456   0.00000  Uiso   1.00
C372   C     0.70207   0.83505   0.35519   0.00000  Uiso   1.00
C373   C     0.98125   0.68088   0.25766   0.00000  Uiso   1.00
C374   C     0.98620   0.73526   0.25372   0.00000  Uiso   1.00
C375   C     0.96416   0.82972   0.14493   0.00000  Uiso   1.00
C376   C     0.93664   0.76437   0.00233   0.00000  Uiso   1.00
C377   C     0.94344   0.81999   0.08533   0.00000  Uiso   1.00
C378   C     0.69128   0.86710   0.44897   0.00000  Uiso   1.00
C379   C     0.71514   0.87779   0.00544   0.00000  Uiso   1.00
C380   C     0.79890   0.83026   0.49513   0.00000  Uiso   1.00
C381   C     0.76913   0.86065   0.02835   0.00000  Uiso   1.00
C382   C     0.75572   0.67170   0.25559   0.00000  Uiso   1.00
C383   C     0.77008   0.81301   0.44071   0.00000  Uiso   1.00
C384   C     0.85631   0.81644   0.01387   0.00000  Uiso   1.00
C385   C     0.88035   0.77942   0.48237   0.00000  Uiso   1.00
C386   C     0.84727   0.75714   0.43227   0.00000  Uiso   1.00
C387   C     0.79261   0.77366   0.41177   0.00000  Uiso   1.00
C388   C     0.89080   0.83906   0.06288   0.00000  Uiso   1.00
C389   C     0.96773   0.78379   0.05459   0.00000  Uiso   1.00
H390   H     0.67560   0.76874   0.07208   0.00000  Uiso   1.00
H391   H     0.69283   0.90109   0.03105   0.00000  Uiso   1.00
H392   H     0.76754   0.75509   0.37333   0.00000  Uiso   1.00
H393   H     0.77663   0.99376   0.22138   0.00000  Uiso   1.00
H394   H     0.93784   0.99680   0.25898   0.00000  Uiso   1.00
H395   H     0.82350   0.79190   0.20863   0.00000  Uiso   1.00
H396   H     0.84315   0.87473   0.29140   0.00000  Uiso   1.00
H397   H     0.86391   0.72752   0.40857   0.00000  Uiso   1.00
H398   H     0.95529   0.73597   0.47884   0.00000  Uiso   1.00
H399   H     0.87637   0.86998   0.08632   0.00000  Uiso   1.00
H400   H     0.98500   0.88429   0.43067   0.00000  Uiso   1.00
H401   H     0.78573   0.87064   0.07230   0.00000  Uiso   1.00
N402   N     0.81160   0.81890   0.23542   0.00000  Uiso   1.00
N403   N     0.85507   0.84777   0.26457   0.00000  Uiso   1.00
O404   O     0.96435   0.91296   0.25357   0.00000  Uiso   1.00
O405   O     0.72408   0.90371   0.24423   0.00000  Uiso   1.00
O406   O     0.98157   0.84024   0.33380   0.00000  Uiso   1.00
O407   O     0.74130   0.83099   0.32446   0.00000  Uiso   1.00
O408   O     0.94258   0.76296   0.25576   0.00000  Uiso   1.00
O409   O     0.70231   0.75371   0.24642   0.00000  Uiso   1.00
O410   O     0.92537   0.83567   0.17554   0.00000  Uiso   1.00
O411   O     0.68510   0.82642   0.16620   0.00000  Uiso   1.00
O412   O     0.78457   0.69703   0.29610   0.00000  Uiso   1.00
Zn413  Zn    0.93786   0.83951   0.25623   0.00000  Uiso   1.00
Zn414  Zn    0.72881   0.82716   0.24376   0.00000  Uiso   1.00
C415   C     0.01552   0.26484   0.74970   0.00000  Uiso   1.00
C416   C     0.05312   0.16963   0.91602   0.00000  Uiso   1.00
C417   C     0.02700   0.31908   0.75456   0.00000  Uiso   1.00
C418   C     0.03541   0.16838   0.85519   0.00000  Uiso   1.00
C419   C     0.31459   0.01421   0.75766   0.00000  Uiso   1.00
C420   C     0.31953   0.06859   0.75372   0.00000  Uiso   1.00
C421   C     0.29749   0.16305   0.64493   0.00000  Uiso   1.00
C422   C     0.26997   0.09771   0.50233   0.00000  Uiso   1.00
C423   C     0.27678   0.15333   0.58533   0.00000  Uiso   1.00
C424   C     0.02462   0.20043   0.94897   0.00000  Uiso   1.00
C425   C     0.04847   0.21113   0.50544   0.00000  Uiso   1.00
C426   C     0.13223   0.16359   0.99513   0.00000  Uiso   1.00
C427   C     0.10246   0.19399   0.52835   0.00000  Uiso   1.00
C428   C     0.08905   0.00504   0.75559   0.00000  Uiso   1.00
C429   C     0.10341   0.14634   0.94071   0.00000  Uiso   1.00
C430   C     0.18964   0.14977   0.51387   0.00000  Uiso   1.00
C431   C     0.21368   0.11275   0.98237   0.00000  Uiso   1.00
C432   C     0.18060   0.09048   0.93227   0.00000  Uiso   1.00
C433   C     0.12594   0.10699   0.91177   0.00000  Uiso   1.00
C434   C     0.22414   0.17239   0.56288   0.00000  Uiso   1.00
C435   C     0.30107   0.11712   0.55459   0.00000  Uiso   1.00
H436   H     0.00893   0.10207   0.57208   0.00000  Uiso   1.00
H437   H     0.02617   0.23442   0.53105   0.00000  Uiso   1.00
H438   H     0.10087   0.08842   0.87333   0.00000  Uiso   1.00
H439   H     0.10996   0.32710   0.72138   0.00000  Uiso   1.00
H440   H     0.27117   0.33014   0.75898   0.00000  Uiso   1.00
H441   H     0.15684   0.12524   0.70863   0.00000  Uiso   1.00
H442   H     0.17649   0.20806   0.79140   0.00000  Uiso   1.00
H443   H     0.19724   0.06085   0.90857   0.00000  Uiso   1.00
H444   H     0.28862   0.06931   0.97884   0.00000  Uiso   1.00
H445   H     0.20971   0.20332   0.58632   0.00000  Uiso   1.00
H446   H     0.31833   0.21762   0.93067   0.00000  Uiso   1.00
H447   H     0.11907   0.20397   0.57230   0.00000  Uiso   1.00
N448   N     0.14493   0.15223   0.73542   0.00000  Uiso   1.00
N449   N     0.18840   0.18110   0.76457   0.00000  Uiso   1.00
O450   O     0.29769   0.24629   0.75357   0.00000  Uiso   1.00
O451   O     0.05742   0.23704   0.74423   0.00000  Uiso   1.00
O452   O     0.31490   0.17358   0.83380   0.00000  Uiso   1.00
O453   O     0.07463   0.16433   0.82446   0.00000  Uiso   1.00
O454   O     0.27592   0.09629   0.75576   0.00000  Uiso   1.00
O455   O     0.03565   0.08704   0.74642   0.00000  Uiso   1.00
O456   O     0.25870   0.16901   0.67554   0.00000  Uiso   1.00
O457   O     0.01843   0.15976   0.66620   0.00000  Uiso   1.00
O458   O     0.11790   0.03037   0.79610   0.00000  Uiso   1.00
Zn459  Zn    0.27119   0.17284   0.75623   0.00000  Uiso   1.00
Zn460  Zn    0.06214   0.16049   0.74376   0.00000  Uiso   1.00
C461   C     0.34885   0.26484   0.74970   0.00000  Uiso   1.00
C462   C     0.38645   0.16963   0.91602   0.00000  Uiso   1.00
C463   C     0.36033   0.31908   0.75456   0.00000  Uiso   1.00
C464   C     0.36874   0.16838   0.85519   0.00000  Uiso   1.00
C465   C     0.64792   0.01421   0.75766   0.00000  Uiso   1.00
C466   C     0.65287   0.06859   0.75372   0.00000  Uiso   1.00
C467   C     0.63082   0.16305   0.64493   0.00000  Uiso   1.00
C468   C     0.60331   0.09771   0.50233   0.00000  Uiso   1.00
C469   C     0.61011   0.15333   0.58533   0.00000  Uiso   1.00
C470   C     0.35795   0.20043   0.94897   0.00000  Uiso   1.00
C471   C     0.38180   0.21113   0.50544   0.00000  Uiso   1.00
C472   C     0.46556   0.16359   0.99513   0.00000  Uiso   1.00
C473   C     0.43579   0.19399   0.52835   0.00000  Uiso   1.00
C474   C     0.42239   0.00504   0.75559   0.00000  Uiso   1.00
C475   C     0.43674   0.14634   0.94071   0.00000  Uiso   1.00
C476   C     0.52298   0.14977   0.51387   0.00000  Uiso   1.00
C477   C     0.54702   0.11275   0.98237   0.00000  Uiso   1.00
C478   C     0.51394   0.09048   0.93227   0.00000  Uiso   1.00
C479   C     0.45928   0.10699   0.91177   0.00000  Uiso   1.00
C480   C     0.55747   0.17239   0.56288   0.00000  Uiso   1.00
C481   C     0.63440   0.11712   0.55459   0.00000  Uiso   1.00
H482   H     0.34226   0.10207   0.57208   0.00000  Uiso   1.00
H483   H     0.35950   0.23442   0.53105   0.00000  Uiso   1.00
H484   H     0.43420   0.08842   0.87333   0.00000  Uiso   1.00
H485   H     0.44330   0.32710   0.72138   0.00000  Uiso   1.00
H486   H     0.60450   0.33014   0.75898   0.00000  Uiso   1.00
H487   H     0.49017   0.12524   0.70863   0.00000  Uiso   1.00
H488   H     0.50982   0.20806   0.79140   0.00000  Uiso   1.00
H489   H     0.53058   0.06085   0.90857   0.00000  Uiso   1.00
H490   H     0.62195   0.06931   0.97884   0.00000  Uiso   1.00
H491   H     0.54304   0.20332   0.58632   0.00000  Uiso   1.00
H492   H     0.65166   0.21762   0.93067   0.00000  Uiso   1.00
H493   H     0.45240   0.20397   0.57230   0.00000  Uiso   1.00
N494   N     0.47827   0.15223   0.73542   0.00000  Uiso   1.00
N495   N     0.52173   0.18110   0.76457   0.00000  Uiso   1.00
O496   O     0.63102   0.24629   0.75357   0.00000  Uiso   1.00
O497   O     0.39075   0.23704   0.74423   0.00000  Uiso   1.00
O498   O     0.64823   0.17358   0.83380   0.00000  Uiso   1.00
O499   O     0.40796   0.16433   0.82446   0.00000  Uiso   1.00
O500   O     0.60925   0.09629   0.75576   0.00000  Uiso   1.00
O501   O     0.36898   0.08704   0.74642   0.00000  Uiso   1.00
O502   O     0.59204   0.16901   0.67554   0.00000  Uiso   1.00
O503   O     0.35177   0.15976   0.66620   0.00000  Uiso   1.00
O504   O     0.45123   0.03037   0.79610   0.00000  Uiso   1.00
Zn505  Zn    0.60453   0.17284   0.75623   0.00000  Uiso   1.00
Zn506  Zn    0.39547   0.16049   0.74376   0.00000  Uiso   1.00
C507   C     0.68219   0.26484   0.74970   0.00000  Uiso   1.00
C508   C     0.71979   0.16963   0.91602   0.00000  Uiso   1.00
C509   C     0.69367   0.31908   0.75456   0.00000  Uiso   1.00
C510   C     0.70207   0.16838   0.85519   0.00000  Uiso   1.00
C511   C     0.98125   0.01421   0.75766   0.00000  Uiso   1.00
C512   C     0.98620   0.06859   0.75372   0.00000  Uiso   1.00
C513   C     0.96416   0.16305   0.64493   0.00000  Uiso   1.00
C514   C     0.93664   0.09771   0.50233   0.00000  Uiso   1.00
C515   C     0.94344   0.15333   0.58533   0.00000  Uiso   1.00
C516   C     0.69128   0.20043   0.94897   0.00000  Uiso   1.00
C517   C     0.71514   0.21113   0.50544   0.00000  Uiso   1.00
C518   C     0.79890   0.16359   0.99513   0.00000  Uiso   1.00
C519   C     0.76913   0.19399   0.52835   0.00000  Uiso   1.00
C520   C     0.75572   0.00504   0.75559   0.00000  Uiso   1.00
C521   C     0.77008   0.14634   0.94071   0.00000  Uiso   1.00
C522   C     0.85631   0.14977   0.51387   0.00000  Uiso   1.00
C523   C     0.88035   0.11275   0.98237   0.00000  Uiso   1.00
C524   C     0.84727   0.09048   0.93227   0.00000  Uiso   1.00
C525   C     0.79261   0.10699   0.91177   0.00000  Uiso   1.00
C526   C     0.89080   0.17239   0.56288   0.00000  Uiso   1.00
C527   C     0.96773   0.11712   0.55459   0.00000  Uiso   1.00
H528   H     0.67560   0.10207   0.57208   0.00000  Uiso   1.00
H529   H     0.69283   0.23442   0.53105   0.00000  Uiso   1.00
H530   H     0.76754   0.08842   0.87333   0.00000  Uiso   1.00
H531   H     0.77663   0.32710   0.72138   0.00000  Uiso   1.00
H532   H     0.93784   0.33014   0.75898   0.00000  Uiso   1.00
H533   H     0.82350   0.12524   0.70863   0.00000  Uiso   1.00
H534   H     0.84315   0.20806   0.79140   0.00000  Uiso   1.00
H535   H     0.86391   0.06085   0.90857   0.00000  Uiso   1.00
H536   H     0.95529   0.06931   0.97884   0.00000  Uiso   1.00
H537   H     0.87637   0.20332   0.58632   0.00000  Uiso   1.00
H538   H     0.98500   0.21762   0.93067   0.00000  Uiso   1.00
H539   H     0.78573   0.20397   0.57230   0.00000  Uiso   1.00
N540   N     0.81160   0.15223   0.73542   0.00000  Uiso   1.00
N541   N     0.85507   0.18110   0.76457   0.00000  Uiso   1.00
O542   O     0.96435   0.24629   0.75357   0.00000  Uiso   1.00
O543   O     0.72408   0.23704   0.74423   0.00000  Uiso   1.00
O544   O     0.98157   0.17358   0.83380   0.00000  Uiso   1.00
O545   O     0.74130   0.16433   0.82446   0.00000  Uiso   1.00
O546   O     0.94258   0.09629   0.75576   0.00000  Uiso   1.00
O547   O     0.70231   0.08704   0.74642   0.00000  Uiso   1.00
O548   O     0.92537   0.16901   0.67554   0.00000  Uiso   1.00
O549   O     0.68510   0.15976   0.66620   0.00000  Uiso   1.00
O550   O     0.78457   0.03037   0.79610   0.00000  Uiso   1.00
Zn551  Zn    0.93786   0.17284   0.75623   0.00000  Uiso   1.00
Zn552  Zn    0.72881   0.16049   0.74376   0.00000  Uiso   1.00
C553   C     0.01552   0.59817   0.74970   0.00000  Uiso   1.00
C554   C     0.05312   0.50297   0.91602   0.00000  Uiso   1.00
C555   C     0.02700   0.65241   0.75456   0.00000  Uiso   1.00
C556   C     0.03541   0.50172   0.85519   0.00000  Uiso   1.00
C557   C     0.31459   0.34754   0.75766   0.00000  Uiso   1.00
C558   C     0.31953   0.40193   0.75372   0.00000  Uiso   1.00
C559   C     0.29749   0.49639   0.64493   0.00000  Uiso   1.00
C560   C     0.26997   0.43104   0.50233   0.00000  Uiso   1.00
C561   C     0.27678   0.48666   0.58533   0.00000  Uiso   1.00
C562   C     0.02462   0.53377   0.94897   0.00000  Uiso   1.00
C563   C     0.04847   0.54446   0.50544   0.00000  Uiso   1.00
C564   C     0.13223   0.49693   0.99513   0.00000  Uiso   1.00
C565   C     0.10246   0.52732   0.52835   0.00000  Uiso   1.00
C566   C     0.08905   0.33837   0.75559   0.00000  Uiso   1.00
C567   C     0.10341   0.47968   0.94071   0.00000  Uiso   1.00
C568   C     0.18964   0.48311   0.51387   0.00000  Uiso   1.00
C569   C     0.21368   0.44609   0.98237   0.00000  Uiso   1.00
C570   C     0.18060   0.42381   0.93227   0.00000  Uiso   1.00
C571   C     0.12594   0.44032   0.91177   0.00000  Uiso   1.00
C572   C     0.22414   0.50573   0.56288   0.00000  Uiso   1.00
C573   C     0.30107   0.45046   0.55459   0.00000  Uiso   1.00
H574   H     0.00893   0.43540   0.57208   0.00000  Uiso   1.00
H575   H     0.02617   0.56776   0.53105   0.00000  Uiso   1.00
H576   H     0.10087   0.42175   0.87333   0.00000  Uiso   1.00
H577   H     0.10996   0.66043   0.72138   0.00000  Uiso   1.00
H578   H     0.27117   0.66347   0.75898   0.00000  Uiso   1.00
H579   H     0.15684   0.45857   0.70863   0.00000  Uiso   1.00
H580   H     0.17649   0.54139   0.79140   0.00000  Uiso   1.00
H581   H     0.19724   0.39418   0.90857   0.00000  Uiso   1.00
H582   H     0.28862   0.40264   0.97884   0.00000  Uiso   1.00
H583   H     0.20971   0.53665   0.58632   0.00000  Uiso   1.00
H584   H     0.31833   0.55096   0.93067   0.00000  Uiso   1.00
H585   H     0.11907   0.53731   0.57230   0.00000  Uiso   1.00
N586   N     0.14493   0.48556   0.73542   0.00000  Uiso   1.00
N587   N     0.18840   0.51444   0.76457   0.00000  Uiso   1.00
O588   O     0.29769   0.57963   0.75357   0.00000  Uiso   1.00
O589   O     0.05742   0.57038   0.74423   0.00000  Uiso   1.00
O590   O     0.31490   0.50691   0.83380   0.00000  Uiso   1.00
O591   O     0.07463   0.49766   0.82446   0.00000  Uiso   1.00
O592   O     0.27592   0.42962   0.75576   0.00000  Uiso   1.00
O593   O     0.03565   0.42037   0.74642   0.00000  Uiso   1.00
O594   O     0.25870   0.50234   0.67554   0.00000  Uiso   1.00
O595   O     0.01843   0.49309   0.66620   0.00000  Uiso   1.00
O596   O     0.11790   0.36370   0.79610   0.00000  Uiso   1.00
Zn597  Zn    0.27119   0.50618   0.75623   0.00000  Uiso   1.00
Zn598  Zn    0.06214   0.49382   0.74376   0.00000  Uiso   1.00
C599   C     0.34885   0.59817   0.74970   0.00000  Uiso   1.00
C600   C     0.38645   0.50297   0.91602   0.00000  Uiso   1.00
C601   C     0.36033   0.65241   0.75456   0.00000  Uiso   1.00
C602   C     0.36874   0.50172   0.85519   0.00000  Uiso   1.00
C603   C     0.64792   0.34754   0.75766   0.00000  Uiso   1.00
C604   C     0.65287   0.40193   0.75372   0.00000  Uiso   1.00
C605   C     0.63082   0.49639   0.64493   0.00000  Uiso   1.00
C606   C     0.60331   0.43104   0.50233   0.00000  Uiso   1.00
C607   C     0.61011   0.48666   0.58533   0.00000  Uiso   1.00
C608   C     0.35795   0.53377   0.94897   0.00000  Uiso   1.00
C609   C     0.38180   0.54446   0.50544   0.00000  Uiso   1.00
C610   C     0.46556   0.49693   0.99513   0.00000  Uiso   1.00
C611   C     0.43579   0.52732   0.52835   0.00000  Uiso   1.00
C612   C     0.42239   0.33837   0.75559   0.00000  Uiso   1.00
C613   C     0.43674   0.47968   0.94071   0.00000  Uiso   1.00
C614   C     0.52298   0.48311   0.51387   0.00000  Uiso   1.00
C615   C     0.54702   0.44609   0.98237   0.00000  Uiso   1.00
C616   C     0.51394   0.42381   0.93227   0.00000  Uiso   1.00
C617   C     0.45928   0.44032   0.91177   0.00000  Uiso   1.00
C618   C     0.55747   0.50573   0.56288   0.00000  Uiso   1.00
C619   C     0.63440   0.45046   0.55459   0.00000  Uiso   1.00
H620   H     0.34226   0.43540   0.57208   0.00000  Uiso   1.00
H621   H     0.35950   0.56776   0.53105   0.00000  Uiso   1.00
H622   H     0.43420   0.42175   0.87333   0.00000  Uiso   1.00
H623   H     0.44330   0.66043   0.72138   0.00000  Uiso   1.00
H624   H     0.60450   0.66347   0.75898   0.00000  Uiso   1.00
H625   H     0.49017   0.45857   0.70863   0.00000  Uiso   1.00
H626   H     0.50982   0.54139   0.79140   0.00000  Uiso   1.00
H627   H     0.53058   0.39418   0.90857   0.00000  Uiso   1.00
H628   H     0.62195   0.40264   0.97884   0.00000  Uiso   1.00
H629   H     0.54304   0.53665   0.58632   0.00000  Uiso   1.00
H630   H     0.65166   0.55096   0.93067   0.00000  Uiso   1.00
H631   H     0.45240   0.53731   0.57230   0.00000  Uiso   1.00
N632   N     0.47827   0.48556   0.73542   0.00000  Uiso   1.00
N633   N     0.52173   0.51444   0.76457   0.00000  Uiso   1.00
O634   O     0.63102   0.57963   0.75357   0.00000  Uiso   1.00
O635   O     0.39075   0.57038   0.74423   0.00000  Uiso   1.00
O636   O     0.64823   0.50691   0.83380   0.00000  Uiso   1.00
O637   O     0.40796   0.49766   0.82446   0.00000  Uiso   1.00
O638   O     0.60925   0.42962   0.75576   0.00000  Uiso   1.00
O639   O     0.36898   0.42037   0.74642   0.00000  Uiso   1.00
O640   O     0.59204   0.50234   0.67554   0.00000  Uiso   1.00
O641   O     0.35177   0.49309   0.66620   0.00000  Uiso   1.00
O642   O     0.45123   0.36370   0.79610   0.00000  Uiso   1.00
Zn643  Zn    0.60453   0.50618   0.75623   0.00000  Uiso   1.00
Zn644  Zn    0.39547   0.49382   0.74376   0.00000  Uiso   1.00
C645   C     0.68219   0.59817   0.74970   0.00000  Uiso   1.00
C646   C     0.71979   0.50297   0.91602   0.00000  Uiso   1.00
C647   C     0.69367   0.65241   0.75456   0.00000  Uiso   1.00
C648   C     0.70207   0.50172   0.85519   0.00000  Uiso   1.00
C649   C     0.98125   0.34754   0.75766   0.00000  Uiso   1.00
C650   C     0.98620   0.40193   0.75372   0.00000  Uiso   1.00
C651   C     0.96416   0.49639   0.64493   0.00000  Uiso   1.00
C652   C     0.93664   0.43104   0.50233   0.00000  Uiso   1.00
C653   C     0.94344   0.48666   0.58533   0.00000  Uiso   1.00
C654   C     0.69128   0.53377   0.94897   0.00000  Uiso   1.00
C655   C     0.71514   0.54446   0.50544   0.00000  Uiso   1.00
C656   C     0.79890   0.49693   0.99513   0.00000  Uiso   1.00
C657   C     0.76913   0.52732   0.52835   0.00000  Uiso   1.00
C658   C     0.75572   0.33837   0.75559   0.00000  Uiso   1.00
C659   C     0.77008   0.47968   0.94071   0.00000  Uiso   1.00
C660   C     0.85631   0.48311   0.51387   0.00000  Uiso   1.00
C661   C     0.88035   0.44609   0.98237   0.00000  Uiso   1.00
C662   C     0.84727   0.42381   0.93227   0.00000  Uiso   1.00
C663   C     0.79261   0.44032   0.91177   0.00000  Uiso   1.00
C664   C     0.89080   0.50573   0.56288   0.00000  Uiso   1.00
C665   C     0.96773   0.45046   0.55459   0.00000  Uiso   1.00
H666   H     0.67560   0.43540   0.57208   0.00000  Uiso   1.00
H667   H     0.69283   0.56776   0.53105   0.00000  Uiso   1.00
H668   H     0.76754   0.42175   0.87333   0.00000  Uiso   1.00
H669   H     0.77663   0.66043   0.72138   0.00000  Uiso   1.00
H670   H     0.93784   0.66347   0.75898   0.00000  Uiso   1.00
H671   H     0.82350   0.45857   0.70863   0.00000  Uiso   1.00
H672   H     0.84315   0.54139   0.79140   0.00000  Uiso   1.00
H673   H     0.86391   0.39418   0.90857   0.00000  Uiso   1.00
H674   H     0.95529   0.40264   0.97884   0.00000  Uiso   1.00
H675   H     0.87637   0.53665   0.58632   0.00000  Uiso   1.00
H676   H     0.98500   0.55096   0.93067   0.00000  Uiso   1.00
H677   H     0.78573   0.53731   0.57230   0.00000  Uiso   1.00
N678   N     0.81160   0.48556   0.73542   0.00000  Uiso   1.00
N679   N     0.85507   0.51444   0.76457   0.00000  Uiso   1.00
O680   O     0.96435   0.57963   0.75357   0.00000  Uiso   1.00
O681   O     0.72408   0.57038   0.74423   0.00000  Uiso   1.00
O682   O     0.98157   0.50691   0.83380   0.00000  Uiso   1.00
O683   O     0.74130   0.49766   0.82446   0.00000  Uiso   1.00
O684   O     0.94258   0.42962   0.75576   0.00000  Uiso   1.00
O685   O     0.70231   0.42037   0.74642   0.00000  Uiso   1.00
O686   O     0.92537   0.50234   0.67554   0.00000  Uiso   1.00
O687   O     0.68510   0.49309   0.66620   0.00000  Uiso   1.00
O688   O     0.78457   0.36370   0.79610   0.00000  Uiso   1.00
Zn689  Zn    0.93786   0.50618   0.75623   0.00000  Uiso   1.00
Zn690  Zn    0.72881   0.49382   0.74376   0.00000  Uiso   1.00
C691   C     0.01552   0.93150   0.74970   0.00000  Uiso   1.00
C692   C     0.05312   0.83630   0.91602   0.00000  Uiso   1.00
C693   C     0.02700   0.98575   0.75456   0.00000  Uiso   1.00
C694   C     0.03541   0.83505   0.85519   0.00000  Uiso   1.00
C695   C     0.31459   0.68088   0.75766   0.00000  Uiso   1.00
C696   C     0.31953   0.73526   0.75372   0.00000  Uiso   1.00
C697   C     0.29749   0.82972   0.64493   0.00000  Uiso   1.00
C698   C     0.26997   0.76437   0.50233   0.00000  Uiso   1.00
C699   C     0.27678   0.81999   0.58533   0.00000  Uiso   1.00
C700   C     0.02462   0.86710   0.94897   0.00000  Uiso   1.00
C701   C     0.04847   0.87779   0.50544   0.00000  Uiso   1.00
C702   C     0.13223   0.83026   0.99513   0.00000  Uiso   1.00
C703   C     0.10246   0.86065   0.52835   0.00000  Uiso   1.00
C704   C     0.08905   0.67170   0.75559   0.00000  Uiso   1.00
C705   C     0.10341   0.81301   0.94071   0.00000  Uiso   1.00
C706   C     0.18964   0.81644   0.51387   0.00000  Uiso   1.00
C707   C     0.21368   0.77942   0.98237   0.00000  Uiso   1.00
C708   C     0.18060   0.75714   0.93227   0.00000  Uiso   1.00
C709   C     0.12594   0.77366   0.91177   0.00000  Uiso   1.00
C710   C     0.22414   0.83906   0.56288   0.00000  Uiso   1.00
C711   C     0.30107   0.78379   0.55459   0.00000  Uiso   1.00
H712   H     0.00893   0.76874   0.57208   0.00000  Uiso   1.00
H713   H     0.02617   0.90109   0.53105   0.00000  Uiso   1.00
H714   H     0.10087   0.75509   0.87333   0.00000  Uiso   1.00
H715   H     0.10996   0.99376   0.72138   0.00000  Uiso   1.00
H716   H     0.27117   0.99680   0.75898   0.00000  Uiso   1.00
H717   H     0.15684   0.79190   0.70863   0.00000  Uiso   1.00
H718   H     0.17649   0.87473   0.79140   0.00000  Uiso   1.00
H719   H     0.19724   0.72752   0.90857   0.00000  Uiso   1.00
H720   H     0.28862   0.73597   0.97884   0.00000  Uiso   1.00
H721   H     0.20971   0.86998   0.58632   0.00000  Uiso   1.00
H722   H     0.31833   0.88429   0.93067   0.00000  Uiso   1.00
H723   H     0.11907   0.87064   0.57230   0.00000  Uiso   1.00
N724   N     0.14493   0.81890   0.73542   0.00000  Uiso   1.00
N725   N     0.18840   0.84777   0.76457   0.00000  Uiso   1.00
O726   O     0.29769   0.91296   0.75357   0.00000  Uiso   1.00
O727   O     0.05742   0.90371   0.74423   0.00000  Uiso   1.00
O728   O     0.31490   0.84024   0.83380   0.00000  Uiso   1.00
O729   O     0.07463   0.83099   0.82446   0.00000  Uiso   1.00
O730   O     0.27592   0.76296   0.75576   0.00000  Uiso   1.00
O731   O     0.03565   0.75371   0.74642   0.00000  Uiso   1.00
O732   O     0.25870   0.83567   0.67554   0.00000  Uiso   1.00
O733   O     0.01843   0.82642   0.66620   0.00000  Uiso   1.00
O734   O     0.11790   0.69703   0.79610   0.00000  Uiso   1.00
Zn735  Zn    0.27119   0.83951   0.75623   0.00000  Uiso   1.00
Zn736  Zn    0.06214   0.82716   0.74376   0.00000  Uiso   1.00
C737   C     0.34885   0.93150   0.74970   0.00000  Uiso   1.00
C738   C     0.38645   0.83630   0.91602   0.00000  Uiso   1.00
C739   C     0.36033   0.98575   0.75456   0.00000  Uiso   1.00
C740   C     0.36874   0.83505   0.85519   0.00000  Uiso   1.00
C741   C     0.64792   0.68088   0.75766   0.00000  Uiso   1.00
C742   C     0.65287   0.73526   0.75372   0.00000  Uiso   1.00
C743   C     0.63082   0.82972   0.64493   0.00000  Uiso   1.00
C744   C     0.60331   0.76437   0.50233   0.00000  Uiso   1.00
C745   C     0.61011   0.81999   0.58533   0.00000  Uiso   1.00
C746   C     0.35795   0.86710   0.94897   0.00000  Uiso   1.00
C747   C     0.38180   0.87779   0.50544   0.00000  Uiso   1.00
C748   C     0.46556   0.83026   0.99513   0.00000  Uiso   1.00
C749   C     0.43579   0.86065   0.52835   0.00000  Uiso   1.00
C750   C     0.42239   0.67170   0.75559   0.00000  Uiso   1.00
C751   C     0.43674   0.81301   0.94071   0.00000  Uiso   1.00
C752   C     0.52298   0.81644   0.51387   0.00000  Uiso   1.00
C753   C     0.54702   0.77942   0.98237   0.00000  Uiso   1.00
C754   C     0.51394   0.75714   0.93227   0.00000  Uiso   1.00
C755   C     0.45928   0.77366   0.91177   0.00000  Uiso   1.00
C756   C     0.55747   0.83906   0.56288   0.00000  Uiso   1.00
C757   C     0.63440   0.78379   0.55459   0.00000  Uiso   1.00
H758   H     0.34226   0.76874   0.57208   0.00000  Uiso   1.00
H759   H     0.35950   0.90109   0.53105   0.00000  Uiso   1.00
H760   H     0.43420   0.75509   0.87333   0.00000  Uiso   1.00
H761   H     0.44330   0.99376   0.72138   0.00000  Uiso   1.00
H762   H     0.60450   0.99680   0.75898   0.00000  Uiso   1.00
H763   H     0.49017   0.79190   0.70863   0.00000  Uiso   1.00
H764   H     0.50982   0.87473   0.79140   0.00000  Uiso   1.00
H765   H     0.53058   0.72752   0.90857   0.00000  Uiso   1.00
H766   H     0.62195   0.73597   0.97884   0.00000  Uiso   1.00
H767   H     0.54304   0.86998   0.58632   0.00000  Uiso   1.00
H768   H     0.65166   0.88429   0.93067   0.00000  Uiso   1.00
H769   H     0.45240   0.87064   0.57230   0.00000  Uiso   1.00
N770   N     0.47827   0.81890   0.73542   0.00000  Uiso   1.00
N771   N     0.52173   0.84777   0.76457   0.00000  Uiso   1.00
O772   O     0.63102   0.91296   0.75357   0.00000  Uiso   1.00
O773   O     0.39075   0.90371   0.74423   0.00000  Uiso   1.00
O774   O     0.64823   0.84024   0.83380   0.00000  Uiso   1.00
O775   O     0.40796   0.83099   0.82446   0.00000  Uiso   1.00
O776   O     0.60925   0.76296   0.75576   0.00000  Uiso   1.00
O777   O     0.36898   0.75371   0.74642   0.00000  Uiso   1.00
O778   O     0.59204   0.83567   0.67554   0.00000  Uiso   1.00
O779   O     0.35177   0.82642   0.66620   0.00000  Uiso   1.00
O780   O     0.45123   0.69703   0.79610   0.00000  Uiso   1.00
Zn781  Zn    0.60453   0.83951   0.75623   0.00000  Uiso   1.00
Zn782  Zn    0.39547   0.82716   0.74376   0.00000  Uiso   1.00
C783   C     0.68219   0.93150   0.74970   0.00000  Uiso   1.00
C784   C     0.71979   0.83630   0.91602   0.00000  Uiso   1.00
C785   C     0.69367   0.98575   0.75456   0.00000  Uiso   1.00
C786   C     0.70207   0.83505   0.85519   0.00000  Uiso   1.00
C787   C     0.98125   0.68088   0.75766   0.00000  Uiso   1.00
C788   C     0.98620   0.73526   0.75372   0.00000  Uiso   1.00
C789   C     0.96416   0.82972   0.64493   0.00000  Uiso   1.00
C790   C     0.93664   0.76437   0.50233   0.00000  Uiso   1.00
C791   C     0.94344   0.81999   0.58533   0.00000  Uiso   1.00
C792   C     0.69128   0.86710   0.94897   0.00000  Uiso   1.00
C793   C     0.71514   0.87779   0.50544   0.00000  Uiso   1.00
C794   C     0.79890   0.83026   0.99513   0.00000  Uiso   1.00
C795   C     0.76913   0.86065   0.52835   0.00000  Uiso   1.00
C796   C     0.75572   0.67170   0.75559   0.00000  Uiso   1.00
C797   C     0.77008   0.81301   0.94071   0.00000  Uiso   1.00
C798   C     0.85631   0.81644   0.51387   0.00000  Uiso   1.00
C799   C     0.88035   0.77942   0.98237   0.00000  Uiso   1.00
C800   C     0.84727   0.75714   0.93227   0.00000  Uiso   1.00
C801   C     0.79261   0.77366   0.91177   0.00000  Uiso   1.00
C802   C     0.89080   0.83906   0.56288   0.00000  Uiso   1.00
C803   C     0.96773   0.78379   0.55459   0.00000  Uiso   1.00
H804   H     0.67560   0.76874   0.57208   0.00000  Uiso   1.00
H805   H     0.69283   0.90109   0.53105   0.00000  Uiso   1.00
H806   H     0.76754   0.75509   0.87333   0.00000  Uiso   1.00
H807   H     0.77663   0.99376   0.72138   0.00000  Uiso   1.00
H808   H     0.93784   0.99680   0.75898   0.00000  Uiso   1.00
H809   H     0.82350   0.79190   0.70863   0.00000  Uiso   1.00
H810   H     0.84315   0.87473   0.79140   0.00000  Uiso   1.00
H811   H     0.86391   0.72752   0.90857   0.00000  Uiso   1.00
H812   H     0.95529   0.73597   0.97884   0.00000  Uiso   1.00
H813   H     0.87637   0.86998   0.58632   0.00000  Uiso   1.00
H814   H     0.98500   0.88429   0.93067   0.00000  Uiso   1.00
H815   H     0.78573   0.87064   0.57230   0.00000  Uiso   1.00
N816   N     0.81160   0.81890   0.73542   0.00000  Uiso   1.00
N817   N     0.85507   0.84777   0.76457   0.00000  Uiso   1.00
O818   O     0.96435   0.91296   0.75357   0.00000  Uiso   1.00
O819   O     0.72408   0.90371   0.74423   0.00000  Uiso   1.00
O820   O     0.98157   0.84024   0.83380   0.00000  Uiso   1.00
O821   O     0.74130   0.83099   0.82446   0.00000  Uiso   1.00
O822   O     0.94258   0.76296   0.75576   0.00000  Uiso   1.00
O823   O     0.70231   0.75371   0.74642   0.00000  Uiso   1.00
O824   O     0.92537   0.83567   0.67554   0.00000  Uiso   1.00
O825   O     0.68510   0.82642   0.66620   0.00000  Uiso   1.00
O826   O     0.78457   0.69703   0.79610   0.00000  Uiso   1.00
Zn827  Zn    0.93786   0.83951   0.75623   0.00000  Uiso   1.00
Zn828  Zn    0.72881   0.82716   0.74376   0.00000  Uiso   1.00
loop_
_geom_bond_atom_site_label_1
_geom_bond_atom_site_label_2
_geom_bond_distance
_geom_bond_site_symmetry_2
_ccdc_geom_bond_type
C1     O37     1.285   .     A
C1     C3      1.407   .     S
C1     O128    1.279   1_455 S
C2     C4      1.454   .     S
C2     C15     1.404   .     A
C2     C10     1.403   .     A
C3     C235    1.358   1_455 S
C3     C152    1.496   .     S
C4     O39     1.299   .     A
C4     O130    1.286   1_455 S
C5     C6      1.413   .     S
C5     C325    1.358   1_545 S
C5     H302    1.087   1_545 S
C6     O40     1.300   .     A
C6     O87     1.266   .     S
C7     O42     1.295   .     A
C7     C9      1.442   .     S
C7     O89     1.287   .     S
C8     C21     1.392   .     A
C8     C431    1.403   1_554 S
C8     H444    1.084   1_554 S
C9     C20     1.383   .     A
C9     C21     1.400   .     A
C10    C425    1.387   .     S
C10    H124    1.083   1_455 S
C11    C13     1.391   .     A
C11    H23     1.083   .     S
C11    C424    1.387   1_554 S
C12    C15     1.404   .     A
C12    C427    1.420   .     S
C12    C430    1.411   .     S
C13    H33     1.079   .     S
C13    C426    1.420   1_554 S
C14    O44     1.219   .     D
C14    C279    1.496   1_545 S
C14    H301    1.086   1_545 S
C15    C19     1.410   .     A
C16    C20     1.387   .     A
C16    C426    1.411   1_554 S
C16    C431    1.422   1_554 S
C17    C18     1.391   .     A
C17    C422    1.403   .     S
C17    C430    1.422   .     S
C18    H29     1.084   .     S
C18    C19     1.386   .     A
C19    H24     1.078   .     S
C20    H31     1.079   .     S
C21    H68     1.083   .     S
H22    C113    1.083   1_455 S
H25    C152    1.086   .     S
H26    C143    1.087   .     S
H27    N34     1.029   .     S
H28    N35     1.029   .     S
H30    C422    1.084   .     S
H32    C56     1.083   .     S
N34    Zn46    2.015   .     S
N34    N35     1.291   .     D
N35    Zn45    2.015   .     S
O36    Zn45    1.964   .     S
O36    C47     1.279   .     S
O37    Zn46    1.995   .     S
O38    Zn45    1.961   .     S
O38    C50     1.286   .     S
O39    Zn46    1.923   .     S
O40    Zn45    1.995   .     S
O41    Zn46    1.964   .     S
O41    C98     1.266   1_455 S
O42    Zn45    1.923   .     S
O43    Zn46    1.961   .     S
O43    C99     1.287   1_455 S
C47    O83     1.285   .     A
C47    C49     1.407   .     S
C48    C50     1.454   .     S
C48    C61     1.404   .     A
C48    C56     1.403   .     A
C49    C143    1.358   .     S
C49    C198    1.496   .     S
C50    O85     1.299   .     A
C51    C52     1.413   .     S
C51    C371    1.358   1_545 S
C51    H348    1.087   1_545 S
C52    O86     1.300   .     A
C52    O133    1.266   .     S
C53    O88     1.295   .     A
C53    C55     1.442   .     S
C53    O135    1.287   .     S
C54    C67     1.392   .     A
C54    C477    1.403   1_554 S
C54    H490    1.084   1_554 S
C55    C66     1.383   .     A
C55    C67     1.400   .     A
C56    C471    1.387   .     S
C57    C59     1.391   .     A
C57    H69     1.083   .     S
C57    C470    1.387   1_554 S
C58    C61     1.404   .     A
C58    C473    1.420   .     S
C58    C476    1.411   .     S
C59    H79     1.079   .     S
C59    C472    1.420   1_554 S
C60    O90     1.219   .     D
C60    C325    1.496   1_545 S
C60    H347    1.086   1_545 S
C61    C65     1.410   .     A
C62    C66     1.387   .     A
C62    C472    1.411   1_554 S
C62    C477    1.422   1_554 S
C63    C64     1.391   .     A
C63    C468    1.403   .     S
C63    C476    1.422   .     S
C64    H75     1.084   .     S
C64    C65     1.386   .     A
C65    H70     1.078   .     S
C66    H77     1.079   .     S
C67    H114    1.083   .     S
H71    C198    1.086   .     S
H72    C189    1.087   .     S
H73    N80     1.029   .     S
H74    N81     1.029   .     S
H76    C468    1.084   .     S
H78    C102    1.083   .     S
N80    Zn92    2.015   .     S
N80    N81     1.291   .     D
N81    Zn91    2.015   .     S
O82    Zn91    1.964   .     S
O82    C93     1.279   .     S
O83    Zn92    1.995   .     S
O84    Zn91    1.961   .     S
O84    C96     1.286   .     S
O85    Zn92    1.923   .     S
O86    Zn91    1.995   .     S
O87    Zn92    1.964   .     S
O88    Zn91    1.923   .     S
O89    Zn92    1.961   .     S
C93    O129    1.285   .     A
C93    C95     1.407   .     S
C94    C96     1.454   .     S
C94    C107    1.404   .     A
C94    C102    1.403   .     A
C95    C189    1.358   .     S
C95    C244    1.496   .     S
C96    O131    1.299   .     A
C97    C98     1.413   .     S
C97    C279    1.358   1_645 S
C97    H394    1.087   1_545 S
C98    O132    1.300   .     A
C98    O41     1.266   1_655 S
C99    O134    1.295   .     A
C99    C101    1.442   .     S
C99    O43     1.287   1_655 S
C100   C113    1.392   .     A
C100   C523    1.403   1_554 S
C100   H536    1.084   1_554 S
C101   C112    1.383   .     A
C101   C113    1.400   .     A
C102   C517    1.387   .     S
C103   C105    1.391   .     A
C103   H115    1.083   .     S
C103   C516    1.387   1_554 S
C104   C107    1.404   .     A
C104   C519    1.420   .     S
C104   C522    1.411   .     S
C105   H125    1.079   .     S
C105   C518    1.420   1_554 S
C106   O136    1.219   .     D
C106   C371    1.496   1_545 S
C106   H393    1.086   1_545 S
C107   C111    1.410   .     A
C108   C112    1.387   .     A
C108   C518    1.411   1_554 S
C108   C523    1.422   1_554 S
C109   C110    1.391   .     A
C109   C514    1.403   .     S
C109   C522    1.422   .     S
C110   H121    1.084   .     S
C110   C111    1.386   .     A
C111   H116    1.078   .     S
C112   H123    1.079   .     S
C113   H22     1.083   1_655 S
H117   C244    1.086   .     S
H118   C235    1.087   .     S
H119   N126    1.029   .     S
H120   N127    1.029   .     S
H122   C514    1.084   .     S
H124   C10     1.083   1_655 S
N126   Zn138   2.015   .     S
N126   N127    1.291   .     D
N127   Zn137   2.015   .     S
O128   Zn137   1.964   .     S
O128   C1      1.279   1_655 S
O129   Zn138   1.995   .     S
O130   Zn137   1.961   .     S
O130   C4      1.286   1_655 S
O131   Zn138   1.923   .     S
O132   Zn137   1.995   .     S
O133   Zn138   1.964   .     S
O134   Zn137   1.923   .     S
O135   Zn138   1.961   .     S
C139   O175    1.285   .     A
C139   C141    1.407   .     S
C139   O266    1.279   1_455 S
C140   C142    1.454   .     S
C140   C153    1.404   .     A
C140   C148    1.403   .     A
C141   C373    1.358   1_455 S
C141   C290    1.496   .     S
C142   O177    1.299   .     A
C142   O268    1.286   1_455 S
C143   C144    1.413   .     S
C144   O178    1.300   .     A
C144   O225    1.266   .     S
C145   O180    1.295   .     A
C145   C147    1.442   .     S
C145   O227    1.287   .     S
C146   C159    1.392   .     A
C146   C569    1.403   1_554 S
C146   H582    1.084   1_554 S
C147   C158    1.383   .     A
C147   C159    1.400   .     A
C148   C563    1.387   .     S
C148   H262    1.083   1_455 S
C149   C151    1.391   .     A
C149   H161    1.083   .     S
C149   C562    1.387   1_554 S
C150   C153    1.404   .     A
C150   C565    1.420   .     S
C150   C568    1.411   .     S
C151   H171    1.079   .     S
C151   C564    1.420   1_554 S
C152   O182    1.219   .     D
C153   C157    1.410   .     A
C154   C158    1.387   .     A
C154   C564    1.411   1_554 S
C154   C569    1.422   1_554 S
C155   C156    1.391   .     A
C155   C560    1.403   .     S
C155   C568    1.422   .     S
C156   H167    1.084   .     S
C156   C157    1.386   .     A
C157   H162    1.078   .     S
C158   H169    1.079   .     S
C159   H206    1.083   .     S
H160   C251    1.083   1_455 S
H163   C290    1.086   .     S
H164   C281    1.087   .     S
H165   N172    1.029   .     S
H166   N173    1.029   .     S
H168   C560    1.084   .     S
H170   C194    1.083   .     S
N172   Zn184   2.015   .     S
N172   N173    1.291   .     D
N173   Zn183   2.015   .     S
O174   Zn183   1.964   .     S
O174   C185    1.279   .     S
O175   Zn184   1.995   .     S
O176   Zn183   1.961   .     S
O176   C188    1.286   .     S
O177   Zn184   1.923   .     S
O178   Zn183   1.995   .     S
O179   Zn184   1.964   .     S
O179   C236    1.266   1_455 S
O180   Zn183   1.923   .     S
O181   Zn184   1.961   .     S
O181   C237    1.287   1_455 S
C185   O221    1.285   .     A
C185   C187    1.407   .     S
C186   C188    1.454   .     S
C186   C199    1.404   .     A
C186   C194    1.403   .     A
C187   C281    1.358   .     S
C187   C336    1.496   .     S
C188   O223    1.299   .     A
C189   C190    1.413   .     S
C190   O224    1.300   .     A
C190   O271    1.266   .     S
C191   O226    1.295   .     A
C191   C193    1.442   .     S
C191   O273    1.287   .     S
C192   C205    1.392   .     A
C192   C615    1.403   1_554 S
C192   H628    1.084   1_554 S
C193   C204    1.383   .     A
C193   C205    1.400   .     A
C194   C609    1.387   .     S
C195   C197    1.391   .     A
C195   H207    1.083   .     S
C195   C608    1.387   1_554 S
C196   C199    1.404   .     A
C196   C611    1.420   .     S
C196   C614    1.411   .     S
C197   H217    1.079   .     S
C197   C610    1.420   1_554 S
C198   O228    1.219   .     D
C199   C203    1.410   .     A
C200   C204    1.387   .     A
C200   C610    1.411   1_554 S
C200   C615    1.422   1_554 S
C201   C202    1.391   .     A
C201   C606    1.403   .     S
C201   C614    1.422   .     S
C202   H213    1.084   .     S
C202   C203    1.386   .     A
C203   H208    1.078   .     S
C204   H215    1.079   .     S
C205   H252    1.083   .     S
H209   C336    1.086   .     S
H210   C327    1.087   .     S
H211   N218    1.029   .     S
H212   N219    1.029   .     S
H214   C606    1.084   .     S
H216   C240    1.083   .     S
N218   Zn230   2.015   .     S
N218   N219    1.291   .     D
N219   Zn229   2.015   .     S
O220   Zn229   1.964   .     S
O220   C231    1.279   .     S
O221   Zn230   1.995   .     S
O222   Zn229   1.961   .     S
O222   C234    1.286   .     S
O223   Zn230   1.923   .     S
O224   Zn229   1.995   .     S
O225   Zn230   1.964   .     S
O226   Zn229   1.923   .     S
O227   Zn230   1.961   .     S
C231   O267    1.285   .     A
C231   C233    1.407   .     S
C232   C234    1.454   .     S
C232   C245    1.404   .     A
C232   C240    1.403   .     A
C233   C327    1.358   .     S
C233   C382    1.496   .     S
C234   O269    1.299   .     A
C235   C236    1.413   .     S
C235   C3      1.358   1_655 S
C236   O270    1.300   .     A
C236   O179    1.266   1_655 S
C237   O272    1.295   .     A
C237   C239    1.442   .     S
C237   O181    1.287   1_655 S
C238   C251    1.392   .     A
C238   C661    1.403   1_554 S
C238   H674    1.084   1_554 S
C239   C250    1.383   .     A
C239   C251    1.400   .     A
C240   C655    1.387   .     S
C241   C243    1.391   .     A
C241   H253    1.083   .     S
C241   C654    1.387   1_554 S
C242   C245    1.404   .     A
C242   C657    1.420   .     S
C242   C660    1.411   .     S
C243   H263    1.079   .     S
C243   C656    1.420   1_554 S
C244   O274    1.219   .     D
C245   C249    1.410   .     A
C246   C250    1.387   .     A
C246   C656    1.411   1_554 S
C246   C661    1.422   1_554 S
C247   C248    1.391   .     A
C247   C652    1.403   .     S
C247   C660    1.422   .     S
C248   H259    1.084   .     S
C248   C249    1.386   .     A
C249   H254    1.078   .     S
C250   H261    1.079   .     S
C251   H160    1.083   1_655 S
H255   C382    1.086   .     S
H256   C373    1.087   .     S
H257   N264    1.029   .     S
H258   N265    1.029   .     S
H260   C652    1.084   .     S
H262   C148    1.083   1_655 S
N264   Zn276   2.015   .     S
N264   N265    1.291   .     D
N265   Zn275   2.015   .     S
O266   Zn275   1.964   .     S
O266   C139    1.279   1_655 S
O267   Zn276   1.995   .     S
O268   Zn275   1.961   .     S
O268   C142    1.286   1_655 S
O269   Zn276   1.923   .     S
O270   Zn275   1.995   .     S
O271   Zn276   1.964   .     S
O272   Zn275   1.923   .     S
O273   Zn276   1.961   .     S
C277   O313    1.285   .     A
C277   C279    1.407   .     S
C277   O404    1.279   1_455 S
C278   C280    1.454   .     S
C278   C291    1.404   .     A
C278   C286    1.403   .     A
C279   C97     1.358   1_465 S
C279   C14     1.496   1_565 S
C280   O315    1.299   .     A
C280   O406    1.286   1_455 S
C281   C282    1.413   .     S
C282   O316    1.300   .     A
C282   O363    1.266   .     S
C283   O318    1.295   .     A
C283   C285    1.442   .     S
C283   O365    1.287   .     S
C284   C297    1.392   .     A
C284   C707    1.403   1_554 S
C284   H720    1.084   1_554 S
C285   C296    1.383   .     A
C285   C297    1.400   .     A
C286   C701    1.387   .     S
C286   H400    1.083   1_455 S
C287   C289    1.391   .     A
C287   H299    1.083   .     S
C287   C700    1.387   1_554 S
C288   C291    1.404   .     A
C288   C703    1.420   .     S
C288   C706    1.411   .     S
C289   H309    1.079   .     S
C289   C702    1.420   1_554 S
C290   O320    1.219   .     D
C291   C295    1.410   .     A
C292   C296    1.387   .     A
C292   C702    1.411   1_554 S
C292   C707    1.422   1_554 S
C293   C294    1.391   .     A
C293   C698    1.403   .     S
C293   C706    1.422   .     S
C294   H305    1.084   .     S
C294   C295    1.386   .     A
C295   H300    1.078   .     S
C296   H307    1.079   .     S
C297   H344    1.083   .     S
H298   C389    1.083   1_455 S
H301   C14     1.086   1_565 S
H302   C5      1.087   1_565 S
H303   N310    1.029   .     S
H304   N311    1.029   .     S
H306   C698    1.084   .     S
H308   C332    1.083   .     S
N310   Zn322   2.015   .     S
N310   N311    1.291   .     D
N311   Zn321   2.015   .     S
O312   Zn321   1.964   .     S
O312   C323    1.279   .     S
O313   Zn322   1.995   .     S
O314   Zn321   1.961   .     S
O314   C326    1.286   .     S
O315   Zn322   1.923   .     S
O316   Zn321   1.995   .     S
O317   Zn322   1.964   .     S
O317   C374    1.266   1_455 S
O318   Zn321   1.923   .     S
O319   Zn322   1.961   .     S
O319   C375    1.287   1_455 S
C323   O359    1.285   .     A
C323   C325    1.407   .     S
C324   C326    1.454   .     S
C324   C337    1.404   .     A
C324   C332    1.403   .     A
C325   C5      1.358   1_565 S
C325   C60     1.496   1_565 S
C326   O361    1.299   .     A
C327   C328    1.413   .     S
C328   O362    1.300   .     A
C328   O409    1.266   .     S
C329   O364    1.295   .     A
C329   C331    1.442   .     S
C329   O411    1.287   .     S
C330   C343    1.392   .     A
C330   C753    1.403   1_554 S
C330   H766    1.084   1_554 S
C331   C342    1.383   .     A
C331   C343    1.400   .     A
C332   C747    1.387   .     S
C333   C335    1.391   .     A
C333   H345    1.083   .     S
C333   C746    1.387   1_554 S
C334   C337    1.404   .     A
C334   C749    1.420   .     S
C334   C752    1.411   .     S
C335   H355    1.079   .     S
C335   C748    1.420   1_554 S
C336   O366    1.219   .     D
C337   C341    1.410   .     A
C338   C342    1.387   .     A
C338   C748    1.411   1_554 S
C338   C753    1.422   1_554 S
C339   C340    1.391   .     A
C339   C744    1.403   .     S
C339   C752    1.422   .     S
C340   H351    1.084   .     S
C340   C341    1.386   .     A
C341   H346    1.078   .     S
C342   H353    1.079   .     S
C343   H390    1.083   .     S
H347   C60     1.086   1_565 S
H348   C51     1.087   1_565 S
H349   N356    1.029   .     S
H350   N357    1.029   .     S
H352   C744    1.084   .     S
H354   C378    1.083   .     S
N356   Zn368   2.015   .     S
N356   N357    1.291   .     D
N357   Zn367   2.015   .     S
O358   Zn367   1.964   .     S
O358   C369    1.279   .     S
O359   Zn368   1.995   .     S
O360   Zn367   1.961   .     S
O360   C372    1.286   .     S
O361   Zn368   1.923   .     S
O362   Zn367   1.995   .     S
O363   Zn368   1.964   .     S
O364   Zn367   1.923   .     S
O365   Zn368   1.961   .     S
C369   O405    1.285   .     A
C369   C371    1.407   .     S
C370   C372    1.454   .     S
C370   C383    1.404   .     A
C370   C378    1.403   .     A
C371   C51     1.358   1_565 S
C371   C106    1.496   1_565 S
C372   O407    1.299   .     A
C373   C374    1.413   .     S
C373   C141    1.358   1_655 S
C374   O408    1.300   .     A
C374   O317    1.266   1_655 S
C375   O410    1.295   .     A
C375   C377    1.442   .     S
C375   O319    1.287   1_655 S
C376   C389    1.392   .     A
C376   C799    1.403   1_554 S
C376   H812    1.084   1_554 S
C377   C388    1.383   .     A
C377   C389    1.400   .     A
C378   C793    1.387   .     S
C379   C381    1.391   .     A
C379   H391    1.083   .     S
C379   C792    1.387   1_554 S
C380   C383    1.404   .     A
C380   C795    1.420   .     S
C380   C798    1.411   .     S
C381   H401    1.079   .     S
C381   C794    1.420   1_554 S
C382   O412    1.219   .     D
C383   C387    1.410   .     A
C384   C388    1.387   .     A
C384   C794    1.411   1_554 S
C384   C799    1.422   1_554 S
C385   C386    1.391   .     A
C385   C790    1.403   .     S
C385   C798    1.422   .     S
C386   H397    1.084   .     S
C386   C387    1.386   .     A
C387   H392    1.078   .     S
C388   H399    1.079   .     S
C389   H298    1.083   1_655 S
H393   C106    1.086   1_565 S
H394   C97     1.087   1_565 S
H395   N402    1.029   .     S
H396   N403    1.029   .     S
H398   C790    1.084   .     S
H400   C286    1.083   1_655 S
N402   Zn414   2.015   .     S
N402   N403    1.291   .     D
N403   Zn413   2.015   .     S
O404   Zn413   1.964   .     S
O404   C277    1.279   1_655 S
O405   Zn414   1.995   .     S
O406   Zn413   1.961   .     S
O406   C280    1.286   1_655 S
O407   Zn414   1.923   .     S
O408   Zn413   1.995   .     S
O409   Zn414   1.964   .     S
O410   Zn413   1.923   .     S
O411   Zn414   1.961   .     S
C415   O451    1.285   .     A
C415   C417    1.407   .     S
C415   O542    1.279   1_455 S
C416   C418    1.454   .     S
C416   C429    1.404   .     A
C416   C424    1.403   .     A
C417   C649    1.358   1_455 S
C417   C566    1.496   .     S
C418   O453    1.299   .     A
C418   O544    1.286   1_455 S
C419   C420    1.413   .     S
C419   C739    1.358   1_545 S
C419   H716    1.087   1_545 S
C420   O454    1.300   .     A
C420   O501    1.266   .     S
C421   O456    1.295   .     A
C421   C423    1.442   .     S
C421   O503    1.287   .     S
C422   C435    1.392   .     A
C423   C434    1.383   .     A
C423   C435    1.400   .     A
C424   C11     1.387   1_556 S
C424   H538    1.083   1_455 S
C425   C427    1.391   .     A
C425   H437    1.083   .     S
C426   C429    1.404   .     A
C426   C13     1.420   1_556 S
C426   C16     1.411   1_556 S
C427   H447    1.079   .     S
C428   O458    1.219   .     D
C428   C693    1.496   1_545 S
C428   H715    1.086   1_545 S
C429   C433    1.410   .     A
C430   C434    1.387   .     A
C431   C432    1.391   .     A
C431   C8      1.403   1_556 S
C431   C16     1.422   1_556 S
C432   H443    1.084   .     S
C432   C433    1.386   .     A
C433   H438    1.078   .     S
C434   H445    1.079   .     S
C435   H482    1.083   .     S
H436   C527    1.083   1_455 S
H439   C566    1.086   .     S
H440   C557    1.087   .     S
H441   N448    1.029   .     S
H442   N449    1.029   .     S
H444   C8      1.084   1_556 S
H446   C470    1.083   .     S
N448   Zn460   2.015   .     S
N448   N449    1.291   .     D
N449   Zn459   2.015   .     S
O450   Zn459   1.964   .     S
O450   C461    1.279   .     S
O451   Zn460   1.995   .     S
O452   Zn459   1.961   .     S
O452   C464    1.286   .     S
O453   Zn460   1.923   .     S
O454   Zn459   1.995   .     S
O455   Zn460   1.964   .     S
O455   C512    1.266   1_455 S
O456   Zn459   1.923   .     S
O457   Zn460   1.961   .     S
O457   C513    1.287   1_455 S
C461   O497    1.285   .     A
C461   C463    1.407   .     S
C462   C464    1.454   .     S
C462   C475    1.404   .     A
C462   C470    1.403   .     A
C463   C557    1.358   .     S
C463   C612    1.496   .     S
C464   O499    1.299   .     A
C465   C466    1.413   .     S
C465   C785    1.358   1_545 S
C465   H762    1.087   1_545 S
C466   O500    1.300   .     A
C466   O547    1.266   .     S
C467   O502    1.295   .     A
C467   C469    1.442   .     S
C467   O549    1.287   .     S
C468   C481    1.392   .     A
C469   C480    1.383   .     A
C469   C481    1.400   .     A
C470   C57     1.387   1_556 S
C471   C473    1.391   .     A
C471   H483    1.083   .     S
C472   C475    1.404   .     A
C472   C59     1.420   1_556 S
C472   C62     1.411   1_556 S
C473   H493    1.079   .     S
C474   O504    1.219   .     D
C474   C739    1.496   1_545 S
C474   H761    1.086   1_545 S
C475   C479    1.410   .     A
C476   C480    1.387   .     A
C477   C478    1.391   .     A
C477   C54     1.403   1_556 S
C477   C62     1.422   1_556 S
C478   H489    1.084   .     S
C478   C479    1.386   .     A
C479   H484    1.078   .     S
C480   H491    1.079   .     S
C481   H528    1.083   .     S
H485   C612    1.086   .     S
H486   C603    1.087   .     S
H487   N494    1.029   .     S
H488   N495    1.029   .     S
H490   C54     1.084   1_556 S
H492   C516    1.083   .     S
N494   Zn506   2.015   .     S
N494   N495    1.291   .     D
N495   Zn505   2.015   .     S
O496   Zn505   1.964   .     S
O496   C507    1.279   .     S
O497   Zn506   1.995   .     S
O498   Zn505   1.961   .     S
O498   C510    1.286   .     S
O499   Zn506   1.923   .     S
O500   Zn505   1.995   .     S
O501   Zn506   1.964   .     S
O502   Zn505   1.923   .     S
O503   Zn506   1.961   .     S
C507   O543    1.285   .     A
C507   C509    1.407   .     S
C508   C510    1.454   .     S
C508   C521    1.404   .     A
C508   C516    1.403   .     A
C509   C603    1.358   .     S
C509   C658    1.496   .     S
C510   O545    1.299   .     A
C511   C512    1.413   .     S
C511   C693    1.358   1_645 S
C511   H808    1.087   1_545 S
C512   O546    1.300   .     A
C512   O455    1.266   1_655 S
C513   O548    1.295   .     A
C513   C515    1.442   .     S
C513   O457    1.287   1_655 S
C514   C527    1.392   .     A
C515   C526    1.383   .     A
C515   C527    1.400   .     A
C516   C103    1.387   1_556 S
C517   C519    1.391   .     A
C517   H529    1.083   .     S
C518   C521    1.404   .     A
C518   C105    1.420   1_556 S
C518   C108    1.411   1_556 S
C519   H539    1.079   .     S
C520   O550    1.219   .     D
C520   C785    1.496   1_545 S
C520   H807    1.086   1_545 S
C521   C525    1.410   .     A
C522   C526    1.387   .     A
C523   C524    1.391   .     A
C523   C100    1.403   1_556 S
C523   C108    1.422   1_556 S
C524   H535    1.084   .     S
C524   C525    1.386   .     A
C525   H530    1.078   .     S
C526   H537    1.079   .     S
C527   H436    1.083   1_655 S
H531   C658    1.086   .     S
H532   C649    1.087   .     S
H533   N540    1.029   .     S
H534   N541    1.029   .     S
H536   C100    1.084   1_556 S
H538   C424    1.083   1_655 S
N540   Zn552   2.015   .     S
N540   N541    1.291   .     D
N541   Zn551   2.015   .     S
O542   Zn551   1.964   .     S
O542   C415    1.279   1_655 S
O543   Zn552   1.995   .     S
O544   Zn551   1.961   .     S
O544   C418    1.286   1_655 S
O545   Zn552   1.923   .     S
O546   Zn551   1.995   .     S
O547   Zn552   1.964   .     S
O548   Zn551   1.923   .     S
O549   Zn552   1.961   .     S
C553   O589    1.285   .     A
C553   C555    1.407   .     S
C553   O680    1.279   1_455 S
C554   C556    1.454   .     S
C554   C567    1.404   .     A
C554   C562    1.403   .     A
C555   C787    1.358   1_455 S
C555   C704    1.496   .     S
C556   O591    1.299   .     A
C556   O682    1.286   1_455 S
C557   C558    1.413   .     S
C558   O592    1.300   .     A
C558   O639    1.266   .     S
C559   O594    1.295   .     A
C559   C561    1.442   .     S
C559   O641    1.287   .     S
C560   C573    1.392   .     A
C561   C572    1.383   .     A
C561   C573    1.400   .     A
C562   C149    1.387   1_556 S
C562   H676    1.083   1_455 S
C563   C565    1.391   .     A
C563   H575    1.083   .     S
C564   C567    1.404   .     A
C564   C151    1.420   1_556 S
C564   C154    1.411   1_556 S
C565   H585    1.079   .     S
C566   O596    1.219   .     D
C567   C571    1.410   .     A
C568   C572    1.387   .     A
C569   C570    1.391   .     A
C569   C146    1.403   1_556 S
C569   C154    1.422   1_556 S
C570   H581    1.084   .     S
C570   C571    1.386   .     A
C571   H576    1.078   .     S
C572   H583    1.079   .     S
C573   H620    1.083   .     S
H574   C665    1.083   1_455 S
H577   C704    1.086   .     S
H578   C695    1.087   .     S
H579   N586    1.029   .     S
H580   N587    1.029   .     S
H582   C146    1.084   1_556 S
H584   C608    1.083   .     S
N586   Zn598   2.015   .     S
N586   N587    1.291   .     D
N587   Zn597   2.015   .     S
O588   Zn597   1.964   .     S
O588   C599    1.279   .     S
O589   Zn598   1.995   .     S
O590   Zn597   1.961   .     S
O590   C602    1.286   .     S
O591   Zn598   1.923   .     S
O592   Zn597   1.995   .     S
O593   Zn598   1.964   .     S
O593   C650    1.266   1_455 S
O594   Zn597   1.923   .     S
O595   Zn598   1.961   .     S
O595   C651    1.287   1_455 S
C599   O635    1.285   .     A
C599   C601    1.407   .     S
C600   C602    1.454   .     S
C600   C613    1.404   .     A
C600   C608    1.403   .     A
C601   C695    1.358   .     S
C601   C750    1.496   .     S
C602   O637    1.299   .     A
C603   C604    1.413   .     S
C604   O638    1.300   .     A
C604   O685    1.266   .     S
C605   O640    1.295   .     A
C605   C607    1.442   .     S
C605   O687    1.287   .     S
C606   C619    1.392   .     A
C607   C618    1.383   .     A
C607   C619    1.400   .     A
C608   C195    1.387   1_556 S
C609   C611    1.391   .     A
C609   H621    1.083   .     S
C610   C613    1.404   .     A
C610   C197    1.420   1_556 S
C610   C200    1.411   1_556 S
C611   H631    1.079   .     S
C612   O642    1.219   .     D
C613   C617    1.410   .     A
C614   C618    1.387   .     A
C615   C616    1.391   .     A
C615   C192    1.403   1_556 S
C615   C200    1.422   1_556 S
C616   H627    1.084   .     S
C616   C617    1.386   .     A
C617   H622    1.078   .     S
C618   H629    1.079   .     S
C619   H666    1.083   .     S
H623   C750    1.086   .     S
H624   C741    1.087   .     S
H625   N632    1.029   .     S
H626   N633    1.029   .     S
H628   C192    1.084   1_556 S
H630   C654    1.083   .     S
N632   Zn644   2.015   .     S
N632   N633    1.291   .     D
N633   Zn643   2.015   .     S
O634   Zn643   1.964   .     S
O634   C645    1.279   .     S
O635   Zn644   1.995   .     S
O636   Zn643   1.961   .     S
O636   C648    1.286   .     S
O637   Zn644   1.923   .     S
O638   Zn643   1.995   .     S
O639   Zn644   1.964   .     S
O640   Zn643   1.923   .     S
O641   Zn644   1.961   .     S
C645   O681    1.285   .     A
C645   C647    1.407   .     S
C646   C648    1.454   .     S
C646   C659    1.404   .     A
C646   C654    1.403   .     A
C647   C741    1.358   .     S
C647   C796    1.496   .     S
C648   O683    1.299   .     A
C649   C650    1.413   .     S
C649   C417    1.358   1_655 S
C650   O684    1.300   .     A
C650   O593    1.266   1_655 S
C651   O686    1.295   .     A
C651   C653    1.442   .     S
C651   O595    1.287   1_655 S
C652   C665    1.392   .     A
C653   C664    1.383   .     A
C653   C665    1.400   .     A
C654   C241    1.387   1_556 S
C655   C657    1.391   .     A
C655   H667    1.083   .     S
C656   C659    1.404   .     A
C656   C243    1.420   1_556 S
C656   C246    1.411   1_556 S
C657   H677    1.079   .     S
C658   O688    1.219   .     D
C659   C663    1.410   .     A
C660   C664    1.387   .     A
C661   C662    1.391   .     A
C661   C238    1.403   1_556 S
C661   C246    1.422   1_556 S
C662   H673    1.084   .     S
C662   C663    1.386   .     A
C663   H668    1.078   .     S
C664   H675    1.079   .     S
C665   H574    1.083   1_655 S
H669   C796    1.086   .     S
H670   C787    1.087   .     S
H671   N678    1.029   .     S
H672   N679    1.029   .     S
H674   C238    1.084   1_556 S
H676   C562    1.083   1_655 S
N678   Zn690   2.015   .     S
N678   N679    1.291   .     D
N679   Zn689   2.015   .     S
O680   Zn689   1.964   .     S
O680   C553    1.279   1_655 S
O681   Zn690   1.995   .     S
O682   Zn689   1.961   .     S
O682   C556    1.286   1_655 S
O683   Zn690   1.923   .     S
O684   Zn689   1.995   .     S
O685   Zn690   1.964   .     S
O686   Zn689   1.923   .     S
O687   Zn690   1.961   .     S
C691   O727    1.285   .     A
C691   C693    1.407   .     S
C691   O818    1.279   1_455 S
C692   C694    1.454   .     S
C692   C705    1.404   .     A
C692   C700    1.403   .     A
C693   C511    1.358   1_465 S
C693   C428    1.496   1_565 S
C694   O729    1.299   .     A
C694   O820    1.286   1_455 S
C695   C696    1.413   .     S
C696   O730    1.300   .     A
C696   O777    1.266   .     S
C697   O732    1.295   .     A
C697   C699    1.442   .     S
C697   O779    1.287   .     S
C698   C711    1.392   .     A
C699   C710    1.383   .     A
C699   C711    1.400   .     A
C700   C287    1.387   1_556 S
C700   H814    1.083   1_455 S
C701   C703    1.391   .     A
C701   H713    1.083   .     S
C702   C705    1.404   .     A
C702   C289    1.420   1_556 S
C702   C292    1.411   1_556 S
C703   H723    1.079   .     S
C704   O734    1.219   .     D
C705   C709    1.410   .     A
C706   C710    1.387   .     A
C707   C708    1.391   .     A
C707   C284    1.403   1_556 S
C707   C292    1.422   1_556 S
C708   H719    1.084   .     S
C708   C709    1.386   .     A
C709   H714    1.078   .     S
C710   H721    1.079   .     S
C711   H758    1.083   .     S
H712   C803    1.083   1_455 S
H715   C428    1.086   1_565 S
H716   C419    1.087   1_565 S
H717   N724    1.029   .     S
H718   N725    1.029   .     S
H720   C284    1.084   1_556 S
H722   C746    1.083   .     S
N724   Zn736   2.015   .     S
N724   N725    1.291   .     D
N725   Zn735   2.015   .     S
O726   Zn735   1.964   .     S
O726   C737    1.279   .     S
O727   Zn736   1.995   .     S
O728   Zn735   1.961   .     S
O728   C740    1.286   .     S
O729   Zn736   1.923   .     S
O730   Zn735   1.995   .     S
O731   Zn736   1.964   .     S
O731   C788    1.266   1_455 S
O732   Zn735   1.923   .     S
O733   Zn736   1.961   .     S
O733   C789    1.287   1_455 S
C737   O773    1.285   .     A
C737   C739    1.407   .     S
C738   C740    1.454   .     S
C738   C751    1.404   .     A
C738   C746    1.403   .     A
C739   C419    1.358   1_565 S
C739   C474    1.496   1_565 S
C740   O775    1.299   .     A
C741   C742    1.413   .     S
C742   O776    1.300   .     A
C742   O823    1.266   .     S
C743   O778    1.295   .     A
C743   C745    1.442   .     S
C743   O825    1.287   .     S
C744   C757    1.392   .     A
C745   C756    1.383   .     A
C745   C757    1.400   .     A
C746   C333    1.387   1_556 S
C747   C749    1.391   .     A
C747   H759    1.083   .     S
C748   C751    1.404   .     A
C748   C335    1.420   1_556 S
C748   C338    1.411   1_556 S
C749   H769    1.079   .     S
C750   O780    1.219   .     D
C751   C755    1.410   .     A
C752   C756    1.387   .     A
C753   C754    1.391   .     A
C753   C330    1.403   1_556 S
C753   C338    1.422   1_556 S
C754   H765    1.084   .     S
C754   C755    1.386   .     A
C755   H760    1.078   .     S
C756   H767    1.079   .     S
C757   H804    1.083   .     S
H761   C474    1.086   1_565 S
H762   C465    1.087   1_565 S
H763   N770    1.029   .     S
H764   N771    1.029   .     S
H766   C330    1.084   1_556 S
H768   C792    1.083   .     S
N770   Zn782   2.015   .     S
N770   N771    1.291   .     D
N771   Zn781   2.015   .     S
O772   Zn781   1.964   .     S
O772   C783    1.279   .     S
O773   Zn782   1.995   .     S
O774   Zn781   1.961   .     S
O774   C786    1.286   .     S
O775   Zn782   1.923   .     S
O776   Zn781   1.995   .     S
O777   Zn782   1.964   .     S
O778   Zn781   1.923   .     S
O779   Zn782   1.961   .     S
C783   O819    1.285   .     A
C783   C785    1.407   .     S
C784   C786    1.454   .     S
C784   C797    1.404   .     A
C784   C792    1.403   .     A
C785   C465    1.358   1_565 S
C785   C520    1.496   1_565 S
C786   O821    1.299   .     A
C787   C788    1.413   .     S
C787   C555    1.358   1_655 S
C788   O822    1.300   .     A
C788   O731    1.266   1_655 S
C789   O824    1.295   .     A
C789   C791    1.442   .     S
C789   O733    1.287   1_655 S
C790   C803    1.392   .     A
C791   C802    1.383   .     A
C791   C803    1.400   .     A
C792   C379    1.387   1_556 S
C793   C795    1.391   .     A
C793   H805    1.083   .     S
C794   C797    1.404   .     A
C794   C381    1.420   1_556 S
C794   C384    1.411   1_556 S
C795   H815    1.079   .     S
C796   O826    1.219   .     D
C797   C801    1.410   .     A
C798   C802    1.387   .     A
C799   C800    1.391   .     A
C799   C376    1.403   1_556 S
C799   C384    1.422   1_556 S
C800   H811    1.084   .     S
C800   C801    1.386   .     A
C801   H806    1.078   .     S
C802   H813    1.079   .     S
C803   H712    1.083   1_655 S
H807   C520    1.086   1_565 S
H808   C511    1.087   1_565 S
H809   N816    1.029   .     S
H810   N817    1.029   .     S
H812   C376    1.084   1_556 S
H814   C700    1.083   1_655 S
N816   Zn828   2.015   .     S
N816   N817    1.291   .     D
N817   Zn827   2.015   .     S
O818   Zn827   1.964   .     S
O818   C691    1.279   1_655 S
O819   Zn828   1.995   .     S
O820   Zn827   1.961   .     S
O820   C694    1.286   1_655 S
O821   Zn828   1.923   .     S
O822   Zn827   1.995   .     S
O823   Zn828   1.964   .     S
O824   Zn827   1.923   .     S
O825   Zn828   1.961   .     S
