data_str_m2_o10_o17_pcu_sym.20
_audit_creation_date              2020-01-03
_audit_creation_method            'Materials Studio'
_symmetry_space_group_name_H-M    'P1'
_symmetry_Int_Tables_number       1
_symmetry_cell_setting            triclinic
loop_
_symmetry_equiv_pos_as_xyz
  x,y,z
_cell_length_a                    30.1950
_cell_length_b                    26.0192
_cell_length_c                    22.2950
_cell_angle_alpha                 103.1031
_cell_angle_beta                  94.1812
_cell_angle_gamma                 92.3205
loop_
_atom_site_label
_atom_site_type_symbol
_atom_site_fract_x
_atom_site_fract_y
_atom_site_fract_z
_atom_site_U_iso_or_equiv
_atom_site_adp_type
_atom_site_occupancy
C1     C     0.24830   0.06652   0.15105   0.00000  Uiso   1.00
C2     C     0.08968   0.15017   0.11377   0.00000  Uiso   1.00
C3     C     0.38389   0.16409   0.16398   0.00000  Uiso   1.00
C4     C     0.11611   0.16925   0.16935   0.00000  Uiso   1.00
C5     C     0.40375   0.14340   0.10877   0.00000  Uiso   1.00
C6     C     0.09625   0.18993   0.22456   0.00000  Uiso   1.00
C7     C     0.45053   0.14624   0.10935   0.00000  Uiso   1.00
C8     C     0.04947   0.18710   0.22399   0.00000  Uiso   1.00
C9     C     0.47668   0.16576   0.16592   0.00000  Uiso   1.00
C10    C     0.02332   0.16758   0.16741   0.00000  Uiso   1.00
C11    C     0.45631   0.18367   0.22104   0.00000  Uiso   1.00
C12    C     0.25170   0.26681   0.18228   0.00000  Uiso   1.00
C13    C     0.04369   0.14966   0.11229   0.00000  Uiso   1.00
C14    C     0.47170   0.12996   0.05467   0.00000  Uiso   1.00
C15    C     0.02830   0.20337   0.27866   0.00000  Uiso   1.00
C16    C     0.37886   0.06715   0.03679   0.00000  Uiso   1.00
C17    C     0.33519   0.04077   0.04725   0.00000  Uiso   1.00
C18    C     0.12114   0.26618   0.29654   0.00000  Uiso   1.00
C19    C     0.16481   0.29256   0.28609   0.00000  Uiso   1.00
C20    C     0.01782   0.13102   0.05632   0.00000  Uiso   1.00
C21    C     0.48218   0.20232   0.27701   0.00000  Uiso   1.00
C22    C     0.24755   0.01052   0.14225   0.00000  Uiso   1.00
C23    C     0.25245   0.32282   0.19108   0.00000  Uiso   1.00
C24    C     0.16441   0.16775   0.16775   0.00000  Uiso   1.00
C25    C     0.33559   0.16558   0.16558   0.00000  Uiso   1.00
C26    C     0.41032   0.18316   0.21956   0.00000  Uiso   1.00
Cu27   Cu    0.25500   0.17246   0.22813   0.00000  Uiso   1.00
Cu28   Cu    0.24499   0.16087   0.10521   0.00000  Uiso   1.00
H29    H     0.39507   0.19826   0.26215   0.00000  Uiso   1.00
H30    H     0.28490   0.20733   0.01732   0.00000  Uiso   1.00
H31    H     0.40665   0.05066   0.06100   0.00000  Uiso   1.00
H32    H     0.38346   0.05589   0.31995   0.00000  Uiso   1.00
H33    H     0.30703   0.05578   0.02261   0.00000  Uiso   1.00
H34    H     0.33542   0.33066   0.02943   0.00000  Uiso   1.00
H35    H     0.33094   0.04913   0.09746   0.00000  Uiso   1.00
H36    H     0.11654   0.27744   0.01338   0.00000  Uiso   1.00
H37    H     0.09335   0.28267   0.27233   0.00000  Uiso   1.00
H38    H     0.16906   0.28421   0.23587   0.00000  Uiso   1.00
H39    H     0.16458   0.00268   0.30390   0.00000  Uiso   1.00
H40    H     0.10493   0.13507   0.07119   0.00000  Uiso   1.00
H41    H     0.19297   0.27756   0.31073   0.00000  Uiso   1.00
H42    H     0.45286   0.11633   0.01030   0.00000  Uiso   1.00
H43    H     0.04714   0.21700   0.32303   0.00000  Uiso   1.00
H44    H     0.03330   0.11740   0.01364   0.00000  Uiso   1.00
H45    H     0.46670   0.21593   0.31969   0.00000  Uiso   1.00
H46    H     0.24315   0.31985   0.09521   0.00000  Uiso   1.00
H47    H     0.25685   0.01348   0.23812   0.00000  Uiso   1.00
H48    H     0.21510   0.12601   0.31601   0.00000  Uiso   1.00
N49    N     0.23744   0.15214   0.01284   0.00000  Uiso   1.00
N50    N     0.26255   0.18119   0.32049   0.00000  Uiso   1.00
O51    O     0.25325   0.09538   0.20659   0.00000  Uiso   1.00
O52    O     0.12270   0.21034   0.27909   0.00000  Uiso   1.00
O53    O     0.24674   0.23796   0.12674   0.00000  Uiso   1.00
O54    O     0.24480   0.08559   0.10279   0.00000  Uiso   1.00
O55    O     0.25520   0.24774   0.23055   0.00000  Uiso   1.00
O56    O     0.18935   0.17155   0.21857   0.00000  Uiso   1.00
O57    O     0.31064   0.16179   0.11476   0.00000  Uiso   1.00
O58    O     0.18090   0.16176   0.11477   0.00000  Uiso   1.00
O59    O     0.31910   0.17157   0.21857   0.00000  Uiso   1.00
O60    O     0.37730   0.12299   0.05424   0.00000  Uiso   1.00
C61    C     0.74830   0.06652   0.15105   0.00000  Uiso   1.00
C62    C     0.58968   0.15017   0.11377   0.00000  Uiso   1.00
C63    C     0.88389   0.16409   0.16398   0.00000  Uiso   1.00
C64    C     0.61611   0.16925   0.16935   0.00000  Uiso   1.00
C65    C     0.90375   0.14340   0.10877   0.00000  Uiso   1.00
C66    C     0.59625   0.18993   0.22456   0.00000  Uiso   1.00
C67    C     0.95053   0.14624   0.10935   0.00000  Uiso   1.00
C68    C     0.54947   0.18710   0.22399   0.00000  Uiso   1.00
C69    C     0.97668   0.16576   0.16592   0.00000  Uiso   1.00
C70    C     0.52332   0.16758   0.16741   0.00000  Uiso   1.00
C71    C     0.95631   0.18367   0.22104   0.00000  Uiso   1.00
C72    C     0.75170   0.26681   0.18228   0.00000  Uiso   1.00
C73    C     0.54369   0.14966   0.11229   0.00000  Uiso   1.00
C74    C     0.97170   0.12996   0.05467   0.00000  Uiso   1.00
C75    C     0.52830   0.20337   0.27866   0.00000  Uiso   1.00
C76    C     0.87886   0.06715   0.03679   0.00000  Uiso   1.00
C77    C     0.83519   0.04077   0.04725   0.00000  Uiso   1.00
C78    C     0.62114   0.26618   0.29654   0.00000  Uiso   1.00
C79    C     0.66481   0.29256   0.28609   0.00000  Uiso   1.00
C80    C     0.51782   0.13102   0.05632   0.00000  Uiso   1.00
C81    C     0.98218   0.20232   0.27701   0.00000  Uiso   1.00
C82    C     0.74755   0.01052   0.14225   0.00000  Uiso   1.00
C83    C     0.75245   0.32282   0.19108   0.00000  Uiso   1.00
C84    C     0.66441   0.16775   0.16775   0.00000  Uiso   1.00
C85    C     0.83559   0.16558   0.16558   0.00000  Uiso   1.00
C86    C     0.91032   0.18316   0.21956   0.00000  Uiso   1.00
Cu87   Cu    0.75500   0.17246   0.22813   0.00000  Uiso   1.00
Cu88   Cu    0.74499   0.16087   0.10521   0.00000  Uiso   1.00
H89    H     0.89507   0.19826   0.26215   0.00000  Uiso   1.00
H90    H     0.78490   0.20733   0.01732   0.00000  Uiso   1.00
H91    H     0.90665   0.05066   0.06100   0.00000  Uiso   1.00
H92    H     0.88346   0.05589   0.31995   0.00000  Uiso   1.00
H93    H     0.80703   0.05578   0.02261   0.00000  Uiso   1.00
H94    H     0.83542   0.33066   0.02943   0.00000  Uiso   1.00
H95    H     0.83094   0.04913   0.09746   0.00000  Uiso   1.00
H96    H     0.61654   0.27744   0.01338   0.00000  Uiso   1.00
H97    H     0.59335   0.28267   0.27233   0.00000  Uiso   1.00
H98    H     0.66906   0.28421   0.23587   0.00000  Uiso   1.00
H99    H     0.66458   0.00268   0.30390   0.00000  Uiso   1.00
H100   H     0.60493   0.13507   0.07119   0.00000  Uiso   1.00
H101   H     0.69297   0.27756   0.31073   0.00000  Uiso   1.00
H102   H     0.95286   0.11633   0.01030   0.00000  Uiso   1.00
H103   H     0.54714   0.21700   0.32303   0.00000  Uiso   1.00
H104   H     0.53330   0.11740   0.01364   0.00000  Uiso   1.00
H105   H     0.96670   0.21593   0.31969   0.00000  Uiso   1.00
H106   H     0.74315   0.31985   0.09521   0.00000  Uiso   1.00
H107   H     0.75685   0.01348   0.23812   0.00000  Uiso   1.00
H108   H     0.71510   0.12601   0.31601   0.00000  Uiso   1.00
N109   N     0.73744   0.15214   0.01284   0.00000  Uiso   1.00
N110   N     0.76255   0.18119   0.32049   0.00000  Uiso   1.00
O111   O     0.75325   0.09538   0.20659   0.00000  Uiso   1.00
O112   O     0.62270   0.21034   0.27909   0.00000  Uiso   1.00
O113   O     0.74674   0.23796   0.12674   0.00000  Uiso   1.00
O114   O     0.74480   0.08559   0.10279   0.00000  Uiso   1.00
O115   O     0.75520   0.24774   0.23055   0.00000  Uiso   1.00
O116   O     0.68935   0.17155   0.21857   0.00000  Uiso   1.00
O117   O     0.81064   0.16179   0.11476   0.00000  Uiso   1.00
O118   O     0.68090   0.16176   0.11477   0.00000  Uiso   1.00
O119   O     0.81910   0.17157   0.21857   0.00000  Uiso   1.00
O120   O     0.87730   0.12299   0.05424   0.00000  Uiso   1.00
C121   C     0.24830   0.39985   0.15105   0.00000  Uiso   1.00
C122   C     0.08968   0.48351   0.11377   0.00000  Uiso   1.00
C123   C     0.38389   0.49742   0.16398   0.00000  Uiso   1.00
C124   C     0.11611   0.50258   0.16935   0.00000  Uiso   1.00
C125   C     0.40375   0.47673   0.10877   0.00000  Uiso   1.00
C126   C     0.09625   0.52327   0.22456   0.00000  Uiso   1.00
C127   C     0.45053   0.47957   0.10935   0.00000  Uiso   1.00
C128   C     0.04947   0.52043   0.22399   0.00000  Uiso   1.00
C129   C     0.47668   0.49909   0.16592   0.00000  Uiso   1.00
C130   C     0.02332   0.50091   0.16741   0.00000  Uiso   1.00
C131   C     0.45631   0.51701   0.22104   0.00000  Uiso   1.00
C132   C     0.25170   0.60015   0.18228   0.00000  Uiso   1.00
C133   C     0.04369   0.48299   0.11229   0.00000  Uiso   1.00
C134   C     0.47170   0.46329   0.05467   0.00000  Uiso   1.00
C135   C     0.02830   0.53671   0.27866   0.00000  Uiso   1.00
C136   C     0.37886   0.40048   0.03679   0.00000  Uiso   1.00
C137   C     0.33519   0.37411   0.04725   0.00000  Uiso   1.00
C138   C     0.12114   0.59952   0.29654   0.00000  Uiso   1.00
C139   C     0.16481   0.62589   0.28609   0.00000  Uiso   1.00
C140   C     0.01782   0.46435   0.05632   0.00000  Uiso   1.00
C141   C     0.48218   0.53565   0.27701   0.00000  Uiso   1.00
C142   C     0.24755   0.34385   0.14225   0.00000  Uiso   1.00
C143   C     0.25245   0.65615   0.19108   0.00000  Uiso   1.00
C144   C     0.16441   0.50109   0.16775   0.00000  Uiso   1.00
C145   C     0.33559   0.49891   0.16558   0.00000  Uiso   1.00
C146   C     0.41032   0.51649   0.21956   0.00000  Uiso   1.00
Cu147  Cu    0.25500   0.50579   0.22813   0.00000  Uiso   1.00
Cu148  Cu    0.24499   0.49421   0.10521   0.00000  Uiso   1.00
H149   H     0.39507   0.53159   0.26215   0.00000  Uiso   1.00
H150   H     0.28490   0.54066   0.01732   0.00000  Uiso   1.00
H151   H     0.40665   0.38400   0.06100   0.00000  Uiso   1.00
H152   H     0.38346   0.38923   0.31995   0.00000  Uiso   1.00
H153   H     0.30703   0.38911   0.02261   0.00000  Uiso   1.00
H154   H     0.33542   0.66399   0.02943   0.00000  Uiso   1.00
H155   H     0.33094   0.38246   0.09746   0.00000  Uiso   1.00
H156   H     0.11654   0.61077   0.01338   0.00000  Uiso   1.00
H157   H     0.09335   0.61600   0.27233   0.00000  Uiso   1.00
H158   H     0.16906   0.61754   0.23587   0.00000  Uiso   1.00
H159   H     0.16458   0.33601   0.30390   0.00000  Uiso   1.00
H160   H     0.10493   0.46841   0.07119   0.00000  Uiso   1.00
H161   H     0.19297   0.61089   0.31073   0.00000  Uiso   1.00
H162   H     0.45286   0.44966   0.01030   0.00000  Uiso   1.00
H163   H     0.04714   0.55034   0.32303   0.00000  Uiso   1.00
H164   H     0.03330   0.45074   0.01364   0.00000  Uiso   1.00
H165   H     0.46670   0.54926   0.31969   0.00000  Uiso   1.00
H166   H     0.24315   0.65318   0.09521   0.00000  Uiso   1.00
H167   H     0.25685   0.34682   0.23812   0.00000  Uiso   1.00
H168   H     0.21510   0.45934   0.31601   0.00000  Uiso   1.00
N169   N     0.23744   0.48547   0.01284   0.00000  Uiso   1.00
N170   N     0.26255   0.51453   0.32049   0.00000  Uiso   1.00
O171   O     0.25325   0.42871   0.20659   0.00000  Uiso   1.00
O172   O     0.12270   0.54368   0.27909   0.00000  Uiso   1.00
O173   O     0.24674   0.57129   0.12674   0.00000  Uiso   1.00
O174   O     0.24480   0.41892   0.10279   0.00000  Uiso   1.00
O175   O     0.25520   0.58108   0.23055   0.00000  Uiso   1.00
O176   O     0.18935   0.50488   0.21857   0.00000  Uiso   1.00
O177   O     0.31064   0.49512   0.11476   0.00000  Uiso   1.00
O178   O     0.18090   0.49510   0.11477   0.00000  Uiso   1.00
O179   O     0.31910   0.50490   0.21857   0.00000  Uiso   1.00
O180   O     0.37730   0.45632   0.05424   0.00000  Uiso   1.00
C181   C     0.74830   0.39985   0.15105   0.00000  Uiso   1.00
C182   C     0.58968   0.48351   0.11377   0.00000  Uiso   1.00
C183   C     0.88389   0.49742   0.16398   0.00000  Uiso   1.00
C184   C     0.61611   0.50258   0.16935   0.00000  Uiso   1.00
C185   C     0.90375   0.47673   0.10877   0.00000  Uiso   1.00
C186   C     0.59625   0.52327   0.22456   0.00000  Uiso   1.00
C187   C     0.95053   0.47957   0.10935   0.00000  Uiso   1.00
C188   C     0.54947   0.52043   0.22399   0.00000  Uiso   1.00
C189   C     0.97668   0.49909   0.16592   0.00000  Uiso   1.00
C190   C     0.52332   0.50091   0.16741   0.00000  Uiso   1.00
C191   C     0.95631   0.51701   0.22104   0.00000  Uiso   1.00
C192   C     0.75170   0.60015   0.18228   0.00000  Uiso   1.00
C193   C     0.54369   0.48299   0.11229   0.00000  Uiso   1.00
C194   C     0.97170   0.46329   0.05467   0.00000  Uiso   1.00
C195   C     0.52830   0.53671   0.27866   0.00000  Uiso   1.00
C196   C     0.87886   0.40048   0.03679   0.00000  Uiso   1.00
C197   C     0.83519   0.37411   0.04725   0.00000  Uiso   1.00
C198   C     0.62114   0.59952   0.29654   0.00000  Uiso   1.00
C199   C     0.66481   0.62589   0.28609   0.00000  Uiso   1.00
C200   C     0.51782   0.46435   0.05632   0.00000  Uiso   1.00
C201   C     0.98218   0.53565   0.27701   0.00000  Uiso   1.00
C202   C     0.74755   0.34385   0.14225   0.00000  Uiso   1.00
C203   C     0.75245   0.65615   0.19108   0.00000  Uiso   1.00
C204   C     0.66441   0.50109   0.16775   0.00000  Uiso   1.00
C205   C     0.83559   0.49891   0.16558   0.00000  Uiso   1.00
C206   C     0.91032   0.51649   0.21956   0.00000  Uiso   1.00
Cu207  Cu    0.75500   0.50579   0.22813   0.00000  Uiso   1.00
Cu208  Cu    0.74499   0.49421   0.10521   0.00000  Uiso   1.00
H209   H     0.89507   0.53159   0.26215   0.00000  Uiso   1.00
H210   H     0.78490   0.54066   0.01732   0.00000  Uiso   1.00
H211   H     0.90665   0.38400   0.06100   0.00000  Uiso   1.00
H212   H     0.88346   0.38923   0.31995   0.00000  Uiso   1.00
H213   H     0.80703   0.38911   0.02261   0.00000  Uiso   1.00
H214   H     0.83542   0.66399   0.02943   0.00000  Uiso   1.00
H215   H     0.83094   0.38246   0.09746   0.00000  Uiso   1.00
H216   H     0.61654   0.61077   0.01338   0.00000  Uiso   1.00
H217   H     0.59335   0.61600   0.27233   0.00000  Uiso   1.00
H218   H     0.66906   0.61754   0.23587   0.00000  Uiso   1.00
H219   H     0.66458   0.33601   0.30390   0.00000  Uiso   1.00
H220   H     0.60493   0.46841   0.07119   0.00000  Uiso   1.00
H221   H     0.69297   0.61089   0.31073   0.00000  Uiso   1.00
H222   H     0.95286   0.44966   0.01030   0.00000  Uiso   1.00
H223   H     0.54714   0.55034   0.32303   0.00000  Uiso   1.00
H224   H     0.53330   0.45074   0.01364   0.00000  Uiso   1.00
H225   H     0.96670   0.54926   0.31969   0.00000  Uiso   1.00
H226   H     0.74315   0.65318   0.09521   0.00000  Uiso   1.00
H227   H     0.75685   0.34682   0.23812   0.00000  Uiso   1.00
H228   H     0.71510   0.45934   0.31601   0.00000  Uiso   1.00
N229   N     0.73744   0.48547   0.01284   0.00000  Uiso   1.00
N230   N     0.76255   0.51453   0.32049   0.00000  Uiso   1.00
O231   O     0.75325   0.42871   0.20659   0.00000  Uiso   1.00
O232   O     0.62270   0.54368   0.27909   0.00000  Uiso   1.00
O233   O     0.74674   0.57129   0.12674   0.00000  Uiso   1.00
O234   O     0.74480   0.41892   0.10279   0.00000  Uiso   1.00
O235   O     0.75520   0.58108   0.23055   0.00000  Uiso   1.00
O236   O     0.68935   0.50488   0.21857   0.00000  Uiso   1.00
O237   O     0.81064   0.49512   0.11476   0.00000  Uiso   1.00
O238   O     0.68090   0.49510   0.11477   0.00000  Uiso   1.00
O239   O     0.81910   0.50490   0.21857   0.00000  Uiso   1.00
O240   O     0.87730   0.45632   0.05424   0.00000  Uiso   1.00
C241   C     0.24830   0.73319   0.15105   0.00000  Uiso   1.00
C242   C     0.08968   0.81684   0.11377   0.00000  Uiso   1.00
C243   C     0.38389   0.83075   0.16398   0.00000  Uiso   1.00
C244   C     0.11611   0.83591   0.16935   0.00000  Uiso   1.00
C245   C     0.40375   0.81007   0.10877   0.00000  Uiso   1.00
C246   C     0.09625   0.85660   0.22456   0.00000  Uiso   1.00
C247   C     0.45053   0.81290   0.10935   0.00000  Uiso   1.00
C248   C     0.04947   0.85376   0.22399   0.00000  Uiso   1.00
C249   C     0.47668   0.83242   0.16592   0.00000  Uiso   1.00
C250   C     0.02332   0.83424   0.16741   0.00000  Uiso   1.00
C251   C     0.45631   0.85034   0.22104   0.00000  Uiso   1.00
C252   C     0.25170   0.93348   0.18228   0.00000  Uiso   1.00
C253   C     0.04369   0.81633   0.11229   0.00000  Uiso   1.00
C254   C     0.47170   0.79663   0.05467   0.00000  Uiso   1.00
C255   C     0.02830   0.87004   0.27866   0.00000  Uiso   1.00
C256   C     0.37886   0.73382   0.03679   0.00000  Uiso   1.00
C257   C     0.33519   0.70744   0.04725   0.00000  Uiso   1.00
C258   C     0.12114   0.93285   0.29654   0.00000  Uiso   1.00
C259   C     0.16481   0.95923   0.28609   0.00000  Uiso   1.00
C260   C     0.01782   0.79768   0.05632   0.00000  Uiso   1.00
C261   C     0.48218   0.86898   0.27701   0.00000  Uiso   1.00
C262   C     0.24755   0.67718   0.14225   0.00000  Uiso   1.00
C263   C     0.25245   0.98948   0.19108   0.00000  Uiso   1.00
C264   C     0.16441   0.83442   0.16775   0.00000  Uiso   1.00
C265   C     0.33559   0.83225   0.16558   0.00000  Uiso   1.00
C266   C     0.41032   0.84983   0.21956   0.00000  Uiso   1.00
Cu267  Cu    0.25500   0.83913   0.22813   0.00000  Uiso   1.00
Cu268  Cu    0.24499   0.82754   0.10521   0.00000  Uiso   1.00
H269   H     0.39507   0.86493   0.26215   0.00000  Uiso   1.00
H270   H     0.28490   0.87399   0.01732   0.00000  Uiso   1.00
H271   H     0.40665   0.71733   0.06100   0.00000  Uiso   1.00
H272   H     0.38346   0.72256   0.31995   0.00000  Uiso   1.00
H273   H     0.30703   0.72244   0.02261   0.00000  Uiso   1.00
H274   H     0.33542   0.99732   0.02943   0.00000  Uiso   1.00
H275   H     0.33094   0.71579   0.09746   0.00000  Uiso   1.00
H276   H     0.11654   0.94411   0.01338   0.00000  Uiso   1.00
H277   H     0.09335   0.94934   0.27233   0.00000  Uiso   1.00
H278   H     0.16906   0.95087   0.23587   0.00000  Uiso   1.00
H279   H     0.16458   0.66934   0.30390   0.00000  Uiso   1.00
H280   H     0.10493   0.80174   0.07119   0.00000  Uiso   1.00
H281   H     0.19297   0.94422   0.31073   0.00000  Uiso   1.00
H282   H     0.45286   0.78300   0.01030   0.00000  Uiso   1.00
H283   H     0.04714   0.88367   0.32303   0.00000  Uiso   1.00
H284   H     0.03330   0.78407   0.01364   0.00000  Uiso   1.00
H285   H     0.46670   0.88260   0.31969   0.00000  Uiso   1.00
H286   H     0.24315   0.98652   0.09521   0.00000  Uiso   1.00
H287   H     0.25685   0.68015   0.23812   0.00000  Uiso   1.00
H288   H     0.21510   0.79267   0.31601   0.00000  Uiso   1.00
N289   N     0.23744   0.81881   0.01284   0.00000  Uiso   1.00
N290   N     0.26255   0.84786   0.32049   0.00000  Uiso   1.00
O291   O     0.25325   0.76204   0.20659   0.00000  Uiso   1.00
O292   O     0.12270   0.87701   0.27909   0.00000  Uiso   1.00
O293   O     0.24674   0.90462   0.12674   0.00000  Uiso   1.00
O294   O     0.24480   0.75226   0.10279   0.00000  Uiso   1.00
O295   O     0.25520   0.91441   0.23055   0.00000  Uiso   1.00
O296   O     0.18935   0.83821   0.21857   0.00000  Uiso   1.00
O297   O     0.31064   0.82845   0.11476   0.00000  Uiso   1.00
O298   O     0.18090   0.82843   0.11477   0.00000  Uiso   1.00
O299   O     0.31910   0.83824   0.21857   0.00000  Uiso   1.00
O300   O     0.37730   0.78966   0.05424   0.00000  Uiso   1.00
C301   C     0.74830   0.73319   0.15105   0.00000  Uiso   1.00
C302   C     0.58968   0.81684   0.11377   0.00000  Uiso   1.00
C303   C     0.88389   0.83075   0.16398   0.00000  Uiso   1.00
C304   C     0.61611   0.83591   0.16935   0.00000  Uiso   1.00
C305   C     0.90375   0.81007   0.10877   0.00000  Uiso   1.00
C306   C     0.59625   0.85660   0.22456   0.00000  Uiso   1.00
C307   C     0.95053   0.81290   0.10935   0.00000  Uiso   1.00
C308   C     0.54947   0.85376   0.22399   0.00000  Uiso   1.00
C309   C     0.97668   0.83242   0.16592   0.00000  Uiso   1.00
C310   C     0.52332   0.83424   0.16741   0.00000  Uiso   1.00
C311   C     0.95631   0.85034   0.22104   0.00000  Uiso   1.00
C312   C     0.75170   0.93348   0.18228   0.00000  Uiso   1.00
C313   C     0.54369   0.81633   0.11229   0.00000  Uiso   1.00
C314   C     0.97170   0.79663   0.05467   0.00000  Uiso   1.00
C315   C     0.52830   0.87004   0.27866   0.00000  Uiso   1.00
C316   C     0.87886   0.73382   0.03679   0.00000  Uiso   1.00
C317   C     0.83519   0.70744   0.04725   0.00000  Uiso   1.00
C318   C     0.62114   0.93285   0.29654   0.00000  Uiso   1.00
C319   C     0.66481   0.95923   0.28609   0.00000  Uiso   1.00
C320   C     0.51782   0.79768   0.05632   0.00000  Uiso   1.00
C321   C     0.98218   0.86898   0.27701   0.00000  Uiso   1.00
C322   C     0.74755   0.67718   0.14225   0.00000  Uiso   1.00
C323   C     0.75245   0.98948   0.19108   0.00000  Uiso   1.00
C324   C     0.66441   0.83442   0.16775   0.00000  Uiso   1.00
C325   C     0.83559   0.83225   0.16558   0.00000  Uiso   1.00
C326   C     0.91032   0.84983   0.21956   0.00000  Uiso   1.00
Cu327  Cu    0.75500   0.83913   0.22813   0.00000  Uiso   1.00
Cu328  Cu    0.74499   0.82754   0.10521   0.00000  Uiso   1.00
H329   H     0.89507   0.86493   0.26215   0.00000  Uiso   1.00
H330   H     0.78490   0.87399   0.01732   0.00000  Uiso   1.00
H331   H     0.90665   0.71733   0.06100   0.00000  Uiso   1.00
H332   H     0.88346   0.72256   0.31995   0.00000  Uiso   1.00
H333   H     0.80703   0.72244   0.02261   0.00000  Uiso   1.00
H334   H     0.83542   0.99732   0.02943   0.00000  Uiso   1.00
H335   H     0.83094   0.71579   0.09746   0.00000  Uiso   1.00
H336   H     0.61654   0.94411   0.01338   0.00000  Uiso   1.00
H337   H     0.59335   0.94934   0.27233   0.00000  Uiso   1.00
H338   H     0.66906   0.95087   0.23587   0.00000  Uiso   1.00
H339   H     0.66458   0.66934   0.30390   0.00000  Uiso   1.00
H340   H     0.60493   0.80174   0.07119   0.00000  Uiso   1.00
H341   H     0.69297   0.94422   0.31073   0.00000  Uiso   1.00
H342   H     0.95286   0.78300   0.01030   0.00000  Uiso   1.00
H343   H     0.54714   0.88367   0.32303   0.00000  Uiso   1.00
H344   H     0.53330   0.78407   0.01364   0.00000  Uiso   1.00
H345   H     0.96670   0.88260   0.31969   0.00000  Uiso   1.00
H346   H     0.74315   0.98652   0.09521   0.00000  Uiso   1.00
H347   H     0.75685   0.68015   0.23812   0.00000  Uiso   1.00
H348   H     0.71510   0.79267   0.31601   0.00000  Uiso   1.00
N349   N     0.73744   0.81881   0.01284   0.00000  Uiso   1.00
N350   N     0.76255   0.84786   0.32049   0.00000  Uiso   1.00
O351   O     0.75325   0.76204   0.20659   0.00000  Uiso   1.00
O352   O     0.62270   0.87701   0.27909   0.00000  Uiso   1.00
O353   O     0.74674   0.90462   0.12674   0.00000  Uiso   1.00
O354   O     0.74480   0.75226   0.10279   0.00000  Uiso   1.00
O355   O     0.75520   0.91441   0.23055   0.00000  Uiso   1.00
O356   O     0.68935   0.83821   0.21857   0.00000  Uiso   1.00
O357   O     0.81064   0.82845   0.11476   0.00000  Uiso   1.00
O358   O     0.68090   0.82843   0.11477   0.00000  Uiso   1.00
O359   O     0.81910   0.83824   0.21857   0.00000  Uiso   1.00
O360   O     0.87730   0.78966   0.05424   0.00000  Uiso   1.00
C361   C     0.24830   0.06652   0.48439   0.00000  Uiso   1.00
C362   C     0.08968   0.15017   0.44710   0.00000  Uiso   1.00
C363   C     0.38389   0.16409   0.49732   0.00000  Uiso   1.00
C364   C     0.11611   0.16925   0.50268   0.00000  Uiso   1.00
C365   C     0.40375   0.14340   0.44210   0.00000  Uiso   1.00
C366   C     0.09625   0.18993   0.55790   0.00000  Uiso   1.00
C367   C     0.45053   0.14624   0.44268   0.00000  Uiso   1.00
C368   C     0.04947   0.18710   0.55732   0.00000  Uiso   1.00
C369   C     0.47668   0.16576   0.49925   0.00000  Uiso   1.00
C370   C     0.02332   0.16758   0.50075   0.00000  Uiso   1.00
C371   C     0.45631   0.18367   0.55437   0.00000  Uiso   1.00
C372   C     0.25170   0.26681   0.51561   0.00000  Uiso   1.00
C373   C     0.04369   0.14966   0.44563   0.00000  Uiso   1.00
C374   C     0.47170   0.12996   0.38801   0.00000  Uiso   1.00
C375   C     0.02830   0.20337   0.61199   0.00000  Uiso   1.00
C376   C     0.37886   0.06715   0.37013   0.00000  Uiso   1.00
C377   C     0.33519   0.04077   0.38058   0.00000  Uiso   1.00
C378   C     0.12114   0.26618   0.62987   0.00000  Uiso   1.00
C379   C     0.16481   0.29256   0.61942   0.00000  Uiso   1.00
C380   C     0.01782   0.13102   0.38966   0.00000  Uiso   1.00
C381   C     0.48218   0.20232   0.61034   0.00000  Uiso   1.00
C382   C     0.24755   0.01052   0.47558   0.00000  Uiso   1.00
C383   C     0.25245   0.32282   0.52442   0.00000  Uiso   1.00
C384   C     0.16441   0.16775   0.50108   0.00000  Uiso   1.00
C385   C     0.33559   0.16558   0.49892   0.00000  Uiso   1.00
C386   C     0.41032   0.18316   0.55290   0.00000  Uiso   1.00
Cu387  Cu    0.25500   0.17246   0.56146   0.00000  Uiso   1.00
Cu388  Cu    0.24499   0.16087   0.43854   0.00000  Uiso   1.00
H389   H     0.39507   0.19826   0.59548   0.00000  Uiso   1.00
H390   H     0.28490   0.20733   0.35065   0.00000  Uiso   1.00
H391   H     0.40665   0.05066   0.39433   0.00000  Uiso   1.00
H392   H     0.38346   0.05589   0.65329   0.00000  Uiso   1.00
H393   H     0.30703   0.05578   0.35594   0.00000  Uiso   1.00
H394   H     0.33542   0.33066   0.36276   0.00000  Uiso   1.00
H395   H     0.33094   0.04913   0.43080   0.00000  Uiso   1.00
H396   H     0.11654   0.27744   0.34671   0.00000  Uiso   1.00
H397   H     0.09335   0.28267   0.60567   0.00000  Uiso   1.00
H398   H     0.16906   0.28421   0.56920   0.00000  Uiso   1.00
H399   H     0.16458   0.00268   0.63724   0.00000  Uiso   1.00
H400   H     0.10493   0.13507   0.40452   0.00000  Uiso   1.00
H401   H     0.19297   0.27756   0.64406   0.00000  Uiso   1.00
H402   H     0.45286   0.11633   0.34364   0.00000  Uiso   1.00
H403   H     0.04714   0.21700   0.65637   0.00000  Uiso   1.00
H404   H     0.03330   0.11740   0.34697   0.00000  Uiso   1.00
H405   H     0.46670   0.21593   0.65303   0.00000  Uiso   1.00
H406   H     0.24315   0.31985   0.42854   0.00000  Uiso   1.00
H407   H     0.25685   0.01348   0.57146   0.00000  Uiso   1.00
H408   H     0.21510   0.12601   0.64935   0.00000  Uiso   1.00
N409   N     0.23744   0.15214   0.34617   0.00000  Uiso   1.00
N410   N     0.26255   0.18119   0.65383   0.00000  Uiso   1.00
O411   O     0.25325   0.09538   0.53992   0.00000  Uiso   1.00
O412   O     0.12270   0.21034   0.61242   0.00000  Uiso   1.00
O413   O     0.24674   0.23796   0.46008   0.00000  Uiso   1.00
O414   O     0.24480   0.08559   0.43612   0.00000  Uiso   1.00
O415   O     0.25520   0.24774   0.56388   0.00000  Uiso   1.00
O416   O     0.18935   0.17155   0.55191   0.00000  Uiso   1.00
O417   O     0.31064   0.16179   0.44809   0.00000  Uiso   1.00
O418   O     0.18090   0.16176   0.44810   0.00000  Uiso   1.00
O419   O     0.31910   0.17157   0.55190   0.00000  Uiso   1.00
O420   O     0.37730   0.12299   0.38758   0.00000  Uiso   1.00
C421   C     0.74830   0.06652   0.48439   0.00000  Uiso   1.00
C422   C     0.58968   0.15017   0.44710   0.00000  Uiso   1.00
C423   C     0.88389   0.16409   0.49732   0.00000  Uiso   1.00
C424   C     0.61611   0.16925   0.50268   0.00000  Uiso   1.00
C425   C     0.90375   0.14340   0.44210   0.00000  Uiso   1.00
C426   C     0.59625   0.18993   0.55790   0.00000  Uiso   1.00
C427   C     0.95053   0.14624   0.44268   0.00000  Uiso   1.00
C428   C     0.54947   0.18710   0.55732   0.00000  Uiso   1.00
C429   C     0.97668   0.16576   0.49925   0.00000  Uiso   1.00
C430   C     0.52332   0.16758   0.50075   0.00000  Uiso   1.00
C431   C     0.95631   0.18367   0.55437   0.00000  Uiso   1.00
C432   C     0.75170   0.26681   0.51561   0.00000  Uiso   1.00
C433   C     0.54369   0.14966   0.44563   0.00000  Uiso   1.00
C434   C     0.97170   0.12996   0.38801   0.00000  Uiso   1.00
C435   C     0.52830   0.20337   0.61199   0.00000  Uiso   1.00
C436   C     0.87886   0.06715   0.37013   0.00000  Uiso   1.00
C437   C     0.83519   0.04077   0.38058   0.00000  Uiso   1.00
C438   C     0.62114   0.26618   0.62987   0.00000  Uiso   1.00
C439   C     0.66481   0.29256   0.61942   0.00000  Uiso   1.00
C440   C     0.51782   0.13102   0.38966   0.00000  Uiso   1.00
C441   C     0.98218   0.20232   0.61034   0.00000  Uiso   1.00
C442   C     0.74755   0.01052   0.47558   0.00000  Uiso   1.00
C443   C     0.75245   0.32282   0.52442   0.00000  Uiso   1.00
C444   C     0.66441   0.16775   0.50108   0.00000  Uiso   1.00
C445   C     0.83559   0.16558   0.49892   0.00000  Uiso   1.00
C446   C     0.91032   0.18316   0.55290   0.00000  Uiso   1.00
Cu447  Cu    0.75500   0.17246   0.56146   0.00000  Uiso   1.00
Cu448  Cu    0.74499   0.16087   0.43854   0.00000  Uiso   1.00
H449   H     0.89507   0.19826   0.59548   0.00000  Uiso   1.00
H450   H     0.78490   0.20733   0.35065   0.00000  Uiso   1.00
H451   H     0.90665   0.05066   0.39433   0.00000  Uiso   1.00
H452   H     0.88346   0.05589   0.65329   0.00000  Uiso   1.00
H453   H     0.80703   0.05578   0.35594   0.00000  Uiso   1.00
H454   H     0.83542   0.33066   0.36276   0.00000  Uiso   1.00
H455   H     0.83094   0.04913   0.43080   0.00000  Uiso   1.00
H456   H     0.61654   0.27744   0.34671   0.00000  Uiso   1.00
H457   H     0.59335   0.28267   0.60567   0.00000  Uiso   1.00
H458   H     0.66906   0.28421   0.56920   0.00000  Uiso   1.00
H459   H     0.66458   0.00268   0.63724   0.00000  Uiso   1.00
H460   H     0.60493   0.13507   0.40452   0.00000  Uiso   1.00
H461   H     0.69297   0.27756   0.64406   0.00000  Uiso   1.00
H462   H     0.95286   0.11633   0.34364   0.00000  Uiso   1.00
H463   H     0.54714   0.21700   0.65637   0.00000  Uiso   1.00
H464   H     0.53330   0.11740   0.34697   0.00000  Uiso   1.00
H465   H     0.96670   0.21593   0.65303   0.00000  Uiso   1.00
H466   H     0.74315   0.31985   0.42854   0.00000  Uiso   1.00
H467   H     0.75685   0.01348   0.57146   0.00000  Uiso   1.00
H468   H     0.71510   0.12601   0.64935   0.00000  Uiso   1.00
N469   N     0.73744   0.15214   0.34617   0.00000  Uiso   1.00
N470   N     0.76255   0.18119   0.65383   0.00000  Uiso   1.00
O471   O     0.75325   0.09538   0.53992   0.00000  Uiso   1.00
O472   O     0.62270   0.21034   0.61242   0.00000  Uiso   1.00
O473   O     0.74674   0.23796   0.46008   0.00000  Uiso   1.00
O474   O     0.74480   0.08559   0.43612   0.00000  Uiso   1.00
O475   O     0.75520   0.24774   0.56388   0.00000  Uiso   1.00
O476   O     0.68935   0.17155   0.55191   0.00000  Uiso   1.00
O477   O     0.81064   0.16179   0.44809   0.00000  Uiso   1.00
O478   O     0.68090   0.16176   0.44810   0.00000  Uiso   1.00
O479   O     0.81910   0.17157   0.55190   0.00000  Uiso   1.00
O480   O     0.87730   0.12299   0.38758   0.00000  Uiso   1.00
C481   C     0.24830   0.39985   0.48439   0.00000  Uiso   1.00
C482   C     0.08968   0.48351   0.44710   0.00000  Uiso   1.00
C483   C     0.38389   0.49742   0.49732   0.00000  Uiso   1.00
C484   C     0.11611   0.50258   0.50268   0.00000  Uiso   1.00
C485   C     0.40375   0.47673   0.44210   0.00000  Uiso   1.00
C486   C     0.09625   0.52327   0.55790   0.00000  Uiso   1.00
C487   C     0.45053   0.47957   0.44268   0.00000  Uiso   1.00
C488   C     0.04947   0.52043   0.55732   0.00000  Uiso   1.00
C489   C     0.47668   0.49909   0.49925   0.00000  Uiso   1.00
C490   C     0.02332   0.50091   0.50075   0.00000  Uiso   1.00
C491   C     0.45631   0.51701   0.55437   0.00000  Uiso   1.00
C492   C     0.25170   0.60015   0.51561   0.00000  Uiso   1.00
C493   C     0.04369   0.48299   0.44563   0.00000  Uiso   1.00
C494   C     0.47170   0.46329   0.38801   0.00000  Uiso   1.00
C495   C     0.02830   0.53671   0.61199   0.00000  Uiso   1.00
C496   C     0.37886   0.40048   0.37013   0.00000  Uiso   1.00
C497   C     0.33519   0.37411   0.38058   0.00000  Uiso   1.00
C498   C     0.12114   0.59952   0.62987   0.00000  Uiso   1.00
C499   C     0.16481   0.62589   0.61942   0.00000  Uiso   1.00
C500   C     0.01782   0.46435   0.38966   0.00000  Uiso   1.00
C501   C     0.48218   0.53565   0.61034   0.00000  Uiso   1.00
C502   C     0.24755   0.34385   0.47558   0.00000  Uiso   1.00
C503   C     0.25245   0.65615   0.52442   0.00000  Uiso   1.00
C504   C     0.16441   0.50109   0.50108   0.00000  Uiso   1.00
C505   C     0.33559   0.49891   0.49892   0.00000  Uiso   1.00
C506   C     0.41032   0.51649   0.55290   0.00000  Uiso   1.00
Cu507  Cu    0.25500   0.50579   0.56146   0.00000  Uiso   1.00
Cu508  Cu    0.24499   0.49421   0.43854   0.00000  Uiso   1.00
H509   H     0.39507   0.53159   0.59548   0.00000  Uiso   1.00
H510   H     0.28490   0.54066   0.35065   0.00000  Uiso   1.00
H511   H     0.40665   0.38400   0.39433   0.00000  Uiso   1.00
H512   H     0.38346   0.38923   0.65329   0.00000  Uiso   1.00
H513   H     0.30703   0.38911   0.35594   0.00000  Uiso   1.00
H514   H     0.33542   0.66399   0.36276   0.00000  Uiso   1.00
H515   H     0.33094   0.38246   0.43080   0.00000  Uiso   1.00
H516   H     0.11654   0.61077   0.34671   0.00000  Uiso   1.00
H517   H     0.09335   0.61600   0.60567   0.00000  Uiso   1.00
H518   H     0.16906   0.61754   0.56920   0.00000  Uiso   1.00
H519   H     0.16458   0.33601   0.63724   0.00000  Uiso   1.00
H520   H     0.10493   0.46841   0.40452   0.00000  Uiso   1.00
H521   H     0.19297   0.61089   0.64406   0.00000  Uiso   1.00
H522   H     0.45286   0.44966   0.34364   0.00000  Uiso   1.00
H523   H     0.04714   0.55034   0.65637   0.00000  Uiso   1.00
H524   H     0.03330   0.45074   0.34697   0.00000  Uiso   1.00
H525   H     0.46670   0.54926   0.65303   0.00000  Uiso   1.00
H526   H     0.24315   0.65318   0.42854   0.00000  Uiso   1.00
H527   H     0.25685   0.34682   0.57146   0.00000  Uiso   1.00
H528   H     0.21510   0.45934   0.64935   0.00000  Uiso   1.00
N529   N     0.23744   0.48547   0.34617   0.00000  Uiso   1.00
N530   N     0.26255   0.51453   0.65383   0.00000  Uiso   1.00
O531   O     0.25325   0.42871   0.53992   0.00000  Uiso   1.00
O532   O     0.12270   0.54368   0.61242   0.00000  Uiso   1.00
O533   O     0.24674   0.57129   0.46008   0.00000  Uiso   1.00
O534   O     0.24480   0.41892   0.43612   0.00000  Uiso   1.00
O535   O     0.25520   0.58108   0.56388   0.00000  Uiso   1.00
O536   O     0.18935   0.50488   0.55191   0.00000  Uiso   1.00
O537   O     0.31064   0.49512   0.44809   0.00000  Uiso   1.00
O538   O     0.18090   0.49510   0.44810   0.00000  Uiso   1.00
O539   O     0.31910   0.50490   0.55190   0.00000  Uiso   1.00
O540   O     0.37730   0.45632   0.38758   0.00000  Uiso   1.00
C541   C     0.74830   0.39985   0.48439   0.00000  Uiso   1.00
C542   C     0.58968   0.48351   0.44710   0.00000  Uiso   1.00
C543   C     0.88389   0.49742   0.49732   0.00000  Uiso   1.00
C544   C     0.61611   0.50258   0.50268   0.00000  Uiso   1.00
C545   C     0.90375   0.47673   0.44210   0.00000  Uiso   1.00
C546   C     0.59625   0.52327   0.55790   0.00000  Uiso   1.00
C547   C     0.95053   0.47957   0.44268   0.00000  Uiso   1.00
C548   C     0.54947   0.52043   0.55732   0.00000  Uiso   1.00
C549   C     0.97668   0.49909   0.49925   0.00000  Uiso   1.00
C550   C     0.52332   0.50091   0.50075   0.00000  Uiso   1.00
C551   C     0.95631   0.51701   0.55437   0.00000  Uiso   1.00
C552   C     0.75170   0.60015   0.51561   0.00000  Uiso   1.00
C553   C     0.54369   0.48299   0.44563   0.00000  Uiso   1.00
C554   C     0.97170   0.46329   0.38801   0.00000  Uiso   1.00
C555   C     0.52830   0.53671   0.61199   0.00000  Uiso   1.00
C556   C     0.87886   0.40048   0.37013   0.00000  Uiso   1.00
C557   C     0.83519   0.37411   0.38058   0.00000  Uiso   1.00
C558   C     0.62114   0.59952   0.62987   0.00000  Uiso   1.00
C559   C     0.66481   0.62589   0.61942   0.00000  Uiso   1.00
C560   C     0.51782   0.46435   0.38966   0.00000  Uiso   1.00
C561   C     0.98218   0.53565   0.61034   0.00000  Uiso   1.00
C562   C     0.74755   0.34385   0.47558   0.00000  Uiso   1.00
C563   C     0.75245   0.65615   0.52442   0.00000  Uiso   1.00
C564   C     0.66441   0.50109   0.50108   0.00000  Uiso   1.00
C565   C     0.83559   0.49891   0.49892   0.00000  Uiso   1.00
C566   C     0.91032   0.51649   0.55290   0.00000  Uiso   1.00
Cu567  Cu    0.75500   0.50579   0.56146   0.00000  Uiso   1.00
Cu568  Cu    0.74499   0.49421   0.43854   0.00000  Uiso   1.00
H569   H     0.89507   0.53159   0.59548   0.00000  Uiso   1.00
H570   H     0.78490   0.54066   0.35065   0.00000  Uiso   1.00
H571   H     0.90665   0.38400   0.39433   0.00000  Uiso   1.00
H572   H     0.88346   0.38923   0.65329   0.00000  Uiso   1.00
H573   H     0.80703   0.38911   0.35594   0.00000  Uiso   1.00
H574   H     0.83542   0.66399   0.36276   0.00000  Uiso   1.00
H575   H     0.83094   0.38246   0.43080   0.00000  Uiso   1.00
H576   H     0.61654   0.61077   0.34671   0.00000  Uiso   1.00
H577   H     0.59335   0.61600   0.60567   0.00000  Uiso   1.00
H578   H     0.66906   0.61754   0.56920   0.00000  Uiso   1.00
H579   H     0.66458   0.33601   0.63724   0.00000  Uiso   1.00
H580   H     0.60493   0.46841   0.40452   0.00000  Uiso   1.00
H581   H     0.69297   0.61089   0.64406   0.00000  Uiso   1.00
H582   H     0.95286   0.44966   0.34364   0.00000  Uiso   1.00
H583   H     0.54714   0.55034   0.65637   0.00000  Uiso   1.00
H584   H     0.53330   0.45074   0.34697   0.00000  Uiso   1.00
H585   H     0.96670   0.54926   0.65303   0.00000  Uiso   1.00
H586   H     0.74315   0.65318   0.42854   0.00000  Uiso   1.00
H587   H     0.75685   0.34682   0.57146   0.00000  Uiso   1.00
H588   H     0.71510   0.45934   0.64935   0.00000  Uiso   1.00
N589   N     0.73744   0.48547   0.34617   0.00000  Uiso   1.00
N590   N     0.76255   0.51453   0.65383   0.00000  Uiso   1.00
O591   O     0.75325   0.42871   0.53992   0.00000  Uiso   1.00
O592   O     0.62270   0.54368   0.61242   0.00000  Uiso   1.00
O593   O     0.74674   0.57129   0.46008   0.00000  Uiso   1.00
O594   O     0.74480   0.41892   0.43612   0.00000  Uiso   1.00
O595   O     0.75520   0.58108   0.56388   0.00000  Uiso   1.00
O596   O     0.68935   0.50488   0.55191   0.00000  Uiso   1.00
O597   O     0.81064   0.49512   0.44809   0.00000  Uiso   1.00
O598   O     0.68090   0.49510   0.44810   0.00000  Uiso   1.00
O599   O     0.81910   0.50490   0.55190   0.00000  Uiso   1.00
O600   O     0.87730   0.45632   0.38758   0.00000  Uiso   1.00
C601   C     0.24830   0.73319   0.48439   0.00000  Uiso   1.00
C602   C     0.08968   0.81684   0.44710   0.00000  Uiso   1.00
C603   C     0.38389   0.83075   0.49732   0.00000  Uiso   1.00
C604   C     0.11611   0.83591   0.50268   0.00000  Uiso   1.00
C605   C     0.40375   0.81007   0.44210   0.00000  Uiso   1.00
C606   C     0.09625   0.85660   0.55790   0.00000  Uiso   1.00
C607   C     0.45053   0.81290   0.44268   0.00000  Uiso   1.00
C608   C     0.04947   0.85376   0.55732   0.00000  Uiso   1.00
C609   C     0.47668   0.83242   0.49925   0.00000  Uiso   1.00
C610   C     0.02332   0.83424   0.50075   0.00000  Uiso   1.00
C611   C     0.45631   0.85034   0.55437   0.00000  Uiso   1.00
C612   C     0.25170   0.93348   0.51561   0.00000  Uiso   1.00
C613   C     0.04369   0.81633   0.44563   0.00000  Uiso   1.00
C614   C     0.47170   0.79663   0.38801   0.00000  Uiso   1.00
C615   C     0.02830   0.87004   0.61199   0.00000  Uiso   1.00
C616   C     0.37886   0.73382   0.37013   0.00000  Uiso   1.00
C617   C     0.33519   0.70744   0.38058   0.00000  Uiso   1.00
C618   C     0.12114   0.93285   0.62987   0.00000  Uiso   1.00
C619   C     0.16481   0.95923   0.61942   0.00000  Uiso   1.00
C620   C     0.01782   0.79768   0.38966   0.00000  Uiso   1.00
C621   C     0.48218   0.86898   0.61034   0.00000  Uiso   1.00
C622   C     0.24755   0.67718   0.47558   0.00000  Uiso   1.00
C623   C     0.25245   0.98948   0.52442   0.00000  Uiso   1.00
C624   C     0.16441   0.83442   0.50108   0.00000  Uiso   1.00
C625   C     0.33559   0.83225   0.49892   0.00000  Uiso   1.00
C626   C     0.41032   0.84983   0.55290   0.00000  Uiso   1.00
Cu627  Cu    0.25500   0.83913   0.56146   0.00000  Uiso   1.00
Cu628  Cu    0.24499   0.82754   0.43854   0.00000  Uiso   1.00
H629   H     0.39507   0.86493   0.59548   0.00000  Uiso   1.00
H630   H     0.28490   0.87399   0.35065   0.00000  Uiso   1.00
H631   H     0.40665   0.71733   0.39433   0.00000  Uiso   1.00
H632   H     0.38346   0.72256   0.65329   0.00000  Uiso   1.00
H633   H     0.30703   0.72244   0.35594   0.00000  Uiso   1.00
H634   H     0.33542   0.99732   0.36276   0.00000  Uiso   1.00
H635   H     0.33094   0.71579   0.43080   0.00000  Uiso   1.00
H636   H     0.11654   0.94411   0.34671   0.00000  Uiso   1.00
H637   H     0.09335   0.94934   0.60567   0.00000  Uiso   1.00
H638   H     0.16906   0.95087   0.56920   0.00000  Uiso   1.00
H639   H     0.16458   0.66934   0.63724   0.00000  Uiso   1.00
H640   H     0.10493   0.80174   0.40452   0.00000  Uiso   1.00
H641   H     0.19297   0.94422   0.64406   0.00000  Uiso   1.00
H642   H     0.45286   0.78300   0.34364   0.00000  Uiso   1.00
H643   H     0.04714   0.88367   0.65637   0.00000  Uiso   1.00
H644   H     0.03330   0.78407   0.34697   0.00000  Uiso   1.00
H645   H     0.46670   0.88260   0.65303   0.00000  Uiso   1.00
H646   H     0.24315   0.98652   0.42854   0.00000  Uiso   1.00
H647   H     0.25685   0.68015   0.57146   0.00000  Uiso   1.00
H648   H     0.21510   0.79267   0.64935   0.00000  Uiso   1.00
N649   N     0.23744   0.81881   0.34617   0.00000  Uiso   1.00
N650   N     0.26255   0.84786   0.65383   0.00000  Uiso   1.00
O651   O     0.25325   0.76204   0.53992   0.00000  Uiso   1.00
O652   O     0.12270   0.87701   0.61242   0.00000  Uiso   1.00
O653   O     0.24674   0.90462   0.46008   0.00000  Uiso   1.00
O654   O     0.24480   0.75226   0.43612   0.00000  Uiso   1.00
O655   O     0.25520   0.91441   0.56388   0.00000  Uiso   1.00
O656   O     0.18935   0.83821   0.55191   0.00000  Uiso   1.00
O657   O     0.31064   0.82845   0.44809   0.00000  Uiso   1.00
O658   O     0.18090   0.82843   0.44810   0.00000  Uiso   1.00
O659   O     0.31910   0.83824   0.55190   0.00000  Uiso   1.00
O660   O     0.37730   0.78966   0.38758   0.00000  Uiso   1.00
C661   C     0.74830   0.73319   0.48439   0.00000  Uiso   1.00
C662   C     0.58968   0.81684   0.44710   0.00000  Uiso   1.00
C663   C     0.88389   0.83075   0.49732   0.00000  Uiso   1.00
C664   C     0.61611   0.83591   0.50268   0.00000  Uiso   1.00
C665   C     0.90375   0.81007   0.44210   0.00000  Uiso   1.00
C666   C     0.59625   0.85660   0.55790   0.00000  Uiso   1.00
C667   C     0.95053   0.81290   0.44268   0.00000  Uiso   1.00
C668   C     0.54947   0.85376   0.55732   0.00000  Uiso   1.00
C669   C     0.97668   0.83242   0.49925   0.00000  Uiso   1.00
C670   C     0.52332   0.83424   0.50075   0.00000  Uiso   1.00
C671   C     0.95631   0.85034   0.55437   0.00000  Uiso   1.00
C672   C     0.75170   0.93348   0.51561   0.00000  Uiso   1.00
C673   C     0.54369   0.81633   0.44563   0.00000  Uiso   1.00
C674   C     0.97170   0.79663   0.38801   0.00000  Uiso   1.00
C675   C     0.52830   0.87004   0.61199   0.00000  Uiso   1.00
C676   C     0.87886   0.73382   0.37013   0.00000  Uiso   1.00
C677   C     0.83519   0.70744   0.38058   0.00000  Uiso   1.00
C678   C     0.62114   0.93285   0.62987   0.00000  Uiso   1.00
C679   C     0.66481   0.95923   0.61942   0.00000  Uiso   1.00
C680   C     0.51782   0.79768   0.38966   0.00000  Uiso   1.00
C681   C     0.98218   0.86898   0.61034   0.00000  Uiso   1.00
C682   C     0.74755   0.67718   0.47558   0.00000  Uiso   1.00
C683   C     0.75245   0.98948   0.52442   0.00000  Uiso   1.00
C684   C     0.66441   0.83442   0.50108   0.00000  Uiso   1.00
C685   C     0.83559   0.83225   0.49892   0.00000  Uiso   1.00
C686   C     0.91032   0.84983   0.55290   0.00000  Uiso   1.00
Cu687  Cu    0.75500   0.83913   0.56146   0.00000  Uiso   1.00
Cu688  Cu    0.74499   0.82754   0.43854   0.00000  Uiso   1.00
H689   H     0.89507   0.86493   0.59548   0.00000  Uiso   1.00
H690   H     0.78490   0.87399   0.35065   0.00000  Uiso   1.00
H691   H     0.90665   0.71733   0.39433   0.00000  Uiso   1.00
H692   H     0.88346   0.72256   0.65329   0.00000  Uiso   1.00
H693   H     0.80703   0.72244   0.35594   0.00000  Uiso   1.00
H694   H     0.83542   0.99732   0.36276   0.00000  Uiso   1.00
H695   H     0.83094   0.71579   0.43080   0.00000  Uiso   1.00
H696   H     0.61654   0.94411   0.34671   0.00000  Uiso   1.00
H697   H     0.59335   0.94934   0.60567   0.00000  Uiso   1.00
H698   H     0.66906   0.95087   0.56920   0.00000  Uiso   1.00
H699   H     0.66458   0.66934   0.63724   0.00000  Uiso   1.00
H700   H     0.60493   0.80174   0.40452   0.00000  Uiso   1.00
H701   H     0.69297   0.94422   0.64406   0.00000  Uiso   1.00
H702   H     0.95286   0.78300   0.34364   0.00000  Uiso   1.00
H703   H     0.54714   0.88367   0.65637   0.00000  Uiso   1.00
H704   H     0.53330   0.78407   0.34697   0.00000  Uiso   1.00
H705   H     0.96670   0.88260   0.65303   0.00000  Uiso   1.00
H706   H     0.74315   0.98652   0.42854   0.00000  Uiso   1.00
H707   H     0.75685   0.68015   0.57146   0.00000  Uiso   1.00
H708   H     0.71510   0.79267   0.64935   0.00000  Uiso   1.00
N709   N     0.73744   0.81881   0.34617   0.00000  Uiso   1.00
N710   N     0.76255   0.84786   0.65383   0.00000  Uiso   1.00
O711   O     0.75325   0.76204   0.53992   0.00000  Uiso   1.00
O712   O     0.62270   0.87701   0.61242   0.00000  Uiso   1.00
O713   O     0.74674   0.90462   0.46008   0.00000  Uiso   1.00
O714   O     0.74480   0.75226   0.43612   0.00000  Uiso   1.00
O715   O     0.75520   0.91441   0.56388   0.00000  Uiso   1.00
O716   O     0.68935   0.83821   0.55191   0.00000  Uiso   1.00
O717   O     0.81064   0.82845   0.44809   0.00000  Uiso   1.00
O718   O     0.68090   0.82843   0.44810   0.00000  Uiso   1.00
O719   O     0.81910   0.83824   0.55190   0.00000  Uiso   1.00
O720   O     0.87730   0.78966   0.38758   0.00000  Uiso   1.00
C721   C     0.24830   0.06652   0.81772   0.00000  Uiso   1.00
C722   C     0.08968   0.15017   0.78044   0.00000  Uiso   1.00
C723   C     0.38389   0.16409   0.83065   0.00000  Uiso   1.00
C724   C     0.11611   0.16925   0.83602   0.00000  Uiso   1.00
C725   C     0.40375   0.14340   0.77544   0.00000  Uiso   1.00
C726   C     0.09625   0.18993   0.89123   0.00000  Uiso   1.00
C727   C     0.45053   0.14624   0.77601   0.00000  Uiso   1.00
C728   C     0.04947   0.18710   0.89065   0.00000  Uiso   1.00
C729   C     0.47668   0.16576   0.83259   0.00000  Uiso   1.00
C730   C     0.02332   0.16758   0.83408   0.00000  Uiso   1.00
C731   C     0.45631   0.18367   0.88771   0.00000  Uiso   1.00
C732   C     0.25170   0.26681   0.84895   0.00000  Uiso   1.00
C733   C     0.04369   0.14966   0.77896   0.00000  Uiso   1.00
C734   C     0.47170   0.12996   0.72134   0.00000  Uiso   1.00
C735   C     0.02830   0.20337   0.94533   0.00000  Uiso   1.00
C736   C     0.37886   0.06715   0.70346   0.00000  Uiso   1.00
C737   C     0.33519   0.04077   0.71392   0.00000  Uiso   1.00
C738   C     0.12114   0.26618   0.96321   0.00000  Uiso   1.00
C739   C     0.16481   0.29256   0.95275   0.00000  Uiso   1.00
C740   C     0.01782   0.13102   0.72299   0.00000  Uiso   1.00
C741   C     0.48218   0.20232   0.94368   0.00000  Uiso   1.00
C742   C     0.24755   0.01052   0.80892   0.00000  Uiso   1.00
C743   C     0.25245   0.32282   0.85775   0.00000  Uiso   1.00
C744   C     0.16441   0.16775   0.83442   0.00000  Uiso   1.00
C745   C     0.33559   0.16558   0.83225   0.00000  Uiso   1.00
C746   C     0.41032   0.18316   0.88623   0.00000  Uiso   1.00
Cu747  Cu    0.25500   0.17246   0.89479   0.00000  Uiso   1.00
Cu748  Cu    0.24499   0.16087   0.77187   0.00000  Uiso   1.00
H749   H     0.39507   0.19826   0.92881   0.00000  Uiso   1.00
H750   H     0.28490   0.20733   0.68399   0.00000  Uiso   1.00
H751   H     0.40665   0.05066   0.72767   0.00000  Uiso   1.00
H752   H     0.38346   0.05589   0.98662   0.00000  Uiso   1.00
H753   H     0.30703   0.05578   0.68927   0.00000  Uiso   1.00
H754   H     0.33542   0.33066   0.69610   0.00000  Uiso   1.00
H755   H     0.33094   0.04913   0.76413   0.00000  Uiso   1.00
H756   H     0.11654   0.27744   0.68005   0.00000  Uiso   1.00
H757   H     0.09335   0.28267   0.93900   0.00000  Uiso   1.00
H758   H     0.16906   0.28421   0.90254   0.00000  Uiso   1.00
H759   H     0.16458   0.00268   0.97057   0.00000  Uiso   1.00
H760   H     0.10493   0.13507   0.73785   0.00000  Uiso   1.00
H761   H     0.19297   0.27756   0.97740   0.00000  Uiso   1.00
H762   H     0.45286   0.11633   0.67697   0.00000  Uiso   1.00
H763   H     0.04714   0.21700   0.98970   0.00000  Uiso   1.00
H764   H     0.03330   0.11740   0.68031   0.00000  Uiso   1.00
H765   H     0.46670   0.21593   0.98636   0.00000  Uiso   1.00
H766   H     0.24315   0.31985   0.76188   0.00000  Uiso   1.00
H767   H     0.25685   0.01348   0.90479   0.00000  Uiso   1.00
H768   H     0.21510   0.12601   0.98268   0.00000  Uiso   1.00
N769   N     0.23744   0.15214   0.67951   0.00000  Uiso   1.00
N770   N     0.26255   0.18119   0.98716   0.00000  Uiso   1.00
O771   O     0.25325   0.09538   0.87326   0.00000  Uiso   1.00
O772   O     0.12270   0.21034   0.94576   0.00000  Uiso   1.00
O773   O     0.24674   0.23796   0.79341   0.00000  Uiso   1.00
O774   O     0.24480   0.08559   0.76945   0.00000  Uiso   1.00
O775   O     0.25520   0.24774   0.89721   0.00000  Uiso   1.00
O776   O     0.18935   0.17155   0.88524   0.00000  Uiso   1.00
O777   O     0.31064   0.16179   0.78143   0.00000  Uiso   1.00
O778   O     0.18090   0.16176   0.78143   0.00000  Uiso   1.00
O779   O     0.31910   0.17157   0.88523   0.00000  Uiso   1.00
O780   O     0.37730   0.12299   0.72091   0.00000  Uiso   1.00
C781   C     0.74830   0.06652   0.81772   0.00000  Uiso   1.00
C782   C     0.58968   0.15017   0.78044   0.00000  Uiso   1.00
C783   C     0.88389   0.16409   0.83065   0.00000  Uiso   1.00
C784   C     0.61611   0.16925   0.83602   0.00000  Uiso   1.00
C785   C     0.90375   0.14340   0.77544   0.00000  Uiso   1.00
C786   C     0.59625   0.18993   0.89123   0.00000  Uiso   1.00
C787   C     0.95053   0.14624   0.77601   0.00000  Uiso   1.00
C788   C     0.54947   0.18710   0.89065   0.00000  Uiso   1.00
C789   C     0.97668   0.16576   0.83259   0.00000  Uiso   1.00
C790   C     0.52332   0.16758   0.83408   0.00000  Uiso   1.00
C791   C     0.95631   0.18367   0.88771   0.00000  Uiso   1.00
C792   C     0.75170   0.26681   0.84895   0.00000  Uiso   1.00
C793   C     0.54369   0.14966   0.77896   0.00000  Uiso   1.00
C794   C     0.97170   0.12996   0.72134   0.00000  Uiso   1.00
C795   C     0.52830   0.20337   0.94533   0.00000  Uiso   1.00
C796   C     0.87886   0.06715   0.70346   0.00000  Uiso   1.00
C797   C     0.83519   0.04077   0.71392   0.00000  Uiso   1.00
C798   C     0.62114   0.26618   0.96321   0.00000  Uiso   1.00
C799   C     0.66481   0.29256   0.95275   0.00000  Uiso   1.00
C800   C     0.51782   0.13102   0.72299   0.00000  Uiso   1.00
C801   C     0.98218   0.20232   0.94368   0.00000  Uiso   1.00
C802   C     0.74755   0.01052   0.80892   0.00000  Uiso   1.00
C803   C     0.75245   0.32282   0.85775   0.00000  Uiso   1.00
C804   C     0.66441   0.16775   0.83442   0.00000  Uiso   1.00
C805   C     0.83559   0.16558   0.83225   0.00000  Uiso   1.00
C806   C     0.91032   0.18316   0.88623   0.00000  Uiso   1.00
Cu807  Cu    0.75500   0.17246   0.89479   0.00000  Uiso   1.00
Cu808  Cu    0.74499   0.16087   0.77187   0.00000  Uiso   1.00
H809   H     0.89507   0.19826   0.92881   0.00000  Uiso   1.00
H810   H     0.78490   0.20733   0.68399   0.00000  Uiso   1.00
H811   H     0.90665   0.05066   0.72767   0.00000  Uiso   1.00
H812   H     0.88346   0.05589   0.98662   0.00000  Uiso   1.00
H813   H     0.80703   0.05578   0.68927   0.00000  Uiso   1.00
H814   H     0.83542   0.33066   0.69610   0.00000  Uiso   1.00
H815   H     0.83094   0.04913   0.76413   0.00000  Uiso   1.00
H816   H     0.61654   0.27744   0.68005   0.00000  Uiso   1.00
H817   H     0.59335   0.28267   0.93900   0.00000  Uiso   1.00
H818   H     0.66906   0.28421   0.90254   0.00000  Uiso   1.00
H819   H     0.66458   0.00268   0.97057   0.00000  Uiso   1.00
H820   H     0.60493   0.13507   0.73785   0.00000  Uiso   1.00
H821   H     0.69297   0.27756   0.97740   0.00000  Uiso   1.00
H822   H     0.95286   0.11633   0.67697   0.00000  Uiso   1.00
H823   H     0.54714   0.21700   0.98970   0.00000  Uiso   1.00
H824   H     0.53330   0.11740   0.68031   0.00000  Uiso   1.00
H825   H     0.96670   0.21593   0.98636   0.00000  Uiso   1.00
H826   H     0.74315   0.31985   0.76188   0.00000  Uiso   1.00
H827   H     0.75685   0.01348   0.90479   0.00000  Uiso   1.00
H828   H     0.71510   0.12601   0.98268   0.00000  Uiso   1.00
N829   N     0.73744   0.15214   0.67951   0.00000  Uiso   1.00
N830   N     0.76255   0.18119   0.98716   0.00000  Uiso   1.00
O831   O     0.75325   0.09538   0.87326   0.00000  Uiso   1.00
O832   O     0.62270   0.21034   0.94576   0.00000  Uiso   1.00
O833   O     0.74674   0.23796   0.79341   0.00000  Uiso   1.00
O834   O     0.74480   0.08559   0.76945   0.00000  Uiso   1.00
O835   O     0.75520   0.24774   0.89721   0.00000  Uiso   1.00
O836   O     0.68935   0.17155   0.88524   0.00000  Uiso   1.00
O837   O     0.81064   0.16179   0.78143   0.00000  Uiso   1.00
O838   O     0.68090   0.16176   0.78143   0.00000  Uiso   1.00
O839   O     0.81910   0.17157   0.88523   0.00000  Uiso   1.00
O840   O     0.87730   0.12299   0.72091   0.00000  Uiso   1.00
C841   C     0.24830   0.39985   0.81772   0.00000  Uiso   1.00
C842   C     0.08968   0.48351   0.78044   0.00000  Uiso   1.00
C843   C     0.38389   0.49742   0.83065   0.00000  Uiso   1.00
C844   C     0.11611   0.50258   0.83602   0.00000  Uiso   1.00
C845   C     0.40375   0.47673   0.77544   0.00000  Uiso   1.00
C846   C     0.09625   0.52327   0.89123   0.00000  Uiso   1.00
C847   C     0.45053   0.47957   0.77601   0.00000  Uiso   1.00
C848   C     0.04947   0.52043   0.89065   0.00000  Uiso   1.00
C849   C     0.47668   0.49909   0.83259   0.00000  Uiso   1.00
C850   C     0.02332   0.50091   0.83408   0.00000  Uiso   1.00
C851   C     0.45631   0.51701   0.88771   0.00000  Uiso   1.00
C852   C     0.25170   0.60015   0.84895   0.00000  Uiso   1.00
C853   C     0.04369   0.48299   0.77896   0.00000  Uiso   1.00
C854   C     0.47170   0.46329   0.72134   0.00000  Uiso   1.00
C855   C     0.02830   0.53671   0.94533   0.00000  Uiso   1.00
C856   C     0.37886   0.40048   0.70346   0.00000  Uiso   1.00
C857   C     0.33519   0.37411   0.71392   0.00000  Uiso   1.00
C858   C     0.12114   0.59952   0.96321   0.00000  Uiso   1.00
C859   C     0.16481   0.62589   0.95275   0.00000  Uiso   1.00
C860   C     0.01782   0.46435   0.72299   0.00000  Uiso   1.00
C861   C     0.48218   0.53565   0.94368   0.00000  Uiso   1.00
C862   C     0.24755   0.34385   0.80892   0.00000  Uiso   1.00
C863   C     0.25245   0.65615   0.85775   0.00000  Uiso   1.00
C864   C     0.16441   0.50109   0.83442   0.00000  Uiso   1.00
C865   C     0.33559   0.49891   0.83225   0.00000  Uiso   1.00
C866   C     0.41032   0.51649   0.88623   0.00000  Uiso   1.00
Cu867  Cu    0.25500   0.50579   0.89479   0.00000  Uiso   1.00
Cu868  Cu    0.24499   0.49421   0.77187   0.00000  Uiso   1.00
H869   H     0.39507   0.53159   0.92881   0.00000  Uiso   1.00
H870   H     0.28490   0.54066   0.68399   0.00000  Uiso   1.00
H871   H     0.40665   0.38400   0.72767   0.00000  Uiso   1.00
H872   H     0.38346   0.38923   0.98662   0.00000  Uiso   1.00
H873   H     0.30703   0.38911   0.68927   0.00000  Uiso   1.00
H874   H     0.33542   0.66399   0.69610   0.00000  Uiso   1.00
H875   H     0.33094   0.38246   0.76413   0.00000  Uiso   1.00
H876   H     0.11654   0.61077   0.68005   0.00000  Uiso   1.00
H877   H     0.09335   0.61600   0.93900   0.00000  Uiso   1.00
H878   H     0.16906   0.61754   0.90254   0.00000  Uiso   1.00
H879   H     0.16458   0.33601   0.97057   0.00000  Uiso   1.00
H880   H     0.10493   0.46841   0.73785   0.00000  Uiso   1.00
H881   H     0.19297   0.61089   0.97740   0.00000  Uiso   1.00
H882   H     0.45286   0.44966   0.67697   0.00000  Uiso   1.00
H883   H     0.04714   0.55034   0.98970   0.00000  Uiso   1.00
H884   H     0.03330   0.45074   0.68031   0.00000  Uiso   1.00
H885   H     0.46670   0.54926   0.98636   0.00000  Uiso   1.00
H886   H     0.24315   0.65318   0.76188   0.00000  Uiso   1.00
H887   H     0.25685   0.34682   0.90479   0.00000  Uiso   1.00
H888   H     0.21510   0.45934   0.98268   0.00000  Uiso   1.00
N889   N     0.23744   0.48547   0.67951   0.00000  Uiso   1.00
N890   N     0.26255   0.51453   0.98716   0.00000  Uiso   1.00
O891   O     0.25325   0.42871   0.87326   0.00000  Uiso   1.00
O892   O     0.12270   0.54368   0.94576   0.00000  Uiso   1.00
O893   O     0.24674   0.57129   0.79341   0.00000  Uiso   1.00
O894   O     0.24480   0.41892   0.76945   0.00000  Uiso   1.00
O895   O     0.25520   0.58108   0.89721   0.00000  Uiso   1.00
O896   O     0.18935   0.50488   0.88524   0.00000  Uiso   1.00
O897   O     0.31064   0.49512   0.78143   0.00000  Uiso   1.00
O898   O     0.18090   0.49510   0.78143   0.00000  Uiso   1.00
O899   O     0.31910   0.50490   0.88523   0.00000  Uiso   1.00
O900   O     0.37730   0.45632   0.72091   0.00000  Uiso   1.00
C901   C     0.74830   0.39985   0.81772   0.00000  Uiso   1.00
C902   C     0.58968   0.48351   0.78044   0.00000  Uiso   1.00
C903   C     0.88389   0.49742   0.83065   0.00000  Uiso   1.00
C904   C     0.61611   0.50258   0.83602   0.00000  Uiso   1.00
C905   C     0.90375   0.47673   0.77544   0.00000  Uiso   1.00
C906   C     0.59625   0.52327   0.89123   0.00000  Uiso   1.00
C907   C     0.95053   0.47957   0.77601   0.00000  Uiso   1.00
C908   C     0.54947   0.52043   0.89065   0.00000  Uiso   1.00
C909   C     0.97668   0.49909   0.83259   0.00000  Uiso   1.00
C910   C     0.52332   0.50091   0.83408   0.00000  Uiso   1.00
C911   C     0.95631   0.51701   0.88771   0.00000  Uiso   1.00
C912   C     0.75170   0.60015   0.84895   0.00000  Uiso   1.00
C913   C     0.54369   0.48299   0.77896   0.00000  Uiso   1.00
C914   C     0.97170   0.46329   0.72134   0.00000  Uiso   1.00
C915   C     0.52830   0.53671   0.94533   0.00000  Uiso   1.00
C916   C     0.87886   0.40048   0.70346   0.00000  Uiso   1.00
C917   C     0.83519   0.37411   0.71392   0.00000  Uiso   1.00
C918   C     0.62114   0.59952   0.96321   0.00000  Uiso   1.00
C919   C     0.66481   0.62589   0.95275   0.00000  Uiso   1.00
C920   C     0.51782   0.46435   0.72299   0.00000  Uiso   1.00
C921   C     0.98218   0.53565   0.94368   0.00000  Uiso   1.00
C922   C     0.74755   0.34385   0.80892   0.00000  Uiso   1.00
C923   C     0.75245   0.65615   0.85775   0.00000  Uiso   1.00
C924   C     0.66441   0.50109   0.83442   0.00000  Uiso   1.00
C925   C     0.83559   0.49891   0.83225   0.00000  Uiso   1.00
C926   C     0.91032   0.51649   0.88623   0.00000  Uiso   1.00
Cu927  Cu    0.75500   0.50579   0.89479   0.00000  Uiso   1.00
Cu928  Cu    0.74499   0.49421   0.77187   0.00000  Uiso   1.00
H929   H     0.89507   0.53159   0.92881   0.00000  Uiso   1.00
H930   H     0.78490   0.54066   0.68399   0.00000  Uiso   1.00
H931   H     0.90665   0.38400   0.72767   0.00000  Uiso   1.00
H932   H     0.88346   0.38923   0.98662   0.00000  Uiso   1.00
H933   H     0.80703   0.38911   0.68927   0.00000  Uiso   1.00
H934   H     0.83542   0.66399   0.69610   0.00000  Uiso   1.00
H935   H     0.83094   0.38246   0.76413   0.00000  Uiso   1.00
H936   H     0.61654   0.61077   0.68005   0.00000  Uiso   1.00
H937   H     0.59335   0.61600   0.93900   0.00000  Uiso   1.00
H938   H     0.66906   0.61754   0.90254   0.00000  Uiso   1.00
H939   H     0.66458   0.33601   0.97057   0.00000  Uiso   1.00
H940   H     0.60493   0.46841   0.73785   0.00000  Uiso   1.00
H941   H     0.69297   0.61089   0.97740   0.00000  Uiso   1.00
H942   H     0.95286   0.44966   0.67697   0.00000  Uiso   1.00
H943   H     0.54714   0.55034   0.98970   0.00000  Uiso   1.00
H944   H     0.53330   0.45074   0.68031   0.00000  Uiso   1.00
H945   H     0.96670   0.54926   0.98636   0.00000  Uiso   1.00
H946   H     0.74315   0.65318   0.76188   0.00000  Uiso   1.00
H947   H     0.75685   0.34682   0.90479   0.00000  Uiso   1.00
H948   H     0.71510   0.45934   0.98268   0.00000  Uiso   1.00
N949   N     0.73744   0.48547   0.67951   0.00000  Uiso   1.00
N950   N     0.76255   0.51453   0.98716   0.00000  Uiso   1.00
O951   O     0.75325   0.42871   0.87326   0.00000  Uiso   1.00
O952   O     0.62270   0.54368   0.94576   0.00000  Uiso   1.00
O953   O     0.74674   0.57129   0.79341   0.00000  Uiso   1.00
O954   O     0.74480   0.41892   0.76945   0.00000  Uiso   1.00
O955   O     0.75520   0.58108   0.89721   0.00000  Uiso   1.00
O956   O     0.68935   0.50488   0.88524   0.00000  Uiso   1.00
O957   O     0.81064   0.49512   0.78143   0.00000  Uiso   1.00
O958   O     0.68090   0.49510   0.78143   0.00000  Uiso   1.00
O959   O     0.81910   0.50490   0.88523   0.00000  Uiso   1.00
O960   O     0.87730   0.45632   0.72091   0.00000  Uiso   1.00
C961   C     0.24830   0.73319   0.81772   0.00000  Uiso   1.00
C962   C     0.08968   0.81684   0.78044   0.00000  Uiso   1.00
C963   C     0.38389   0.83075   0.83065   0.00000  Uiso   1.00
C964   C     0.11611   0.83591   0.83602   0.00000  Uiso   1.00
C965   C     0.40375   0.81007   0.77544   0.00000  Uiso   1.00
C966   C     0.09625   0.85660   0.89123   0.00000  Uiso   1.00
C967   C     0.45053   0.81290   0.77601   0.00000  Uiso   1.00
C968   C     0.04947   0.85376   0.89065   0.00000  Uiso   1.00
C969   C     0.47668   0.83242   0.83259   0.00000  Uiso   1.00
C970   C     0.02332   0.83424   0.83408   0.00000  Uiso   1.00
C971   C     0.45631   0.85034   0.88771   0.00000  Uiso   1.00
C972   C     0.25170   0.93348   0.84895   0.00000  Uiso   1.00
C973   C     0.04369   0.81633   0.77896   0.00000  Uiso   1.00
C974   C     0.47170   0.79663   0.72134   0.00000  Uiso   1.00
C975   C     0.02830   0.87004   0.94533   0.00000  Uiso   1.00
C976   C     0.37886   0.73382   0.70346   0.00000  Uiso   1.00
C977   C     0.33519   0.70744   0.71392   0.00000  Uiso   1.00
C978   C     0.12114   0.93285   0.96321   0.00000  Uiso   1.00
C979   C     0.16481   0.95923   0.95275   0.00000  Uiso   1.00
C980   C     0.01782   0.79768   0.72299   0.00000  Uiso   1.00
C981   C     0.48218   0.86898   0.94368   0.00000  Uiso   1.00
C982   C     0.24755   0.67718   0.80892   0.00000  Uiso   1.00
C983   C     0.25245   0.98948   0.85775   0.00000  Uiso   1.00
C984   C     0.16441   0.83442   0.83442   0.00000  Uiso   1.00
C985   C     0.33559   0.83225   0.83225   0.00000  Uiso   1.00
C986   C     0.41032   0.84983   0.88623   0.00000  Uiso   1.00
Cu987  Cu    0.25500   0.83913   0.89479   0.00000  Uiso   1.00
Cu988  Cu    0.24499   0.82754   0.77187   0.00000  Uiso   1.00
H989   H     0.39507   0.86493   0.92881   0.00000  Uiso   1.00
H990   H     0.28490   0.87399   0.68399   0.00000  Uiso   1.00
H991   H     0.40665   0.71733   0.72767   0.00000  Uiso   1.00
H992   H     0.38346   0.72256   0.98662   0.00000  Uiso   1.00
H993   H     0.30703   0.72244   0.68927   0.00000  Uiso   1.00
H994   H     0.33542   0.99732   0.69610   0.00000  Uiso   1.00
H995   H     0.33094   0.71579   0.76413   0.00000  Uiso   1.00
H996   H     0.11654   0.94411   0.68005   0.00000  Uiso   1.00
H997   H     0.09335   0.94934   0.93900   0.00000  Uiso   1.00
H998   H     0.16906   0.95087   0.90254   0.00000  Uiso   1.00
H999   H     0.16458   0.66934   0.97057   0.00000  Uiso   1.00
H1000  H     0.10493   0.80174   0.73785   0.00000  Uiso   1.00
H1001  H     0.19297   0.94422   0.97740   0.00000  Uiso   1.00
H1002  H     0.45286   0.78300   0.67697   0.00000  Uiso   1.00
H1003  H     0.04714   0.88367   0.98970   0.00000  Uiso   1.00
H1004  H     0.03330   0.78407   0.68031   0.00000  Uiso   1.00
H1005  H     0.46670   0.88260   0.98636   0.00000  Uiso   1.00
H1006  H     0.24315   0.98652   0.76188   0.00000  Uiso   1.00
H1007  H     0.25685   0.68015   0.90479   0.00000  Uiso   1.00
H1008  H     0.21510   0.79267   0.98268   0.00000  Uiso   1.00
N1009  N     0.23744   0.81881   0.67951   0.00000  Uiso   1.00
N1010  N     0.26255   0.84786   0.98716   0.00000  Uiso   1.00
O1011  O     0.25325   0.76204   0.87326   0.00000  Uiso   1.00
O1012  O     0.12270   0.87701   0.94576   0.00000  Uiso   1.00
O1013  O     0.24674   0.90462   0.79341   0.00000  Uiso   1.00
O1014  O     0.24480   0.75226   0.76945   0.00000  Uiso   1.00
O1015  O     0.25520   0.91441   0.89721   0.00000  Uiso   1.00
O1016  O     0.18935   0.83821   0.88524   0.00000  Uiso   1.00
O1017  O     0.31064   0.82845   0.78143   0.00000  Uiso   1.00
O1018  O     0.18090   0.82843   0.78143   0.00000  Uiso   1.00
O1019  O     0.31910   0.83824   0.88523   0.00000  Uiso   1.00
O1020  O     0.37730   0.78966   0.72091   0.00000  Uiso   1.00
C1021  C     0.74830   0.73319   0.81772   0.00000  Uiso   1.00
C1022  C     0.58968   0.81684   0.78044   0.00000  Uiso   1.00
C1023  C     0.88389   0.83075   0.83065   0.00000  Uiso   1.00
C1024  C     0.61611   0.83591   0.83602   0.00000  Uiso   1.00
C1025  C     0.90375   0.81007   0.77544   0.00000  Uiso   1.00
C1026  C     0.59625   0.85660   0.89123   0.00000  Uiso   1.00
C1027  C     0.95053   0.81290   0.77601   0.00000  Uiso   1.00
C1028  C     0.54947   0.85376   0.89065   0.00000  Uiso   1.00
C1029  C     0.97668   0.83242   0.83259   0.00000  Uiso   1.00
C1030  C     0.52332   0.83424   0.83408   0.00000  Uiso   1.00
C1031  C     0.95631   0.85034   0.88771   0.00000  Uiso   1.00
C1032  C     0.75170   0.93348   0.84895   0.00000  Uiso   1.00
C1033  C     0.54369   0.81633   0.77896   0.00000  Uiso   1.00
C1034  C     0.97170   0.79663   0.72134   0.00000  Uiso   1.00
C1035  C     0.52830   0.87004   0.94533   0.00000  Uiso   1.00
C1036  C     0.87886   0.73382   0.70346   0.00000  Uiso   1.00
C1037  C     0.83519   0.70744   0.71392   0.00000  Uiso   1.00
C1038  C     0.62114   0.93285   0.96321   0.00000  Uiso   1.00
C1039  C     0.66481   0.95923   0.95275   0.00000  Uiso   1.00
C1040  C     0.51782   0.79768   0.72299   0.00000  Uiso   1.00
C1041  C     0.98218   0.86898   0.94368   0.00000  Uiso   1.00
C1042  C     0.74755   0.67718   0.80892   0.00000  Uiso   1.00
C1043  C     0.75245   0.98948   0.85775   0.00000  Uiso   1.00
C1044  C     0.66441   0.83442   0.83442   0.00000  Uiso   1.00
C1045  C     0.83559   0.83225   0.83225   0.00000  Uiso   1.00
C1046  C     0.91032   0.84983   0.88623   0.00000  Uiso   1.00
Cu1047 Cu    0.75500   0.83913   0.89479   0.00000  Uiso   1.00
Cu1048 Cu    0.74499   0.82754   0.77187   0.00000  Uiso   1.00
H1049  H     0.89507   0.86493   0.92881   0.00000  Uiso   1.00
H1050  H     0.78490   0.87399   0.68399   0.00000  Uiso   1.00
H1051  H     0.90665   0.71733   0.72767   0.00000  Uiso   1.00
H1052  H     0.88346   0.72256   0.98662   0.00000  Uiso   1.00
H1053  H     0.80703   0.72244   0.68927   0.00000  Uiso   1.00
H1054  H     0.83542   0.99732   0.69610   0.00000  Uiso   1.00
H1055  H     0.83094   0.71579   0.76413   0.00000  Uiso   1.00
H1056  H     0.61654   0.94411   0.68005   0.00000  Uiso   1.00
H1057  H     0.59335   0.94934   0.93900   0.00000  Uiso   1.00
H1058  H     0.66906   0.95087   0.90254   0.00000  Uiso   1.00
H1059  H     0.66458   0.66934   0.97057   0.00000  Uiso   1.00
H1060  H     0.60493   0.80174   0.73785   0.00000  Uiso   1.00
H1061  H     0.69297   0.94422   0.97740   0.00000  Uiso   1.00
H1062  H     0.95286   0.78300   0.67697   0.00000  Uiso   1.00
H1063  H     0.54714   0.88367   0.98970   0.00000  Uiso   1.00
H1064  H     0.53330   0.78407   0.68031   0.00000  Uiso   1.00
H1065  H     0.96670   0.88260   0.98636   0.00000  Uiso   1.00
H1066  H     0.74315   0.98652   0.76188   0.00000  Uiso   1.00
H1067  H     0.75685   0.68015   0.90479   0.00000  Uiso   1.00
H1068  H     0.71510   0.79267   0.98268   0.00000  Uiso   1.00
N1069  N     0.73744   0.81881   0.67951   0.00000  Uiso   1.00
N1070  N     0.76255   0.84786   0.98716   0.00000  Uiso   1.00
O1071  O     0.75325   0.76204   0.87326   0.00000  Uiso   1.00
O1072  O     0.62270   0.87701   0.94576   0.00000  Uiso   1.00
O1073  O     0.74674   0.90462   0.79341   0.00000  Uiso   1.00
O1074  O     0.74480   0.75226   0.76945   0.00000  Uiso   1.00
O1075  O     0.75520   0.91441   0.89721   0.00000  Uiso   1.00
O1076  O     0.68935   0.83821   0.88524   0.00000  Uiso   1.00
O1077  O     0.81064   0.82845   0.78143   0.00000  Uiso   1.00
O1078  O     0.68090   0.82843   0.78143   0.00000  Uiso   1.00
O1079  O     0.81910   0.83824   0.88523   0.00000  Uiso   1.00
O1080  O     0.87730   0.78966   0.72091   0.00000  Uiso   1.00
loop_
_geom_bond_atom_site_label_1
_geom_bond_atom_site_label_2
_geom_bond_distance
_geom_bond_site_symmetry_2
_ccdc_geom_bond_type
C1     O51     1.289   .     A
C1     O54     1.283   .     A
C1     C22     1.425   .     S
C2     C4      1.401   .     A
C2     H40     1.085   .     S
C2     C13     1.386   .     A
C3     C26     1.401   .     A
C3     C25     1.463   .     S
C3     C5      1.413   .     A
C4     C24     1.463   .     S
C4     C6      1.413   .     A
C5     O60     1.389   .     S
C5     C7      1.410   .     A
C6     O52     1.389   .     S
C6     C8      1.410   .     A
C7     C9      1.416   .     A
C7     C14     1.406   .     A
C8     C15     1.406   .     A
C8     C10     1.416   .     A
C9     C11     1.407   .     A
C9     C70     1.405   .     S
C10    C13     1.407   .     A
C10    C69     1.405   1_455 S
C11    C26     1.386   .     A
C11    C21     1.398   .     A
C12    O53     1.289   .     A
C12    C23     1.425   .     S
C12    O55     1.283   .     A
C13    C20     1.398   .     A
C14    H42     1.082   .     S
C14    C80     1.390   .     S
C15    H43     1.082   .     S
C15    C81     1.390   1_455 S
C16    H31     1.117   .     S
C16    O60     1.420   .     S
C16    C17     1.519   .     S
C16    H752    1.111   1_554 S
C17    H33     1.110   .     S
C17    H35     1.109   .     S
C17    H274    1.111   1_545 S
C18    O52     1.420   .     S
C18    H37     1.117   .     S
C18    C19     1.519   .     S
C18    H396    1.111   .     S
C19    H38     1.109   .     S
C19    H41     1.111   .     S
C19    H159    1.111   .     S
C20    H44     1.084   .     S
C20    C74     1.390   1_455 S
C21    H45     1.084   .     S
C21    C75     1.390   .     S
C22    C263    1.327   1_545 S
C22    H286    1.088   1_545 S
C23    C142    1.327   .     S
C23    H167    1.088   .     S
C24    O58     1.295   .     A
C24    O56     1.296   .     A
C25    O59     1.295   .     A
C25    O57     1.296   .     A
C26    H29     1.085   .     S
Cu27   N50     2.015   .     S
Cu27   O59     1.963   .     S
Cu27   O51     1.951   .     S
Cu27   O55     1.947   .     S
Cu27   Cu28    2.681   .     S
Cu27   O56     1.977   .     S
Cu28   O53     1.951   .     S
Cu28   O58     1.963   .     S
Cu28   N49     2.015   .     S
Cu28   O57     1.977   .     S
Cu28   O54     1.947   .     S
H30    N770    1.029   1_554 S
H32    C376    1.111   .     S
H34    C137    1.111   .     S
H36    C738    1.111   1_554 S
H39    C259    1.111   1_545 S
H46    C142    1.088   .     S
H47    C263    1.088   1_545 S
H48    N409    1.029   .     S
N49    H768    1.029   1_554 S
N49    N770    1.299   1_554 S
N50    N409    1.299   .     S
N50    H390    1.029   .     S
C61    O111    1.289   .     A
C61    O114    1.283   .     A
C61    C82     1.425   .     S
C62    C64     1.401   .     A
C62    H100    1.085   .     S
C62    C73     1.386   .     A
C63    C86     1.401   .     A
C63    C85     1.463   .     S
C63    C65     1.413   .     A
C64    C84     1.463   .     S
C64    C66     1.413   .     A
C65    O120    1.389   .     S
C65    C67     1.410   .     A
C66    O112    1.389   .     S
C66    C68     1.410   .     A
C67    C69     1.416   .     A
C67    C74     1.406   .     A
C68    C75     1.406   .     A
C68    C70     1.416   .     A
C69    C71     1.407   .     A
C69    C10     1.405   1_655 S
C70    C73     1.407   .     A
C71    C86     1.386   .     A
C71    C81     1.398   .     A
C72    O113    1.289   .     A
C72    C83     1.425   .     S
C72    O115    1.283   .     A
C73    C80     1.398   .     A
C74    H102    1.082   .     S
C74    C20     1.390   1_655 S
C75    H103    1.082   .     S
C76    H91     1.117   .     S
C76    O120    1.420   .     S
C76    C77     1.519   .     S
C76    H812    1.111   1_554 S
C77    H93     1.110   .     S
C77    H95     1.109   .     S
C77    H334    1.111   1_545 S
C78    O112    1.420   .     S
C78    H97     1.117   .     S
C78    C79     1.519   .     S
C78    H456    1.111   .     S
C79    H98     1.109   .     S
C79    H101    1.111   .     S
C79    H219    1.111   .     S
C80    H104    1.084   .     S
C81    H105    1.084   .     S
C81    C15     1.390   1_655 S
C82    C323    1.327   1_545 S
C82    H346    1.088   1_545 S
C83    C202    1.327   .     S
C83    H227    1.088   .     S
C84    O118    1.295   .     A
C84    O116    1.296   .     A
C85    O119    1.295   .     A
C85    O117    1.296   .     A
C86    H89     1.085   .     S
Cu87   N110    2.015   .     S
Cu87   O119    1.963   .     S
Cu87   O111    1.951   .     S
Cu87   O115    1.947   .     S
Cu87   Cu88    2.681   .     S
Cu87   O116    1.977   .     S
Cu88   O113    1.951   .     S
Cu88   O118    1.963   .     S
Cu88   N109    2.015   .     S
Cu88   O117    1.977   .     S
Cu88   O114    1.947   .     S
H90    N830    1.029   1_554 S
H92    C436    1.111   .     S
H94    C197    1.111   .     S
H96    C798    1.111   1_554 S
H99    C319    1.111   1_545 S
H106   C202    1.088   .     S
H107   C323    1.088   1_545 S
H108   N469    1.029   .     S
N109   H828    1.029   1_554 S
N109   N830    1.299   1_554 S
N110   N469    1.299   .     S
N110   H450    1.029   .     S
C121   O171    1.289   .     A
C121   O174    1.283   .     A
C121   C142    1.425   .     S
C122   C124    1.401   .     A
C122   H160    1.085   .     S
C122   C133    1.386   .     A
C123   C146    1.401   .     A
C123   C145    1.463   .     S
C123   C125    1.413   .     A
C124   C144    1.463   .     S
C124   C126    1.413   .     A
C125   O180    1.389   .     S
C125   C127    1.410   .     A
C126   O172    1.389   .     S
C126   C128    1.410   .     A
C127   C129    1.416   .     A
C127   C134    1.406   .     A
C128   C135    1.406   .     A
C128   C130    1.416   .     A
C129   C131    1.407   .     A
C129   C190    1.405   .     S
C130   C133    1.407   .     A
C130   C189    1.405   1_455 S
C131   C146    1.386   .     A
C131   C141    1.398   .     A
C132   O173    1.289   .     A
C132   C143    1.425   .     S
C132   O175    1.283   .     A
C133   C140    1.398   .     A
C134   H162    1.082   .     S
C134   C200    1.390   .     S
C135   H163    1.082   .     S
C135   C201    1.390   1_455 S
C136   H151    1.117   .     S
C136   O180    1.420   .     S
C136   C137    1.519   .     S
C136   H872    1.111   1_554 S
C137   H153    1.110   .     S
C137   H155    1.109   .     S
C138   O172    1.420   .     S
C138   H157    1.117   .     S
C138   C139    1.519   .     S
C138   H516    1.111   .     S
C139   H158    1.109   .     S
C139   H161    1.111   .     S
C139   H279    1.111   .     S
C140   H164    1.084   .     S
C140   C194    1.390   1_455 S
C141   H165    1.084   .     S
C141   C195    1.390   .     S
C143   C262    1.327   .     S
C143   H287    1.088   .     S
C144   O178    1.295   .     A
C144   O176    1.296   .     A
C145   O179    1.295   .     A
C145   O177    1.296   .     A
C146   H149    1.085   .     S
Cu147  N170    2.015   .     S
Cu147  O179    1.963   .     S
Cu147  O171    1.951   .     S
Cu147  O175    1.947   .     S
Cu147  Cu148   2.681   .     S
Cu147  O176    1.977   .     S
Cu148  O173    1.951   .     S
Cu148  O178    1.963   .     S
Cu148  N169    2.015   .     S
Cu148  O177    1.977   .     S
Cu148  O174    1.947   .     S
H150   N890    1.029   1_554 S
H152   C496    1.111   .     S
H154   C257    1.111   .     S
H156   C858    1.111   1_554 S
H166   C262    1.088   .     S
H168   N529    1.029   .     S
N169   H888    1.029   1_554 S
N169   N890    1.299   1_554 S
N170   N529    1.299   .     S
N170   H510    1.029   .     S
C181   O231    1.289   .     A
C181   O234    1.283   .     A
C181   C202    1.425   .     S
C182   C184    1.401   .     A
C182   H220    1.085   .     S
C182   C193    1.386   .     A
C183   C206    1.401   .     A
C183   C205    1.463   .     S
C183   C185    1.413   .     A
C184   C204    1.463   .     S
C184   C186    1.413   .     A
C185   O240    1.389   .     S
C185   C187    1.410   .     A
C186   O232    1.389   .     S
C186   C188    1.410   .     A
C187   C189    1.416   .     A
C187   C194    1.406   .     A
C188   C195    1.406   .     A
C188   C190    1.416   .     A
C189   C191    1.407   .     A
C189   C130    1.405   1_655 S
C190   C193    1.407   .     A
C191   C206    1.386   .     A
C191   C201    1.398   .     A
C192   O233    1.289   .     A
C192   C203    1.425   .     S
C192   O235    1.283   .     A
C193   C200    1.398   .     A
C194   H222    1.082   .     S
C194   C140    1.390   1_655 S
C195   H223    1.082   .     S
C196   H211    1.117   .     S
C196   O240    1.420   .     S
C196   C197    1.519   .     S
C196   H932    1.111   1_554 S
C197   H213    1.110   .     S
C197   H215    1.109   .     S
C198   O232    1.420   .     S
C198   H217    1.117   .     S
C198   C199    1.519   .     S
C198   H576    1.111   .     S
C199   H218    1.109   .     S
C199   H221    1.111   .     S
C199   H339    1.111   .     S
C200   H224    1.084   .     S
C201   H225    1.084   .     S
C201   C135    1.390   1_655 S
C203   C322    1.327   .     S
C203   H347    1.088   .     S
C204   O238    1.295   .     A
C204   O236    1.296   .     A
C205   O239    1.295   .     A
C205   O237    1.296   .     A
C206   H209    1.085   .     S
Cu207  N230    2.015   .     S
Cu207  O239    1.963   .     S
Cu207  O231    1.951   .     S
Cu207  O235    1.947   .     S
Cu207  Cu208   2.681   .     S
Cu207  O236    1.977   .     S
Cu208  O233    1.951   .     S
Cu208  O238    1.963   .     S
Cu208  N229    2.015   .     S
Cu208  O237    1.977   .     S
Cu208  O234    1.947   .     S
H210   N950    1.029   1_554 S
H212   C556    1.111   .     S
H214   C317    1.111   .     S
H216   C918    1.111   1_554 S
H226   C322    1.088   .     S
H228   N589    1.029   .     S
N229   H948    1.029   1_554 S
N229   N950    1.299   1_554 S
N230   N589    1.299   .     S
N230   H570    1.029   .     S
C241   O291    1.289   .     A
C241   O294    1.283   .     A
C241   C262    1.425   .     S
C242   C244    1.401   .     A
C242   H280    1.085   .     S
C242   C253    1.386   .     A
C243   C266    1.401   .     A
C243   C265    1.463   .     S
C243   C245    1.413   .     A
C244   C264    1.463   .     S
C244   C246    1.413   .     A
C245   O300    1.389   .     S
C245   C247    1.410   .     A
C246   O292    1.389   .     S
C246   C248    1.410   .     A
C247   C249    1.416   .     A
C247   C254    1.406   .     A
C248   C255    1.406   .     A
C248   C250    1.416   .     A
C249   C251    1.407   .     A
C249   C310    1.405   .     S
C250   C253    1.407   .     A
C250   C309    1.405   1_455 S
C251   C266    1.386   .     A
C251   C261    1.398   .     A
C252   O293    1.289   .     A
C252   C263    1.425   .     S
C252   O295    1.283   .     A
C253   C260    1.398   .     A
C254   H282    1.082   .     S
C254   C320    1.390   .     S
C255   H283    1.082   .     S
C255   C321    1.390   1_455 S
C256   H271    1.117   .     S
C256   O300    1.420   .     S
C256   C257    1.519   .     S
C256   H992    1.111   1_554 S
C257   H273    1.110   .     S
C257   H275    1.109   .     S
C258   O292    1.420   .     S
C258   H277    1.117   .     S
C258   C259    1.519   .     S
C258   H636    1.111   .     S
C259   H278    1.109   .     S
C259   H281    1.111   .     S
C259   H39     1.111   1_565 S
C260   H284    1.084   .     S
C260   C314    1.390   1_455 S
C261   H285    1.084   .     S
C261   C315    1.390   .     S
C263   C22     1.327   1_565 S
C263   H47     1.088   1_565 S
C264   O298    1.295   .     A
C264   O296    1.296   .     A
C265   O299    1.295   .     A
C265   O297    1.296   .     A
C266   H269    1.085   .     S
Cu267  N290    2.015   .     S
Cu267  O299    1.963   .     S
Cu267  O291    1.951   .     S
Cu267  O295    1.947   .     S
Cu267  Cu268   2.681   .     S
Cu267  O296    1.977   .     S
Cu268  O293    1.951   .     S
Cu268  O298    1.963   .     S
Cu268  N289    2.015   .     S
Cu268  O297    1.977   .     S
Cu268  O294    1.947   .     S
H270   N1010   1.029   1_554 S
H272   C616    1.111   .     S
H274   C17     1.111   1_565 S
H276   C978    1.111   1_554 S
H286   C22     1.088   1_565 S
H288   N649    1.029   .     S
N289   H1008   1.029   1_554 S
N289   N1010   1.299   1_554 S
N290   N649    1.299   .     S
N290   H630    1.029   .     S
C301   O351    1.289   .     A
C301   O354    1.283   .     A
C301   C322    1.425   .     S
C302   C304    1.401   .     A
C302   H340    1.085   .     S
C302   C313    1.386   .     A
C303   C326    1.401   .     A
C303   C325    1.463   .     S
C303   C305    1.413   .     A
C304   C324    1.463   .     S
C304   C306    1.413   .     A
C305   O360    1.389   .     S
C305   C307    1.410   .     A
C306   O352    1.389   .     S
C306   C308    1.410   .     A
C307   C309    1.416   .     A
C307   C314    1.406   .     A
C308   C315    1.406   .     A
C308   C310    1.416   .     A
C309   C311    1.407   .     A
C309   C250    1.405   1_655 S
C310   C313    1.407   .     A
C311   C326    1.386   .     A
C311   C321    1.398   .     A
C312   O353    1.289   .     A
C312   C323    1.425   .     S
C312   O355    1.283   .     A
C313   C320    1.398   .     A
C314   H342    1.082   .     S
C314   C260    1.390   1_655 S
C315   H343    1.082   .     S
C316   H331    1.117   .     S
C316   O360    1.420   .     S
C316   C317    1.519   .     S
C316   H1052   1.111   1_554 S
C317   H333    1.110   .     S
C317   H335    1.109   .     S
C318   O352    1.420   .     S
C318   H337    1.117   .     S
C318   C319    1.519   .     S
C318   H696    1.111   .     S
C319   H338    1.109   .     S
C319   H341    1.111   .     S
C319   H99     1.111   1_565 S
C320   H344    1.084   .     S
C321   H345    1.084   .     S
C321   C255    1.390   1_655 S
C323   C82     1.327   1_565 S
C323   H107    1.088   1_565 S
C324   O358    1.295   .     A
C324   O356    1.296   .     A
C325   O359    1.295   .     A
C325   O357    1.296   .     A
C326   H329    1.085   .     S
Cu327  N350    2.015   .     S
Cu327  O359    1.963   .     S
Cu327  O351    1.951   .     S
Cu327  O355    1.947   .     S
Cu327  Cu328   2.681   .     S
Cu327  O356    1.977   .     S
Cu328  O353    1.951   .     S
Cu328  O358    1.963   .     S
Cu328  N349    2.015   .     S
Cu328  O357    1.977   .     S
Cu328  O354    1.947   .     S
H330   N1070   1.029   1_554 S
H332   C676    1.111   .     S
H334   C77     1.111   1_565 S
H336   C1038   1.111   1_554 S
H346   C82     1.088   1_565 S
H348   N709    1.029   .     S
N349   H1068   1.029   1_554 S
N349   N1070   1.299   1_554 S
N350   N709    1.299   .     S
N350   H690    1.029   .     S
C361   O411    1.289   .     A
C361   O414    1.283   .     A
C361   C382    1.425   .     S
C362   C364    1.401   .     A
C362   H400    1.085   .     S
C362   C373    1.386   .     A
C363   C386    1.401   .     A
C363   C385    1.463   .     S
C363   C365    1.413   .     A
C364   C384    1.463   .     S
C364   C366    1.413   .     A
C365   O420    1.389   .     S
C365   C367    1.410   .     A
C366   O412    1.389   .     S
C366   C368    1.410   .     A
C367   C369    1.416   .     A
C367   C374    1.406   .     A
C368   C375    1.406   .     A
C368   C370    1.416   .     A
C369   C371    1.407   .     A
C369   C430    1.405   .     S
C370   C373    1.407   .     A
C370   C429    1.405   1_455 S
C371   C386    1.386   .     A
C371   C381    1.398   .     A
C372   O413    1.289   .     A
C372   C383    1.425   .     S
C372   O415    1.283   .     A
C373   C380    1.398   .     A
C374   H402    1.082   .     S
C374   C440    1.390   .     S
C375   H403    1.082   .     S
C375   C441    1.390   1_455 S
C376   H391    1.117   .     S
C376   O420    1.420   .     S
C376   C377    1.519   .     S
C377   H393    1.110   .     S
C377   H395    1.109   .     S
C377   H634    1.111   1_545 S
C378   O412    1.420   .     S
C378   H397    1.117   .     S
C378   C379    1.519   .     S
C378   H756    1.111   .     S
C379   H398    1.109   .     S
C379   H401    1.111   .     S
C379   H519    1.111   .     S
C380   H404    1.084   .     S
C380   C434    1.390   1_455 S
C381   H405    1.084   .     S
C381   C435    1.390   .     S
C382   C623    1.327   1_545 S
C382   H646    1.088   1_545 S
C383   C502    1.327   .     S
C383   H527    1.088   .     S
C384   O418    1.295   .     A
C384   O416    1.296   .     A
C385   O419    1.295   .     A
C385   O417    1.296   .     A
C386   H389    1.085   .     S
Cu387  N410    2.015   .     S
Cu387  O419    1.963   .     S
Cu387  O411    1.951   .     S
Cu387  O415    1.947   .     S
Cu387  Cu388   2.681   .     S
Cu387  O416    1.977   .     S
Cu388  O413    1.951   .     S
Cu388  O418    1.963   .     S
Cu388  N409    2.015   .     S
Cu388  O417    1.977   .     S
Cu388  O414    1.947   .     S
H392   C736    1.111   .     S
H394   C497    1.111   .     S
H399   C619    1.111   1_545 S
H406   C502    1.088   .     S
H407   C623    1.088   1_545 S
H408   N769    1.029   .     S
N410   N769    1.299   .     S
N410   H750    1.029   .     S
C421   O471    1.289   .     A
C421   O474    1.283   .     A
C421   C442    1.425   .     S
C422   C424    1.401   .     A
C422   H460    1.085   .     S
C422   C433    1.386   .     A
C423   C446    1.401   .     A
C423   C445    1.463   .     S
C423   C425    1.413   .     A
C424   C444    1.463   .     S
C424   C426    1.413   .     A
C425   O480    1.389   .     S
C425   C427    1.410   .     A
C426   O472    1.389   .     S
C426   C428    1.410   .     A
C427   C429    1.416   .     A
C427   C434    1.406   .     A
C428   C435    1.406   .     A
C428   C430    1.416   .     A
C429   C431    1.407   .     A
C429   C370    1.405   1_655 S
C430   C433    1.407   .     A
C431   C446    1.386   .     A
C431   C441    1.398   .     A
C432   O473    1.289   .     A
C432   C443    1.425   .     S
C432   O475    1.283   .     A
C433   C440    1.398   .     A
C434   H462    1.082   .     S
C434   C380    1.390   1_655 S
C435   H463    1.082   .     S
C436   H451    1.117   .     S
C436   O480    1.420   .     S
C436   C437    1.519   .     S
C437   H453    1.110   .     S
C437   H455    1.109   .     S
C437   H694    1.111   1_545 S
C438   O472    1.420   .     S
C438   H457    1.117   .     S
C438   C439    1.519   .     S
C438   H816    1.111   .     S
C439   H458    1.109   .     S
C439   H461    1.111   .     S
C439   H579    1.111   .     S
C440   H464    1.084   .     S
C441   H465    1.084   .     S
C441   C375    1.390   1_655 S
C442   C683    1.327   1_545 S
C442   H706    1.088   1_545 S
C443   C562    1.327   .     S
C443   H587    1.088   .     S
C444   O478    1.295   .     A
C444   O476    1.296   .     A
C445   O479    1.295   .     A
C445   O477    1.296   .     A
C446   H449    1.085   .     S
Cu447  N470    2.015   .     S
Cu447  O479    1.963   .     S
Cu447  O471    1.951   .     S
Cu447  O475    1.947   .     S
Cu447  Cu448   2.681   .     S
Cu447  O476    1.977   .     S
Cu448  O473    1.951   .     S
Cu448  O478    1.963   .     S
Cu448  N469    2.015   .     S
Cu448  O477    1.977   .     S
Cu448  O474    1.947   .     S
H452   C796    1.111   .     S
H454   C557    1.111   .     S
H459   C679    1.111   1_545 S
H466   C562    1.088   .     S
H467   C683    1.088   1_545 S
H468   N829    1.029   .     S
N470   N829    1.299   .     S
N470   H810    1.029   .     S
C481   O531    1.289   .     A
C481   O534    1.283   .     A
C481   C502    1.425   .     S
C482   C484    1.401   .     A
C482   H520    1.085   .     S
C482   C493    1.386   .     A
C483   C506    1.401   .     A
C483   C505    1.463   .     S
C483   C485    1.413   .     A
C484   C504    1.463   .     S
C484   C486    1.413   .     A
C485   O540    1.389   .     S
C485   C487    1.410   .     A
C486   O532    1.389   .     S
C486   C488    1.410   .     A
C487   C489    1.416   .     A
C487   C494    1.406   .     A
C488   C495    1.406   .     A
C488   C490    1.416   .     A
C489   C491    1.407   .     A
C489   C550    1.405   .     S
C490   C493    1.407   .     A
C490   C549    1.405   1_455 S
C491   C506    1.386   .     A
C491   C501    1.398   .     A
C492   O533    1.289   .     A
C492   C503    1.425   .     S
C492   O535    1.283   .     A
C493   C500    1.398   .     A
C494   H522    1.082   .     S
C494   C560    1.390   .     S
C495   H523    1.082   .     S
C495   C561    1.390   1_455 S
C496   H511    1.117   .     S
C496   O540    1.420   .     S
C496   C497    1.519   .     S
C497   H513    1.110   .     S
C497   H515    1.109   .     S
C498   O532    1.420   .     S
C498   H517    1.117   .     S
C498   C499    1.519   .     S
C498   H876    1.111   .     S
C499   H518    1.109   .     S
C499   H521    1.111   .     S
C499   H639    1.111   .     S
C500   H524    1.084   .     S
C500   C554    1.390   1_455 S
C501   H525    1.084   .     S
C501   C555    1.390   .     S
C503   C622    1.327   .     S
C503   H647    1.088   .     S
C504   O538    1.295   .     A
C504   O536    1.296   .     A
C505   O539    1.295   .     A
C505   O537    1.296   .     A
C506   H509    1.085   .     S
Cu507  N530    2.015   .     S
Cu507  O539    1.963   .     S
Cu507  O531    1.951   .     S
Cu507  O535    1.947   .     S
Cu507  Cu508   2.681   .     S
Cu507  O536    1.977   .     S
Cu508  O533    1.951   .     S
Cu508  O538    1.963   .     S
Cu508  N529    2.015   .     S
Cu508  O537    1.977   .     S
Cu508  O534    1.947   .     S
H512   C856    1.111   .     S
H514   C617    1.111   .     S
H526   C622    1.088   .     S
H528   N889    1.029   .     S
N530   N889    1.299   .     S
N530   H870    1.029   .     S
C541   O591    1.289   .     A
C541   O594    1.283   .     A
C541   C562    1.425   .     S
C542   C544    1.401   .     A
C542   H580    1.085   .     S
C542   C553    1.386   .     A
C543   C566    1.401   .     A
C543   C565    1.463   .     S
C543   C545    1.413   .     A
C544   C564    1.463   .     S
C544   C546    1.413   .     A
C545   O600    1.389   .     S
C545   C547    1.410   .     A
C546   O592    1.389   .     S
C546   C548    1.410   .     A
C547   C549    1.416   .     A
C547   C554    1.406   .     A
C548   C555    1.406   .     A
C548   C550    1.416   .     A
C549   C551    1.407   .     A
C549   C490    1.405   1_655 S
C550   C553    1.407   .     A
C551   C566    1.386   .     A
C551   C561    1.398   .     A
C552   O593    1.289   .     A
C552   C563    1.425   .     S
C552   O595    1.283   .     A
C553   C560    1.398   .     A
C554   H582    1.082   .     S
C554   C500    1.390   1_655 S
C555   H583    1.082   .     S
C556   H571    1.117   .     S
C556   O600    1.420   .     S
C556   C557    1.519   .     S
C557   H573    1.110   .     S
C557   H575    1.109   .     S
C558   O592    1.420   .     S
C558   H577    1.117   .     S
C558   C559    1.519   .     S
C558   H936    1.111   .     S
C559   H578    1.109   .     S
C559   H581    1.111   .     S
C559   H699    1.111   .     S
C560   H584    1.084   .     S
C561   H585    1.084   .     S
C561   C495    1.390   1_655 S
C563   C682    1.327   .     S
C563   H707    1.088   .     S
C564   O598    1.295   .     A
C564   O596    1.296   .     A
C565   O599    1.295   .     A
C565   O597    1.296   .     A
C566   H569    1.085   .     S
Cu567  N590    2.015   .     S
Cu567  O599    1.963   .     S
Cu567  O591    1.951   .     S
Cu567  O595    1.947   .     S
Cu567  Cu568   2.681   .     S
Cu567  O596    1.977   .     S
Cu568  O593    1.951   .     S
Cu568  O598    1.963   .     S
Cu568  N589    2.015   .     S
Cu568  O597    1.977   .     S
Cu568  O594    1.947   .     S
H572   C916    1.111   .     S
H574   C677    1.111   .     S
H586   C682    1.088   .     S
H588   N949    1.029   .     S
N590   N949    1.299   .     S
N590   H930    1.029   .     S
C601   O651    1.289   .     A
C601   O654    1.283   .     A
C601   C622    1.425   .     S
C602   C604    1.401   .     A
C602   H640    1.085   .     S
C602   C613    1.386   .     A
C603   C626    1.401   .     A
C603   C625    1.463   .     S
C603   C605    1.413   .     A
C604   C624    1.463   .     S
C604   C606    1.413   .     A
C605   O660    1.389   .     S
C605   C607    1.410   .     A
C606   O652    1.389   .     S
C606   C608    1.410   .     A
C607   C609    1.416   .     A
C607   C614    1.406   .     A
C608   C615    1.406   .     A
C608   C610    1.416   .     A
C609   C611    1.407   .     A
C609   C670    1.405   .     S
C610   C613    1.407   .     A
C610   C669    1.405   1_455 S
C611   C626    1.386   .     A
C611   C621    1.398   .     A
C612   O653    1.289   .     A
C612   C623    1.425   .     S
C612   O655    1.283   .     A
C613   C620    1.398   .     A
C614   H642    1.082   .     S
C614   C680    1.390   .     S
C615   H643    1.082   .     S
C615   C681    1.390   1_455 S
C616   H631    1.117   .     S
C616   O660    1.420   .     S
C616   C617    1.519   .     S
C617   H633    1.110   .     S
C617   H635    1.109   .     S
C618   O652    1.420   .     S
C618   H637    1.117   .     S
C618   C619    1.519   .     S
C618   H996    1.111   .     S
C619   H638    1.109   .     S
C619   H641    1.111   .     S
C619   H399    1.111   1_565 S
C620   H644    1.084   .     S
C620   C674    1.390   1_455 S
C621   H645    1.084   .     S
C621   C675    1.390   .     S
C623   C382    1.327   1_565 S
C623   H407    1.088   1_565 S
C624   O658    1.295   .     A
C624   O656    1.296   .     A
C625   O659    1.295   .     A
C625   O657    1.296   .     A
C626   H629    1.085   .     S
Cu627  N650    2.015   .     S
Cu627  O659    1.963   .     S
Cu627  O651    1.951   .     S
Cu627  O655    1.947   .     S
Cu627  Cu628   2.681   .     S
Cu627  O656    1.977   .     S
Cu628  O653    1.951   .     S
Cu628  O658    1.963   .     S
Cu628  N649    2.015   .     S
Cu628  O657    1.977   .     S
Cu628  O654    1.947   .     S
H632   C976    1.111   .     S
H634   C377    1.111   1_565 S
H646   C382    1.088   1_565 S
H648   N1009   1.029   .     S
N650   N1009   1.299   .     S
N650   H990    1.029   .     S
C661   O711    1.289   .     A
C661   O714    1.283   .     A
C661   C682    1.425   .     S
C662   C664    1.401   .     A
C662   H700    1.085   .     S
C662   C673    1.386   .     A
C663   C686    1.401   .     A
C663   C685    1.463   .     S
C663   C665    1.413   .     A
C664   C684    1.463   .     S
C664   C666    1.413   .     A
C665   O720    1.389   .     S
C665   C667    1.410   .     A
C666   O712    1.389   .     S
C666   C668    1.410   .     A
C667   C669    1.416   .     A
C667   C674    1.406   .     A
C668   C675    1.406   .     A
C668   C670    1.416   .     A
C669   C671    1.407   .     A
C669   C610    1.405   1_655 S
C670   C673    1.407   .     A
C671   C686    1.386   .     A
C671   C681    1.398   .     A
C672   O713    1.289   .     A
C672   C683    1.425   .     S
C672   O715    1.283   .     A
C673   C680    1.398   .     A
C674   H702    1.082   .     S
C674   C620    1.390   1_655 S
C675   H703    1.082   .     S
C676   H691    1.117   .     S
C676   O720    1.420   .     S
C676   C677    1.519   .     S
C677   H693    1.110   .     S
C677   H695    1.109   .     S
C678   O712    1.420   .     S
C678   H697    1.117   .     S
C678   C679    1.519   .     S
C678   H1056   1.111   .     S
C679   H698    1.109   .     S
C679   H701    1.111   .     S
C679   H459    1.111   1_565 S
C680   H704    1.084   .     S
C681   H705    1.084   .     S
C681   C615    1.390   1_655 S
C683   C442    1.327   1_565 S
C683   H467    1.088   1_565 S
C684   O718    1.295   .     A
C684   O716    1.296   .     A
C685   O719    1.295   .     A
C685   O717    1.296   .     A
C686   H689    1.085   .     S
Cu687  N710    2.015   .     S
Cu687  O719    1.963   .     S
Cu687  O711    1.951   .     S
Cu687  O715    1.947   .     S
Cu687  Cu688   2.681   .     S
Cu687  O716    1.977   .     S
Cu688  O713    1.951   .     S
Cu688  O718    1.963   .     S
Cu688  N709    2.015   .     S
Cu688  O717    1.977   .     S
Cu688  O714    1.947   .     S
H692   C1036   1.111   .     S
H694   C437    1.111   1_565 S
H706   C442    1.088   1_565 S
H708   N1069   1.029   .     S
N710   N1069   1.299   .     S
N710   H1050   1.029   .     S
C721   O771    1.289   .     A
C721   O774    1.283   .     A
C721   C742    1.425   .     S
C722   C724    1.401   .     A
C722   H760    1.085   .     S
C722   C733    1.386   .     A
C723   C746    1.401   .     A
C723   C745    1.463   .     S
C723   C725    1.413   .     A
C724   C744    1.463   .     S
C724   C726    1.413   .     A
C725   O780    1.389   .     S
C725   C727    1.410   .     A
C726   O772    1.389   .     S
C726   C728    1.410   .     A
C727   C729    1.416   .     A
C727   C734    1.406   .     A
C728   C735    1.406   .     A
C728   C730    1.416   .     A
C729   C731    1.407   .     A
C729   C790    1.405   .     S
C730   C733    1.407   .     A
C730   C789    1.405   1_455 S
C731   C746    1.386   .     A
C731   C741    1.398   .     A
C732   O773    1.289   .     A
C732   C743    1.425   .     S
C732   O775    1.283   .     A
C733   C740    1.398   .     A
C734   H762    1.082   .     S
C734   C800    1.390   .     S
C735   H763    1.082   .     S
C735   C801    1.390   1_455 S
C736   H751    1.117   .     S
C736   O780    1.420   .     S
C736   C737    1.519   .     S
C737   H753    1.110   .     S
C737   H755    1.109   .     S
C737   H994    1.111   1_545 S
C738   O772    1.420   .     S
C738   H757    1.117   .     S
C738   C739    1.519   .     S
C738   H36     1.111   1_556 S
C739   H758    1.109   .     S
C739   H761    1.111   .     S
C739   H879    1.111   .     S
C740   H764    1.084   .     S
C740   C794    1.390   1_455 S
C741   H765    1.084   .     S
C741   C795    1.390   .     S
C742   C983    1.327   1_545 S
C742   H1006   1.088   1_545 S
C743   C862    1.327   .     S
C743   H887    1.088   .     S
C744   O778    1.295   .     A
C744   O776    1.296   .     A
C745   O779    1.295   .     A
C745   O777    1.296   .     A
C746   H749    1.085   .     S
Cu747  N770    2.015   .     S
Cu747  O779    1.963   .     S
Cu747  O771    1.951   .     S
Cu747  O775    1.947   .     S
Cu747  Cu748   2.681   .     S
Cu747  O776    1.977   .     S
Cu748  O773    1.951   .     S
Cu748  O778    1.963   .     S
Cu748  N769    2.015   .     S
Cu748  O777    1.977   .     S
Cu748  O774    1.947   .     S
H752   C16     1.111   1_556 S
H754   C857    1.111   .     S
H759   C979    1.111   1_545 S
H766   C862    1.088   .     S
H767   C983    1.088   1_545 S
H768   N49     1.029   1_556 S
N770   N49     1.299   1_556 S
N770   H30     1.029   1_556 S
C781   O831    1.289   .     A
C781   O834    1.283   .     A
C781   C802    1.425   .     S
C782   C784    1.401   .     A
C782   H820    1.085   .     S
C782   C793    1.386   .     A
C783   C806    1.401   .     A
C783   C805    1.463   .     S
C783   C785    1.413   .     A
C784   C804    1.463   .     S
C784   C786    1.413   .     A
C785   O840    1.389   .     S
C785   C787    1.410   .     A
C786   O832    1.389   .     S
C786   C788    1.410   .     A
C787   C789    1.416   .     A
C787   C794    1.406   .     A
C788   C795    1.406   .     A
C788   C790    1.416   .     A
C789   C791    1.407   .     A
C789   C730    1.405   1_655 S
C790   C793    1.407   .     A
C791   C806    1.386   .     A
C791   C801    1.398   .     A
C792   O833    1.289   .     A
C792   C803    1.425   .     S
C792   O835    1.283   .     A
C793   C800    1.398   .     A
C794   H822    1.082   .     S
C794   C740    1.390   1_655 S
C795   H823    1.082   .     S
C796   H811    1.117   .     S
C796   O840    1.420   .     S
C796   C797    1.519   .     S
C797   H813    1.110   .     S
C797   H815    1.109   .     S
C797   H1054   1.111   1_545 S
C798   O832    1.420   .     S
C798   H817    1.117   .     S
C798   C799    1.519   .     S
C798   H96     1.111   1_556 S
C799   H818    1.109   .     S
C799   H821    1.111   .     S
C799   H939    1.111   .     S
C800   H824    1.084   .     S
C801   H825    1.084   .     S
C801   C735    1.390   1_655 S
C802   C1043   1.327   1_545 S
C802   H1066   1.088   1_545 S
C803   C922    1.327   .     S
C803   H947    1.088   .     S
C804   O838    1.295   .     A
C804   O836    1.296   .     A
C805   O839    1.295   .     A
C805   O837    1.296   .     A
C806   H809    1.085   .     S
Cu807  N830    2.015   .     S
Cu807  O839    1.963   .     S
Cu807  O831    1.951   .     S
Cu807  O835    1.947   .     S
Cu807  Cu808   2.681   .     S
Cu807  O836    1.977   .     S
Cu808  O833    1.951   .     S
Cu808  O838    1.963   .     S
Cu808  N829    2.015   .     S
Cu808  O837    1.977   .     S
Cu808  O834    1.947   .     S
H812   C76     1.111   1_556 S
H814   C917    1.111   .     S
H819   C1039   1.111   1_545 S
H826   C922    1.088   .     S
H827   C1043   1.088   1_545 S
H828   N109    1.029   1_556 S
N830   N109    1.299   1_556 S
N830   H90     1.029   1_556 S
C841   O891    1.289   .     A
C841   O894    1.283   .     A
C841   C862    1.425   .     S
C842   C844    1.401   .     A
C842   H880    1.085   .     S
C842   C853    1.386   .     A
C843   C866    1.401   .     A
C843   C865    1.463   .     S
C843   C845    1.413   .     A
C844   C864    1.463   .     S
C844   C846    1.413   .     A
C845   O900    1.389   .     S
C845   C847    1.410   .     A
C846   O892    1.389   .     S
C846   C848    1.410   .     A
C847   C849    1.416   .     A
C847   C854    1.406   .     A
C848   C855    1.406   .     A
C848   C850    1.416   .     A
C849   C851    1.407   .     A
C849   C910    1.405   .     S
C850   C853    1.407   .     A
C850   C909    1.405   1_455 S
C851   C866    1.386   .     A
C851   C861    1.398   .     A
C852   O893    1.289   .     A
C852   C863    1.425   .     S
C852   O895    1.283   .     A
C853   C860    1.398   .     A
C854   H882    1.082   .     S
C854   C920    1.390   .     S
C855   H883    1.082   .     S
C855   C921    1.390   1_455 S
C856   H871    1.117   .     S
C856   O900    1.420   .     S
C856   C857    1.519   .     S
C857   H873    1.110   .     S
C857   H875    1.109   .     S
C858   O892    1.420   .     S
C858   H877    1.117   .     S
C858   C859    1.519   .     S
C858   H156    1.111   1_556 S
C859   H878    1.109   .     S
C859   H881    1.111   .     S
C859   H999    1.111   .     S
C860   H884    1.084   .     S
C860   C914    1.390   1_455 S
C861   H885    1.084   .     S
C861   C915    1.390   .     S
C863   C982    1.327   .     S
C863   H1007   1.088   .     S
C864   O898    1.295   .     A
C864   O896    1.296   .     A
C865   O899    1.295   .     A
C865   O897    1.296   .     A
C866   H869    1.085   .     S
Cu867  N890    2.015   .     S
Cu867  O899    1.963   .     S
Cu867  O891    1.951   .     S
Cu867  O895    1.947   .     S
Cu867  Cu868   2.681   .     S
Cu867  O896    1.977   .     S
Cu868  O893    1.951   .     S
Cu868  O898    1.963   .     S
Cu868  N889    2.015   .     S
Cu868  O897    1.977   .     S
Cu868  O894    1.947   .     S
H872   C136    1.111   1_556 S
H874   C977    1.111   .     S
H886   C982    1.088   .     S
H888   N169    1.029   1_556 S
N890   N169    1.299   1_556 S
N890   H150    1.029   1_556 S
C901   O951    1.289   .     A
C901   O954    1.283   .     A
C901   C922    1.425   .     S
C902   C904    1.401   .     A
C902   H940    1.085   .     S
C902   C913    1.386   .     A
C903   C926    1.401   .     A
C903   C925    1.463   .     S
C903   C905    1.413   .     A
C904   C924    1.463   .     S
C904   C906    1.413   .     A
C905   O960    1.389   .     S
C905   C907    1.410   .     A
C906   O952    1.389   .     S
C906   C908    1.410   .     A
C907   C909    1.416   .     A
C907   C914    1.406   .     A
C908   C915    1.406   .     A
C908   C910    1.416   .     A
C909   C911    1.407   .     A
C909   C850    1.405   1_655 S
C910   C913    1.407   .     A
C911   C926    1.386   .     A
C911   C921    1.398   .     A
C912   O953    1.289   .     A
C912   C923    1.425   .     S
C912   O955    1.283   .     A
C913   C920    1.398   .     A
C914   H942    1.082   .     S
C914   C860    1.390   1_655 S
C915   H943    1.082   .     S
C916   H931    1.117   .     S
C916   O960    1.420   .     S
C916   C917    1.519   .     S
C917   H933    1.110   .     S
C917   H935    1.109   .     S
C918   O952    1.420   .     S
C918   H937    1.117   .     S
C918   C919    1.519   .     S
C918   H216    1.111   1_556 S
C919   H938    1.109   .     S
C919   H941    1.111   .     S
C919   H1059   1.111   .     S
C920   H944    1.084   .     S
C921   H945    1.084   .     S
C921   C855    1.390   1_655 S
C923   C1042   1.327   .     S
C923   H1067   1.088   .     S
C924   O958    1.295   .     A
C924   O956    1.296   .     A
C925   O959    1.295   .     A
C925   O957    1.296   .     A
C926   H929    1.085   .     S
Cu927  N950    2.015   .     S
Cu927  O959    1.963   .     S
Cu927  O951    1.951   .     S
Cu927  O955    1.947   .     S
Cu927  Cu928   2.681   .     S
Cu927  O956    1.977   .     S
Cu928  O953    1.951   .     S
Cu928  O958    1.963   .     S
Cu928  N949    2.015   .     S
Cu928  O957    1.977   .     S
Cu928  O954    1.947   .     S
H932   C196    1.111   1_556 S
H934   C1037   1.111   .     S
H946   C1042   1.088   .     S
H948   N229    1.029   1_556 S
N950   N229    1.299   1_556 S
N950   H210    1.029   1_556 S
C961   O1011   1.289   .     A
C961   O1014   1.283   .     A
C961   C982    1.425   .     S
C962   C964    1.401   .     A
C962   H1000   1.085   .     S
C962   C973    1.386   .     A
C963   C986    1.401   .     A
C963   C985    1.463   .     S
C963   C965    1.413   .     A
C964   C984    1.463   .     S
C964   C966    1.413   .     A
C965   O1020   1.389   .     S
C965   C967    1.410   .     A
C966   O1012   1.389   .     S
C966   C968    1.410   .     A
C967   C969    1.416   .     A
C967   C974    1.406   .     A
C968   C975    1.406   .     A
C968   C970    1.416   .     A
C969   C971    1.407   .     A
C969   C1030   1.405   .     S
C970   C973    1.407   .     A
C970   C1029   1.405   1_455 S
C971   C986    1.386   .     A
C971   C981    1.398   .     A
C972   O1013   1.289   .     A
C972   C983    1.425   .     S
C972   O1015   1.283   .     A
C973   C980    1.398   .     A
C974   H1002   1.082   .     S
C974   C1040   1.390   .     S
C975   H1003   1.082   .     S
C975   C1041   1.390   1_455 S
C976   H991    1.117   .     S
C976   O1020   1.420   .     S
C976   C977    1.519   .     S
C977   H993    1.110   .     S
C977   H995    1.109   .     S
C978   O1012   1.420   .     S
C978   H997    1.117   .     S
C978   C979    1.519   .     S
C978   H276    1.111   1_556 S
C979   H998    1.109   .     S
C979   H1001   1.111   .     S
C979   H759    1.111   1_565 S
C980   H1004   1.084   .     S
C980   C1034   1.390   1_455 S
C981   H1005   1.084   .     S
C981   C1035   1.390   .     S
C983   C742    1.327   1_565 S
C983   H767    1.088   1_565 S
C984   O1018   1.295   .     A
C984   O1016   1.296   .     A
C985   O1019   1.295   .     A
C985   O1017   1.296   .     A
C986   H989    1.085   .     S
Cu987  N1010   2.015   .     S
Cu987  O1019   1.963   .     S
Cu987  O1011   1.951   .     S
Cu987  O1015   1.947   .     S
Cu987  Cu988   2.681   .     S
Cu987  O1016   1.977   .     S
Cu988  O1013   1.951   .     S
Cu988  O1018   1.963   .     S
Cu988  N1009   2.015   .     S
Cu988  O1017   1.977   .     S
Cu988  O1014   1.947   .     S
H992   C256    1.111   1_556 S
H994   C737    1.111   1_565 S
H1006  C742    1.088   1_565 S
H1008  N289    1.029   1_556 S
N1010  N289    1.299   1_556 S
N1010  H270    1.029   1_556 S
C1021  O1071   1.289   .     A
C1021  O1074   1.283   .     A
C1021  C1042   1.425   .     S
C1022  C1024   1.401   .     A
C1022  H1060   1.085   .     S
C1022  C1033   1.386   .     A
C1023  C1046   1.401   .     A
C1023  C1045   1.463   .     S
C1023  C1025   1.413   .     A
C1024  C1044   1.463   .     S
C1024  C1026   1.413   .     A
C1025  O1080   1.389   .     S
C1025  C1027   1.410   .     A
C1026  O1072   1.389   .     S
C1026  C1028   1.410   .     A
C1027  C1029   1.416   .     A
C1027  C1034   1.406   .     A
C1028  C1035   1.406   .     A
C1028  C1030   1.416   .     A
C1029  C1031   1.407   .     A
C1029  C970    1.405   1_655 S
C1030  C1033   1.407   .     A
C1031  C1046   1.386   .     A
C1031  C1041   1.398   .     A
C1032  O1073   1.289   .     A
C1032  C1043   1.425   .     S
C1032  O1075   1.283   .     A
C1033  C1040   1.398   .     A
C1034  H1062   1.082   .     S
C1034  C980    1.390   1_655 S
C1035  H1063   1.082   .     S
C1036  H1051   1.117   .     S
C1036  O1080   1.420   .     S
C1036  C1037   1.519   .     S
C1037  H1053   1.110   .     S
C1037  H1055   1.109   .     S
C1038  O1072   1.420   .     S
C1038  H1057   1.117   .     S
C1038  C1039   1.519   .     S
C1038  H336    1.111   1_556 S
C1039  H1058   1.109   .     S
C1039  H1061   1.111   .     S
C1039  H819    1.111   1_565 S
C1040  H1064   1.084   .     S
C1041  H1065   1.084   .     S
C1041  C975    1.390   1_655 S
C1043  C802    1.327   1_565 S
C1043  H827    1.088   1_565 S
C1044  O1078   1.295   .     A
C1044  O1076   1.296   .     A
C1045  O1079   1.295   .     A
C1045  O1077   1.296   .     A
C1046  H1049   1.085   .     S
Cu1047 N1070   2.015   .     S
Cu1047 O1079   1.963   .     S
Cu1047 O1071   1.951   .     S
Cu1047 O1075   1.947   .     S
Cu1047 Cu1048  2.681   .     S
Cu1047 O1076   1.977   .     S
Cu1048 O1073   1.951   .     S
Cu1048 O1078   1.963   .     S
Cu1048 N1069   2.015   .     S
Cu1048 O1077   1.977   .     S
Cu1048 O1074   1.947   .     S
H1052  C316    1.111   1_556 S
H1054  C797    1.111   1_565 S
H1066  C802    1.088   1_565 S
H1068  N349    1.029   1_556 S
N1070  N349    1.299   1_556 S
N1070  H330    1.029   1_556 S
