data_str_m2_o10_o18_pcu_sym.142
_audit_creation_date              2020-01-03
_audit_creation_method            'Materials Studio'
_symmetry_space_group_name_H-M    'P1'
_symmetry_Int_Tables_number       1
_symmetry_cell_setting            triclinic
loop_
_symmetry_equiv_pos_as_xyz
  x,y,z
_cell_length_a                    22.8342
_cell_length_b                    26.5297
_cell_length_c                    31.5390
_cell_angle_alpha                 95.1914
_cell_angle_beta                  76.0203
_cell_angle_gamma                 103.1309
loop_
_atom_site_label
_atom_site_type_symbol
_atom_site_fract_x
_atom_site_fract_y
_atom_site_fract_z
_atom_site_U_iso_or_equiv
_atom_site_adp_type
_atom_site_occupancy
C1     C     0.18091   0.26635   0.25245   0.00000  Uiso   1.00
C2     C     0.15227   0.06691   0.24793   0.00000  Uiso   1.00
C3     C     0.09517   0.15489   0.04310   0.00000  Uiso   1.00
C4     C     0.24088   0.19256   0.45942   0.00000  Uiso   1.00
C5     C     0.05434   0.12997   0.01687   0.00000  Uiso   1.00
C6     C     0.28013   0.21850   0.48612   0.00000  Uiso   1.00
C7     C     0.18546   0.32219   0.25835   0.00000  Uiso   1.00
C8     C     0.14775   0.01099   0.24243   0.00000  Uiso   1.00
C9     C     0.12846   0.16227   0.33301   0.00000  Uiso   1.00
C10    C     0.20482   0.17183   0.16709   0.00000  Uiso   1.00
C11    C     0.10484   0.15690   0.38100   0.00000  Uiso   1.00
C12    C     0.22848   0.18273   0.11995   0.00000  Uiso   1.00
C13    C     0.02746   0.11989   0.44498   0.00000  Uiso   1.00
C14    C     0.30467   0.22797   0.05904   0.00000  Uiso   1.00
C15    C     0.04610   0.12651   0.39930   0.00000  Uiso   1.00
C16    C     0.28428   0.21898   0.10436   0.00000  Uiso   1.00
C17    C     0.14343   0.18086   0.40900   0.00000  Uiso   1.00
C18    C     0.19351   0.15833   0.09001   0.00000  Uiso   1.00
C19    C     0.13121   0.16452   0.45234   0.00000  Uiso   1.00
C20    C     0.20405   0.18024   0.04881   0.00000  Uiso   1.00
C21    C     0.07064   0.13752   0.47141   0.00000  Uiso   1.00
C22    C     0.26337   0.20993   0.03133   0.00000  Uiso   1.00
C23    C     0.17687   0.17609   0.47782   0.00000  Uiso   1.00
C24    C     0.15839   0.17058   0.02362   0.00000  Uiso   1.00
Cu25   Cu    0.10737   0.16108   0.24517   0.00000  Uiso   1.00
Cu26   Cu    0.22596   0.17225   0.25483   0.00000  Uiso   1.00
N27    N     0.31506   0.18068   0.26212   0.00000  Uiso   1.00
N28    N     0.01827   0.15265   0.23788   0.00000  Uiso   1.00
O29    O     0.12815   0.23809   0.24686   0.00000  Uiso   1.00
O30    O     0.20518   0.09524   0.25314   0.00000  Uiso   1.00
O31    O     0.22829   0.24753   0.25502   0.00000  Uiso   1.00
O32    O     0.10504   0.08580   0.24498   0.00000  Uiso   1.00
O33    O     0.08851   0.15930   0.30855   0.00000  Uiso   1.00
O34    O     0.24482   0.17403   0.19145   0.00000  Uiso   1.00
O35    O     0.18866   0.16874   0.31671   0.00000  Uiso   1.00
O36    O     0.14468   0.16460   0.18329   0.00000  Uiso   1.00
O37    O     0.33285   0.09730   0.03601   0.00000  Uiso   1.00
C38    C     0.01399   0.05265   0.04891   0.00000  Uiso   1.00
H39    H     0.05123   0.06275   0.06654   0.00000  Uiso   1.00
H40    H     0.02907   0.02782   0.02015   0.00000  Uiso   1.00
C41    C     0.29251   0.02158   0.07998   0.00000  Uiso   1.00
H42    H     0.25995   0.33174   0.06119   0.00000  Uiso   1.00
H43    H     0.30827   0.32794   0.09727   0.00000  Uiso   1.00
H44    H     0.27010   0.04762   0.10509   0.00000  Uiso   1.00
O45    O     0.00245   0.25015   0.46729   0.00000  Uiso   1.00
C46    C     0.32211   0.29322   0.45131   0.00000  Uiso   1.00
H47    H     0.29541   0.31488   0.47816   0.00000  Uiso   1.00
H48    H     0.29529   0.28078   0.42583   0.00000  Uiso   1.00
C49    C     0.04744   0.32954   0.42972   0.00000  Uiso   1.00
H50    H     0.06990   0.31065   0.39982   0.00000  Uiso   1.00
H51    H     0.03547   0.02954   0.41851   0.00000  Uiso   1.00
H52    H     0.07936   0.00898   0.45194   0.00000  Uiso   1.00
O53    O     0.15304   0.11096   0.10023   0.00000  Uiso   1.00
C54    C     0.17038   0.07206   0.06868   0.00000  Uiso   1.00
H55    H     0.22102   0.07702   0.05810   0.00000  Uiso   1.00
H56    H     0.15331   0.07325   0.03883   0.00000  Uiso   1.00
C57    C     0.14386   0.01836   0.08723   0.00000  Uiso   1.00
H58    H     0.15903   0.32183   0.06270   0.00000  Uiso   1.00
H59    H     0.15906   0.01556   0.11765   0.00000  Uiso   1.00
H60    H     0.09299   0.00953   0.09448   0.00000  Uiso   1.00
O61    O     0.18891   0.22462   0.39589   0.00000  Uiso   1.00
C62    C     0.15916   0.26626   0.39830   0.00000  Uiso   1.00
H63    H     0.12434   0.26674   0.42983   0.00000  Uiso   1.00
H64    H     0.13720   0.26280   0.37000   0.00000  Uiso   1.00
C65    C     0.20440   0.31822   0.39636   0.00000  Uiso   1.00
H66    H     0.24172   0.31941   0.36670   0.00000  Uiso   1.00
H67    H     0.18050   0.01646   0.39472   0.00000  Uiso   1.00
H68    H     0.22316   0.32567   0.42612   0.00000  Uiso   1.00
O69    O     0.32018   0.24557   0.13205   0.00000  Uiso   1.00
H70    H     0.29228   0.25558   0.15916   0.00000  Uiso   1.00
O71    O     0.00788   0.09994   0.37322   0.00000  Uiso   1.00
H72    H     0.33080   0.12606   0.35748   0.00000  Uiso   1.00
O73    O     0.30155   0.09424   0.46412   0.00000  Uiso   1.00
H74    H     0.27590   0.08571   0.44223   0.00000  Uiso   1.00
O75    O     0.02994   0.25604   0.04174   0.00000  Uiso   1.00
H76    H     0.05586   0.25900   0.06321   0.00000  Uiso   1.00
O77    O     0.07448   0.16236   0.08775   0.00000  Uiso   1.00
H78    H     0.02896   0.15114   0.09600   0.00000  Uiso   1.00
O79    O     0.26770   0.18297   0.41627   0.00000  Uiso   1.00
H80    H     0.24251   0.15080   0.40598   0.00000  Uiso   1.00
O81    O     0.22415   0.01804   0.28344   0.00000  Uiso   1.00
H82    H     0.24773   0.32905   0.29267   0.00000  Uiso   1.00
O83    O     0.10789   0.31458   0.21849   0.00000  Uiso   1.00
H84    H     0.07711   0.00075   0.21585   0.00000  Uiso   1.00
O85    O     0.01260   0.22848   0.27053   0.00000  Uiso   1.00
C86    C     0.32110   0.24343   0.31362   0.00000  Uiso   1.00
H87    H     0.32551   0.21623   0.33693   0.00000  Uiso   1.00
H88    H     0.27217   0.24560   0.31832   0.00000  Uiso   1.00
C89    C     0.02414   0.29708   0.32282   0.00000  Uiso   1.00
H90    H     0.00401   0.31183   0.35553   0.00000  Uiso   1.00
H91    H     0.07267   0.29552   0.32146   0.00000  Uiso   1.00
H92    H     0.02290   0.32442   0.29857   0.00000  Uiso   1.00
O93    O     0.33076   0.12853   0.20338   0.00000  Uiso   1.00
C94    C     0.32656   0.07502   0.20523   0.00000  Uiso   1.00
H95    H     0.28018   0.05477   0.20099   0.00000  Uiso   1.00
H96    H     0.33201   0.06244   0.23653   0.00000  Uiso   1.00
C97    C     0.03821   0.05730   0.16675   0.00000  Uiso   1.00
H98    H     0.08609   0.07026   0.17082   0.00000  Uiso   1.00
H99    H     0.02668   0.01445   0.16313   0.00000  Uiso   1.00
H100   H     0.03445   0.07426   0.13718   0.00000  Uiso   1.00
C101   C     0.51424   0.26635   0.25245   0.00000  Uiso   1.00
C102   C     0.48560   0.06691   0.24793   0.00000  Uiso   1.00
C103   C     0.42850   0.15489   0.04310   0.00000  Uiso   1.00
C104   C     0.57421   0.19256   0.45942   0.00000  Uiso   1.00
C105   C     0.38767   0.12997   0.01687   0.00000  Uiso   1.00
C106   C     0.61347   0.21850   0.48612   0.00000  Uiso   1.00
C107   C     0.51879   0.32219   0.25835   0.00000  Uiso   1.00
C108   C     0.48108   0.01099   0.24243   0.00000  Uiso   1.00
C109   C     0.46179   0.16227   0.33301   0.00000  Uiso   1.00
C110   C     0.53815   0.17183   0.16709   0.00000  Uiso   1.00
C111   C     0.43818   0.15690   0.38100   0.00000  Uiso   1.00
C112   C     0.56181   0.18273   0.11995   0.00000  Uiso   1.00
C113   C     0.36079   0.11989   0.44498   0.00000  Uiso   1.00
C114   C     0.63800   0.22797   0.05904   0.00000  Uiso   1.00
C115   C     0.37943   0.12651   0.39930   0.00000  Uiso   1.00
C116   C     0.61761   0.21898   0.10436   0.00000  Uiso   1.00
C117   C     0.47676   0.18086   0.40900   0.00000  Uiso   1.00
C118   C     0.52684   0.15833   0.09001   0.00000  Uiso   1.00
C119   C     0.46454   0.16452   0.45234   0.00000  Uiso   1.00
C120   C     0.53738   0.18024   0.04881   0.00000  Uiso   1.00
C121   C     0.40397   0.13752   0.47141   0.00000  Uiso   1.00
C122   C     0.59670   0.20993   0.03133   0.00000  Uiso   1.00
C123   C     0.51020   0.17609   0.47782   0.00000  Uiso   1.00
C124   C     0.49173   0.17058   0.02362   0.00000  Uiso   1.00
Cu125  Cu    0.44071   0.16108   0.24517   0.00000  Uiso   1.00
Cu126  Cu    0.55929   0.17225   0.25483   0.00000  Uiso   1.00
N127   N     0.64839   0.18068   0.26212   0.00000  Uiso   1.00
N128   N     0.35161   0.15265   0.23788   0.00000  Uiso   1.00
O129   O     0.46148   0.23809   0.24686   0.00000  Uiso   1.00
O130   O     0.53852   0.09524   0.25314   0.00000  Uiso   1.00
O131   O     0.56163   0.24753   0.25502   0.00000  Uiso   1.00
O132   O     0.43837   0.08580   0.24498   0.00000  Uiso   1.00
O133   O     0.42185   0.15930   0.30855   0.00000  Uiso   1.00
O134   O     0.57815   0.17403   0.19145   0.00000  Uiso   1.00
O135   O     0.52199   0.16874   0.31671   0.00000  Uiso   1.00
O136   O     0.47801   0.16460   0.18329   0.00000  Uiso   1.00
O137   O     0.66619   0.09730   0.03601   0.00000  Uiso   1.00
C138   C     0.34732   0.05265   0.04891   0.00000  Uiso   1.00
H139   H     0.38456   0.06275   0.06654   0.00000  Uiso   1.00
H140   H     0.36241   0.02782   0.02015   0.00000  Uiso   1.00
C141   C     0.62584   0.02158   0.07998   0.00000  Uiso   1.00
H142   H     0.59328   0.33174   0.06119   0.00000  Uiso   1.00
H143   H     0.64161   0.32794   0.09727   0.00000  Uiso   1.00
H144   H     0.60343   0.04762   0.10509   0.00000  Uiso   1.00
O145   O     0.33579   0.25015   0.46729   0.00000  Uiso   1.00
C146   C     0.65545   0.29322   0.45131   0.00000  Uiso   1.00
H147   H     0.62875   0.31488   0.47816   0.00000  Uiso   1.00
H148   H     0.62862   0.28078   0.42583   0.00000  Uiso   1.00
C149   C     0.38077   0.32954   0.42972   0.00000  Uiso   1.00
H150   H     0.40323   0.31065   0.39982   0.00000  Uiso   1.00
H151   H     0.36880   0.02954   0.41851   0.00000  Uiso   1.00
H152   H     0.41269   0.00898   0.45194   0.00000  Uiso   1.00
O153   O     0.48637   0.11096   0.10023   0.00000  Uiso   1.00
C154   C     0.50371   0.07206   0.06868   0.00000  Uiso   1.00
H155   H     0.55436   0.07702   0.05810   0.00000  Uiso   1.00
H156   H     0.48664   0.07325   0.03883   0.00000  Uiso   1.00
C157   C     0.47719   0.01836   0.08723   0.00000  Uiso   1.00
H158   H     0.49237   0.32183   0.06270   0.00000  Uiso   1.00
H159   H     0.49240   0.01556   0.11765   0.00000  Uiso   1.00
H160   H     0.42632   0.00953   0.09448   0.00000  Uiso   1.00
O161   O     0.52225   0.22462   0.39589   0.00000  Uiso   1.00
C162   C     0.49250   0.26626   0.39830   0.00000  Uiso   1.00
H163   H     0.45767   0.26674   0.42983   0.00000  Uiso   1.00
H164   H     0.47053   0.26280   0.37000   0.00000  Uiso   1.00
C165   C     0.53774   0.31822   0.39636   0.00000  Uiso   1.00
H166   H     0.57505   0.31941   0.36670   0.00000  Uiso   1.00
H167   H     0.51384   0.01646   0.39472   0.00000  Uiso   1.00
H168   H     0.55649   0.32567   0.42612   0.00000  Uiso   1.00
O169   O     0.65351   0.24557   0.13205   0.00000  Uiso   1.00
H170   H     0.62561   0.25558   0.15916   0.00000  Uiso   1.00
O171   O     0.34122   0.09994   0.37322   0.00000  Uiso   1.00
H172   H     0.66413   0.12606   0.35748   0.00000  Uiso   1.00
O173   O     0.63488   0.09424   0.46412   0.00000  Uiso   1.00
H174   H     0.60923   0.08571   0.44223   0.00000  Uiso   1.00
O175   O     0.36327   0.25604   0.04174   0.00000  Uiso   1.00
H176   H     0.38919   0.25900   0.06321   0.00000  Uiso   1.00
O177   O     0.40782   0.16236   0.08775   0.00000  Uiso   1.00
H178   H     0.36229   0.15114   0.09600   0.00000  Uiso   1.00
O179   O     0.60103   0.18297   0.41627   0.00000  Uiso   1.00
H180   H     0.57585   0.15080   0.40598   0.00000  Uiso   1.00
O181   O     0.55748   0.01804   0.28344   0.00000  Uiso   1.00
H182   H     0.58107   0.32905   0.29267   0.00000  Uiso   1.00
O183   O     0.44122   0.31458   0.21849   0.00000  Uiso   1.00
H184   H     0.41044   0.00075   0.21585   0.00000  Uiso   1.00
O185   O     0.34593   0.22848   0.27053   0.00000  Uiso   1.00
C186   C     0.65444   0.24343   0.31362   0.00000  Uiso   1.00
H187   H     0.65885   0.21623   0.33693   0.00000  Uiso   1.00
H188   H     0.60550   0.24560   0.31832   0.00000  Uiso   1.00
C189   C     0.35748   0.29708   0.32282   0.00000  Uiso   1.00
H190   H     0.33734   0.31183   0.35553   0.00000  Uiso   1.00
H191   H     0.40600   0.29552   0.32146   0.00000  Uiso   1.00
H192   H     0.35624   0.32442   0.29857   0.00000  Uiso   1.00
O193   O     0.66410   0.12853   0.20338   0.00000  Uiso   1.00
C194   C     0.65990   0.07502   0.20523   0.00000  Uiso   1.00
H195   H     0.61351   0.05477   0.20099   0.00000  Uiso   1.00
H196   H     0.66534   0.06244   0.23653   0.00000  Uiso   1.00
C197   C     0.37155   0.05730   0.16675   0.00000  Uiso   1.00
H198   H     0.41942   0.07026   0.17082   0.00000  Uiso   1.00
H199   H     0.36001   0.01445   0.16313   0.00000  Uiso   1.00
H200   H     0.36778   0.07426   0.13718   0.00000  Uiso   1.00
C201   C     0.84758   0.26635   0.25245   0.00000  Uiso   1.00
C202   C     0.81894   0.06691   0.24793   0.00000  Uiso   1.00
C203   C     0.76184   0.15489   0.04310   0.00000  Uiso   1.00
C204   C     0.90754   0.19256   0.45942   0.00000  Uiso   1.00
C205   C     0.72101   0.12997   0.01687   0.00000  Uiso   1.00
C206   C     0.94680   0.21850   0.48612   0.00000  Uiso   1.00
C207   C     0.85213   0.32219   0.25835   0.00000  Uiso   1.00
C208   C     0.81442   0.01099   0.24243   0.00000  Uiso   1.00
C209   C     0.79512   0.16227   0.33301   0.00000  Uiso   1.00
C210   C     0.87149   0.17183   0.16709   0.00000  Uiso   1.00
C211   C     0.77151   0.15690   0.38100   0.00000  Uiso   1.00
C212   C     0.89515   0.18273   0.11995   0.00000  Uiso   1.00
C213   C     0.69412   0.11989   0.44498   0.00000  Uiso   1.00
C214   C     0.97133   0.22797   0.05904   0.00000  Uiso   1.00
C215   C     0.71276   0.12651   0.39930   0.00000  Uiso   1.00
C216   C     0.95094   0.21898   0.10436   0.00000  Uiso   1.00
C217   C     0.81010   0.18086   0.40900   0.00000  Uiso   1.00
C218   C     0.86018   0.15833   0.09001   0.00000  Uiso   1.00
C219   C     0.79788   0.16452   0.45234   0.00000  Uiso   1.00
C220   C     0.87071   0.18024   0.04881   0.00000  Uiso   1.00
C221   C     0.73730   0.13752   0.47141   0.00000  Uiso   1.00
C222   C     0.93003   0.20993   0.03133   0.00000  Uiso   1.00
C223   C     0.84353   0.17609   0.47782   0.00000  Uiso   1.00
C224   C     0.82506   0.17058   0.02362   0.00000  Uiso   1.00
Cu225  Cu    0.77404   0.16108   0.24517   0.00000  Uiso   1.00
Cu226  Cu    0.89263   0.17225   0.25483   0.00000  Uiso   1.00
N227   N     0.98173   0.18068   0.26212   0.00000  Uiso   1.00
N228   N     0.68494   0.15265   0.23788   0.00000  Uiso   1.00
O229   O     0.79482   0.23809   0.24686   0.00000  Uiso   1.00
O230   O     0.87185   0.09524   0.25314   0.00000  Uiso   1.00
O231   O     0.89496   0.24753   0.25502   0.00000  Uiso   1.00
O232   O     0.77171   0.08580   0.24498   0.00000  Uiso   1.00
O233   O     0.75518   0.15930   0.30855   0.00000  Uiso   1.00
O234   O     0.91149   0.17403   0.19145   0.00000  Uiso   1.00
O235   O     0.85532   0.16874   0.31671   0.00000  Uiso   1.00
O236   O     0.81134   0.16460   0.18329   0.00000  Uiso   1.00
O237   O     0.99952   0.09730   0.03601   0.00000  Uiso   1.00
C238   C     0.68065   0.05265   0.04891   0.00000  Uiso   1.00
H239   H     0.71789   0.06275   0.06654   0.00000  Uiso   1.00
H240   H     0.69574   0.02782   0.02015   0.00000  Uiso   1.00
C241   C     0.95917   0.02158   0.07998   0.00000  Uiso   1.00
H242   H     0.92662   0.33174   0.06119   0.00000  Uiso   1.00
H243   H     0.97494   0.32794   0.09727   0.00000  Uiso   1.00
H244   H     0.93676   0.04762   0.10509   0.00000  Uiso   1.00
O245   O     0.66912   0.25015   0.46729   0.00000  Uiso   1.00
C246   C     0.98878   0.29322   0.45131   0.00000  Uiso   1.00
H247   H     0.96208   0.31488   0.47816   0.00000  Uiso   1.00
H248   H     0.96195   0.28078   0.42583   0.00000  Uiso   1.00
C249   C     0.71410   0.32954   0.42972   0.00000  Uiso   1.00
H250   H     0.73656   0.31065   0.39982   0.00000  Uiso   1.00
H251   H     0.70213   0.02954   0.41851   0.00000  Uiso   1.00
H252   H     0.74603   0.00898   0.45194   0.00000  Uiso   1.00
O253   O     0.81971   0.11096   0.10023   0.00000  Uiso   1.00
C254   C     0.83705   0.07206   0.06868   0.00000  Uiso   1.00
H255   H     0.88769   0.07702   0.05810   0.00000  Uiso   1.00
H256   H     0.81997   0.07325   0.03883   0.00000  Uiso   1.00
C257   C     0.81052   0.01836   0.08723   0.00000  Uiso   1.00
H258   H     0.82570   0.32183   0.06270   0.00000  Uiso   1.00
H259   H     0.82573   0.01556   0.11765   0.00000  Uiso   1.00
H260   H     0.75965   0.00953   0.09448   0.00000  Uiso   1.00
O261   O     0.85558   0.22462   0.39589   0.00000  Uiso   1.00
C262   C     0.82583   0.26626   0.39830   0.00000  Uiso   1.00
H263   H     0.79101   0.26674   0.42983   0.00000  Uiso   1.00
H264   H     0.80386   0.26280   0.37000   0.00000  Uiso   1.00
C265   C     0.87107   0.31822   0.39636   0.00000  Uiso   1.00
H266   H     0.90839   0.31941   0.36670   0.00000  Uiso   1.00
H267   H     0.84717   0.01646   0.39472   0.00000  Uiso   1.00
H268   H     0.88982   0.32567   0.42612   0.00000  Uiso   1.00
O269   O     0.98685   0.24557   0.13205   0.00000  Uiso   1.00
H270   H     0.95894   0.25558   0.15916   0.00000  Uiso   1.00
O271   O     0.67455   0.09994   0.37322   0.00000  Uiso   1.00
H272   H     0.99746   0.12606   0.35748   0.00000  Uiso   1.00
O273   O     0.96822   0.09424   0.46412   0.00000  Uiso   1.00
H274   H     0.94256   0.08571   0.44223   0.00000  Uiso   1.00
O275   O     0.69660   0.25604   0.04174   0.00000  Uiso   1.00
H276   H     0.72252   0.25900   0.06321   0.00000  Uiso   1.00
O277   O     0.74115   0.16236   0.08775   0.00000  Uiso   1.00
H278   H     0.69563   0.15114   0.09600   0.00000  Uiso   1.00
O279   O     0.93437   0.18297   0.41627   0.00000  Uiso   1.00
H280   H     0.90918   0.15080   0.40598   0.00000  Uiso   1.00
O281   O     0.89081   0.01804   0.28344   0.00000  Uiso   1.00
H282   H     0.91440   0.32905   0.29267   0.00000  Uiso   1.00
O283   O     0.77455   0.31458   0.21849   0.00000  Uiso   1.00
H284   H     0.74377   0.00075   0.21585   0.00000  Uiso   1.00
O285   O     0.67926   0.22848   0.27053   0.00000  Uiso   1.00
C286   C     0.98777   0.24343   0.31362   0.00000  Uiso   1.00
H287   H     0.99218   0.21623   0.33693   0.00000  Uiso   1.00
H288   H     0.93883   0.24560   0.31832   0.00000  Uiso   1.00
C289   C     0.69081   0.29708   0.32282   0.00000  Uiso   1.00
H290   H     0.67068   0.31183   0.35553   0.00000  Uiso   1.00
H291   H     0.73934   0.29552   0.32146   0.00000  Uiso   1.00
H292   H     0.68957   0.32442   0.29857   0.00000  Uiso   1.00
O293   O     0.99743   0.12853   0.20338   0.00000  Uiso   1.00
C294   C     0.99323   0.07502   0.20523   0.00000  Uiso   1.00
H295   H     0.94685   0.05477   0.20099   0.00000  Uiso   1.00
H296   H     0.99867   0.06244   0.23653   0.00000  Uiso   1.00
C297   C     0.70488   0.05730   0.16675   0.00000  Uiso   1.00
H298   H     0.75276   0.07026   0.17082   0.00000  Uiso   1.00
H299   H     0.69335   0.01445   0.16313   0.00000  Uiso   1.00
H300   H     0.70112   0.07426   0.13718   0.00000  Uiso   1.00
C301   C     0.18091   0.59969   0.25245   0.00000  Uiso   1.00
C302   C     0.15227   0.40024   0.24793   0.00000  Uiso   1.00
C303   C     0.09517   0.48822   0.04310   0.00000  Uiso   1.00
C304   C     0.24088   0.52590   0.45942   0.00000  Uiso   1.00
C305   C     0.05434   0.46331   0.01687   0.00000  Uiso   1.00
C306   C     0.28013   0.55184   0.48612   0.00000  Uiso   1.00
C307   C     0.18546   0.65552   0.25835   0.00000  Uiso   1.00
C308   C     0.14775   0.34432   0.24243   0.00000  Uiso   1.00
C309   C     0.12846   0.49560   0.33301   0.00000  Uiso   1.00
C310   C     0.20482   0.50516   0.16709   0.00000  Uiso   1.00
C311   C     0.10484   0.49023   0.38100   0.00000  Uiso   1.00
C312   C     0.22848   0.51606   0.11995   0.00000  Uiso   1.00
C313   C     0.02746   0.45322   0.44498   0.00000  Uiso   1.00
C314   C     0.30467   0.56130   0.05904   0.00000  Uiso   1.00
C315   C     0.04610   0.45985   0.39930   0.00000  Uiso   1.00
C316   C     0.28428   0.55231   0.10436   0.00000  Uiso   1.00
C317   C     0.14343   0.51419   0.40900   0.00000  Uiso   1.00
C318   C     0.19351   0.49166   0.09001   0.00000  Uiso   1.00
C319   C     0.13121   0.49785   0.45234   0.00000  Uiso   1.00
C320   C     0.20405   0.51357   0.04881   0.00000  Uiso   1.00
C321   C     0.07064   0.47085   0.47141   0.00000  Uiso   1.00
C322   C     0.26337   0.54327   0.03133   0.00000  Uiso   1.00
C323   C     0.17687   0.50942   0.47782   0.00000  Uiso   1.00
C324   C     0.15839   0.50391   0.02362   0.00000  Uiso   1.00
Cu325  Cu    0.10737   0.49441   0.24517   0.00000  Uiso   1.00
Cu326  Cu    0.22596   0.50559   0.25483   0.00000  Uiso   1.00
N327   N     0.31506   0.51401   0.26212   0.00000  Uiso   1.00
N328   N     0.01827   0.48599   0.23788   0.00000  Uiso   1.00
O329   O     0.12815   0.57142   0.24686   0.00000  Uiso   1.00
O330   O     0.20518   0.42858   0.25314   0.00000  Uiso   1.00
O331   O     0.22829   0.58086   0.25502   0.00000  Uiso   1.00
O332   O     0.10504   0.41914   0.24498   0.00000  Uiso   1.00
O333   O     0.08851   0.49263   0.30855   0.00000  Uiso   1.00
O334   O     0.24482   0.50737   0.19145   0.00000  Uiso   1.00
O335   O     0.18866   0.50207   0.31671   0.00000  Uiso   1.00
O336   O     0.14468   0.49793   0.18329   0.00000  Uiso   1.00
O337   O     0.33285   0.43063   0.03601   0.00000  Uiso   1.00
C338   C     0.01399   0.38599   0.04891   0.00000  Uiso   1.00
H339   H     0.05123   0.39608   0.06654   0.00000  Uiso   1.00
H340   H     0.02907   0.36115   0.02015   0.00000  Uiso   1.00
C341   C     0.29251   0.35491   0.07998   0.00000  Uiso   1.00
H342   H     0.25995   0.66507   0.06119   0.00000  Uiso   1.00
H343   H     0.30827   0.66127   0.09727   0.00000  Uiso   1.00
H344   H     0.27010   0.38095   0.10509   0.00000  Uiso   1.00
O345   O     0.00245   0.58348   0.46729   0.00000  Uiso   1.00
C346   C     0.32211   0.62655   0.45131   0.00000  Uiso   1.00
H347   H     0.29541   0.64821   0.47816   0.00000  Uiso   1.00
H348   H     0.29529   0.61411   0.42583   0.00000  Uiso   1.00
C349   C     0.04744   0.66287   0.42972   0.00000  Uiso   1.00
H350   H     0.06990   0.64398   0.39982   0.00000  Uiso   1.00
H351   H     0.03547   0.36287   0.41851   0.00000  Uiso   1.00
H352   H     0.07936   0.34232   0.45194   0.00000  Uiso   1.00
O353   O     0.15304   0.44430   0.10023   0.00000  Uiso   1.00
C354   C     0.17038   0.40539   0.06868   0.00000  Uiso   1.00
H355   H     0.22102   0.41035   0.05810   0.00000  Uiso   1.00
H356   H     0.15331   0.40658   0.03883   0.00000  Uiso   1.00
C357   C     0.14386   0.35169   0.08723   0.00000  Uiso   1.00
H358   H     0.15903   0.65516   0.06270   0.00000  Uiso   1.00
H359   H     0.15906   0.34890   0.11765   0.00000  Uiso   1.00
H360   H     0.09299   0.34286   0.09448   0.00000  Uiso   1.00
O361   O     0.18891   0.55796   0.39589   0.00000  Uiso   1.00
C362   C     0.15916   0.59959   0.39830   0.00000  Uiso   1.00
H363   H     0.12434   0.60008   0.42983   0.00000  Uiso   1.00
H364   H     0.13720   0.59614   0.37000   0.00000  Uiso   1.00
C365   C     0.20440   0.65156   0.39636   0.00000  Uiso   1.00
H366   H     0.24172   0.65274   0.36670   0.00000  Uiso   1.00
H367   H     0.18050   0.34980   0.39472   0.00000  Uiso   1.00
H368   H     0.22316   0.65901   0.42612   0.00000  Uiso   1.00
O369   O     0.32018   0.57891   0.13205   0.00000  Uiso   1.00
H370   H     0.29228   0.58891   0.15916   0.00000  Uiso   1.00
O371   O     0.00788   0.43327   0.37322   0.00000  Uiso   1.00
H372   H     0.33080   0.45939   0.35748   0.00000  Uiso   1.00
O373   O     0.30155   0.42757   0.46412   0.00000  Uiso   1.00
H374   H     0.27590   0.41904   0.44223   0.00000  Uiso   1.00
O375   O     0.02994   0.58937   0.04174   0.00000  Uiso   1.00
H376   H     0.05586   0.59234   0.06321   0.00000  Uiso   1.00
O377   O     0.07448   0.49570   0.08775   0.00000  Uiso   1.00
H378   H     0.02896   0.48447   0.09600   0.00000  Uiso   1.00
O379   O     0.26770   0.51631   0.41627   0.00000  Uiso   1.00
H380   H     0.24251   0.48414   0.40598   0.00000  Uiso   1.00
O381   O     0.22415   0.35137   0.28344   0.00000  Uiso   1.00
H382   H     0.24773   0.66238   0.29267   0.00000  Uiso   1.00
O383   O     0.10789   0.64792   0.21849   0.00000  Uiso   1.00
H384   H     0.07711   0.33409   0.21585   0.00000  Uiso   1.00
O385   O     0.01260   0.56182   0.27053   0.00000  Uiso   1.00
C386   C     0.32110   0.57676   0.31362   0.00000  Uiso   1.00
H387   H     0.32551   0.54956   0.33693   0.00000  Uiso   1.00
H388   H     0.27217   0.57893   0.31832   0.00000  Uiso   1.00
C389   C     0.02414   0.63041   0.32282   0.00000  Uiso   1.00
H390   H     0.00401   0.64516   0.35553   0.00000  Uiso   1.00
H391   H     0.07267   0.62886   0.32146   0.00000  Uiso   1.00
H392   H     0.02290   0.65775   0.29857   0.00000  Uiso   1.00
O393   O     0.33076   0.46186   0.20338   0.00000  Uiso   1.00
C394   C     0.32656   0.40836   0.20523   0.00000  Uiso   1.00
H395   H     0.28018   0.38811   0.20099   0.00000  Uiso   1.00
H396   H     0.33201   0.39577   0.23653   0.00000  Uiso   1.00
C397   C     0.03821   0.39064   0.16675   0.00000  Uiso   1.00
H398   H     0.08609   0.40359   0.17082   0.00000  Uiso   1.00
H399   H     0.02668   0.34778   0.16313   0.00000  Uiso   1.00
H400   H     0.03445   0.40759   0.13718   0.00000  Uiso   1.00
C401   C     0.51424   0.59969   0.25245   0.00000  Uiso   1.00
C402   C     0.48560   0.40024   0.24793   0.00000  Uiso   1.00
C403   C     0.42850   0.48822   0.04310   0.00000  Uiso   1.00
C404   C     0.57421   0.52590   0.45942   0.00000  Uiso   1.00
C405   C     0.38767   0.46331   0.01687   0.00000  Uiso   1.00
C406   C     0.61347   0.55184   0.48612   0.00000  Uiso   1.00
C407   C     0.51879   0.65552   0.25835   0.00000  Uiso   1.00
C408   C     0.48108   0.34432   0.24243   0.00000  Uiso   1.00
C409   C     0.46179   0.49560   0.33301   0.00000  Uiso   1.00
C410   C     0.53815   0.50516   0.16709   0.00000  Uiso   1.00
C411   C     0.43818   0.49023   0.38100   0.00000  Uiso   1.00
C412   C     0.56181   0.51606   0.11995   0.00000  Uiso   1.00
C413   C     0.36079   0.45322   0.44498   0.00000  Uiso   1.00
C414   C     0.63800   0.56130   0.05904   0.00000  Uiso   1.00
C415   C     0.37943   0.45985   0.39930   0.00000  Uiso   1.00
C416   C     0.61761   0.55231   0.10436   0.00000  Uiso   1.00
C417   C     0.47676   0.51419   0.40900   0.00000  Uiso   1.00
C418   C     0.52684   0.49166   0.09001   0.00000  Uiso   1.00
C419   C     0.46454   0.49785   0.45234   0.00000  Uiso   1.00
C420   C     0.53738   0.51357   0.04881   0.00000  Uiso   1.00
C421   C     0.40397   0.47085   0.47141   0.00000  Uiso   1.00
C422   C     0.59670   0.54327   0.03133   0.00000  Uiso   1.00
C423   C     0.51020   0.50942   0.47782   0.00000  Uiso   1.00
C424   C     0.49173   0.50391   0.02362   0.00000  Uiso   1.00
Cu425  Cu    0.44071   0.49441   0.24517   0.00000  Uiso   1.00
Cu426  Cu    0.55929   0.50559   0.25483   0.00000  Uiso   1.00
N427   N     0.64839   0.51401   0.26212   0.00000  Uiso   1.00
N428   N     0.35161   0.48599   0.23788   0.00000  Uiso   1.00
O429   O     0.46148   0.57142   0.24686   0.00000  Uiso   1.00
O430   O     0.53852   0.42858   0.25314   0.00000  Uiso   1.00
O431   O     0.56163   0.58086   0.25502   0.00000  Uiso   1.00
O432   O     0.43837   0.41914   0.24498   0.00000  Uiso   1.00
O433   O     0.42185   0.49263   0.30855   0.00000  Uiso   1.00
O434   O     0.57815   0.50737   0.19145   0.00000  Uiso   1.00
O435   O     0.52199   0.50207   0.31671   0.00000  Uiso   1.00
O436   O     0.47801   0.49793   0.18329   0.00000  Uiso   1.00
O437   O     0.66619   0.43063   0.03601   0.00000  Uiso   1.00
C438   C     0.34732   0.38599   0.04891   0.00000  Uiso   1.00
H439   H     0.38456   0.39608   0.06654   0.00000  Uiso   1.00
H440   H     0.36241   0.36115   0.02015   0.00000  Uiso   1.00
C441   C     0.62584   0.35491   0.07998   0.00000  Uiso   1.00
H442   H     0.59328   0.66507   0.06119   0.00000  Uiso   1.00
H443   H     0.64161   0.66127   0.09727   0.00000  Uiso   1.00
H444   H     0.60343   0.38095   0.10509   0.00000  Uiso   1.00
O445   O     0.33579   0.58348   0.46729   0.00000  Uiso   1.00
C446   C     0.65545   0.62655   0.45131   0.00000  Uiso   1.00
H447   H     0.62875   0.64821   0.47816   0.00000  Uiso   1.00
H448   H     0.62862   0.61411   0.42583   0.00000  Uiso   1.00
C449   C     0.38077   0.66287   0.42972   0.00000  Uiso   1.00
H450   H     0.40323   0.64398   0.39982   0.00000  Uiso   1.00
H451   H     0.36880   0.36287   0.41851   0.00000  Uiso   1.00
H452   H     0.41269   0.34232   0.45194   0.00000  Uiso   1.00
O453   O     0.48637   0.44430   0.10023   0.00000  Uiso   1.00
C454   C     0.50371   0.40539   0.06868   0.00000  Uiso   1.00
H455   H     0.55436   0.41035   0.05810   0.00000  Uiso   1.00
H456   H     0.48664   0.40658   0.03883   0.00000  Uiso   1.00
C457   C     0.47719   0.35169   0.08723   0.00000  Uiso   1.00
H458   H     0.49237   0.65516   0.06270   0.00000  Uiso   1.00
H459   H     0.49240   0.34890   0.11765   0.00000  Uiso   1.00
H460   H     0.42632   0.34286   0.09448   0.00000  Uiso   1.00
O461   O     0.52225   0.55796   0.39589   0.00000  Uiso   1.00
C462   C     0.49250   0.59959   0.39830   0.00000  Uiso   1.00
H463   H     0.45767   0.60008   0.42983   0.00000  Uiso   1.00
H464   H     0.47053   0.59614   0.37000   0.00000  Uiso   1.00
C465   C     0.53774   0.65156   0.39636   0.00000  Uiso   1.00
H466   H     0.57505   0.65274   0.36670   0.00000  Uiso   1.00
H467   H     0.51384   0.34980   0.39472   0.00000  Uiso   1.00
H468   H     0.55649   0.65901   0.42612   0.00000  Uiso   1.00
O469   O     0.65351   0.57891   0.13205   0.00000  Uiso   1.00
H470   H     0.62561   0.58891   0.15916   0.00000  Uiso   1.00
O471   O     0.34122   0.43327   0.37322   0.00000  Uiso   1.00
H472   H     0.66413   0.45939   0.35748   0.00000  Uiso   1.00
O473   O     0.63488   0.42757   0.46412   0.00000  Uiso   1.00
H474   H     0.60923   0.41904   0.44223   0.00000  Uiso   1.00
O475   O     0.36327   0.58937   0.04174   0.00000  Uiso   1.00
H476   H     0.38919   0.59234   0.06321   0.00000  Uiso   1.00
O477   O     0.40782   0.49570   0.08775   0.00000  Uiso   1.00
H478   H     0.36229   0.48447   0.09600   0.00000  Uiso   1.00
O479   O     0.60103   0.51631   0.41627   0.00000  Uiso   1.00
H480   H     0.57585   0.48414   0.40598   0.00000  Uiso   1.00
O481   O     0.55748   0.35137   0.28344   0.00000  Uiso   1.00
H482   H     0.58107   0.66238   0.29267   0.00000  Uiso   1.00
O483   O     0.44122   0.64792   0.21849   0.00000  Uiso   1.00
H484   H     0.41044   0.33409   0.21585   0.00000  Uiso   1.00
O485   O     0.34593   0.56182   0.27053   0.00000  Uiso   1.00
C486   C     0.65444   0.57676   0.31362   0.00000  Uiso   1.00
H487   H     0.65885   0.54956   0.33693   0.00000  Uiso   1.00
H488   H     0.60550   0.57893   0.31832   0.00000  Uiso   1.00
C489   C     0.35748   0.63041   0.32282   0.00000  Uiso   1.00
H490   H     0.33734   0.64516   0.35553   0.00000  Uiso   1.00
H491   H     0.40600   0.62886   0.32146   0.00000  Uiso   1.00
H492   H     0.35624   0.65775   0.29857   0.00000  Uiso   1.00
O493   O     0.66410   0.46186   0.20338   0.00000  Uiso   1.00
C494   C     0.65990   0.40836   0.20523   0.00000  Uiso   1.00
H495   H     0.61351   0.38811   0.20099   0.00000  Uiso   1.00
H496   H     0.66534   0.39577   0.23653   0.00000  Uiso   1.00
C497   C     0.37155   0.39064   0.16675   0.00000  Uiso   1.00
H498   H     0.41942   0.40359   0.17082   0.00000  Uiso   1.00
H499   H     0.36001   0.34778   0.16313   0.00000  Uiso   1.00
H500   H     0.36778   0.40759   0.13718   0.00000  Uiso   1.00
C501   C     0.84758   0.59969   0.25245   0.00000  Uiso   1.00
C502   C     0.81894   0.40024   0.24793   0.00000  Uiso   1.00
C503   C     0.76184   0.48822   0.04310   0.00000  Uiso   1.00
C504   C     0.90754   0.52590   0.45942   0.00000  Uiso   1.00
C505   C     0.72101   0.46331   0.01687   0.00000  Uiso   1.00
C506   C     0.94680   0.55184   0.48612   0.00000  Uiso   1.00
C507   C     0.85213   0.65552   0.25835   0.00000  Uiso   1.00
C508   C     0.81442   0.34432   0.24243   0.00000  Uiso   1.00
C509   C     0.79512   0.49560   0.33301   0.00000  Uiso   1.00
C510   C     0.87149   0.50516   0.16709   0.00000  Uiso   1.00
C511   C     0.77151   0.49023   0.38100   0.00000  Uiso   1.00
C512   C     0.89515   0.51606   0.11995   0.00000  Uiso   1.00
C513   C     0.69412   0.45322   0.44498   0.00000  Uiso   1.00
C514   C     0.97133   0.56130   0.05904   0.00000  Uiso   1.00
C515   C     0.71276   0.45985   0.39930   0.00000  Uiso   1.00
C516   C     0.95094   0.55231   0.10436   0.00000  Uiso   1.00
C517   C     0.81010   0.51419   0.40900   0.00000  Uiso   1.00
C518   C     0.86018   0.49166   0.09001   0.00000  Uiso   1.00
C519   C     0.79788   0.49785   0.45234   0.00000  Uiso   1.00
C520   C     0.87071   0.51357   0.04881   0.00000  Uiso   1.00
C521   C     0.73730   0.47085   0.47141   0.00000  Uiso   1.00
C522   C     0.93003   0.54327   0.03133   0.00000  Uiso   1.00
C523   C     0.84353   0.50942   0.47782   0.00000  Uiso   1.00
C524   C     0.82506   0.50391   0.02362   0.00000  Uiso   1.00
Cu525  Cu    0.77404   0.49441   0.24517   0.00000  Uiso   1.00
Cu526  Cu    0.89263   0.50559   0.25483   0.00000  Uiso   1.00
N527   N     0.98173   0.51401   0.26212   0.00000  Uiso   1.00
N528   N     0.68494   0.48599   0.23788   0.00000  Uiso   1.00
O529   O     0.79482   0.57142   0.24686   0.00000  Uiso   1.00
O530   O     0.87185   0.42858   0.25314   0.00000  Uiso   1.00
O531   O     0.89496   0.58086   0.25502   0.00000  Uiso   1.00
O532   O     0.77171   0.41914   0.24498   0.00000  Uiso   1.00
O533   O     0.75518   0.49263   0.30855   0.00000  Uiso   1.00
O534   O     0.91149   0.50737   0.19145   0.00000  Uiso   1.00
O535   O     0.85532   0.50207   0.31671   0.00000  Uiso   1.00
O536   O     0.81134   0.49793   0.18329   0.00000  Uiso   1.00
O537   O     0.99952   0.43063   0.03601   0.00000  Uiso   1.00
C538   C     0.68065   0.38599   0.04891   0.00000  Uiso   1.00
H539   H     0.71789   0.39608   0.06654   0.00000  Uiso   1.00
H540   H     0.69574   0.36115   0.02015   0.00000  Uiso   1.00
C541   C     0.95917   0.35491   0.07998   0.00000  Uiso   1.00
H542   H     0.92662   0.66507   0.06119   0.00000  Uiso   1.00
H543   H     0.97494   0.66127   0.09727   0.00000  Uiso   1.00
H544   H     0.93676   0.38095   0.10509   0.00000  Uiso   1.00
O545   O     0.66912   0.58348   0.46729   0.00000  Uiso   1.00
C546   C     0.98878   0.62655   0.45131   0.00000  Uiso   1.00
H547   H     0.96208   0.64821   0.47816   0.00000  Uiso   1.00
H548   H     0.96195   0.61411   0.42583   0.00000  Uiso   1.00
C549   C     0.71410   0.66287   0.42972   0.00000  Uiso   1.00
H550   H     0.73656   0.64398   0.39982   0.00000  Uiso   1.00
H551   H     0.70213   0.36287   0.41851   0.00000  Uiso   1.00
H552   H     0.74603   0.34232   0.45194   0.00000  Uiso   1.00
O553   O     0.81971   0.44430   0.10023   0.00000  Uiso   1.00
C554   C     0.83705   0.40539   0.06868   0.00000  Uiso   1.00
H555   H     0.88769   0.41035   0.05810   0.00000  Uiso   1.00
H556   H     0.81997   0.40658   0.03883   0.00000  Uiso   1.00
C557   C     0.81052   0.35169   0.08723   0.00000  Uiso   1.00
H558   H     0.82570   0.65516   0.06270   0.00000  Uiso   1.00
H559   H     0.82573   0.34890   0.11765   0.00000  Uiso   1.00
H560   H     0.75965   0.34286   0.09448   0.00000  Uiso   1.00
O561   O     0.85558   0.55796   0.39589   0.00000  Uiso   1.00
C562   C     0.82583   0.59959   0.39830   0.00000  Uiso   1.00
H563   H     0.79101   0.60008   0.42983   0.00000  Uiso   1.00
H564   H     0.80386   0.59614   0.37000   0.00000  Uiso   1.00
C565   C     0.87107   0.65156   0.39636   0.00000  Uiso   1.00
H566   H     0.90839   0.65274   0.36670   0.00000  Uiso   1.00
H567   H     0.84717   0.34980   0.39472   0.00000  Uiso   1.00
H568   H     0.88982   0.65901   0.42612   0.00000  Uiso   1.00
O569   O     0.98685   0.57891   0.13205   0.00000  Uiso   1.00
H570   H     0.95894   0.58891   0.15916   0.00000  Uiso   1.00
O571   O     0.67455   0.43327   0.37322   0.00000  Uiso   1.00
H572   H     0.99746   0.45939   0.35748   0.00000  Uiso   1.00
O573   O     0.96822   0.42757   0.46412   0.00000  Uiso   1.00
H574   H     0.94256   0.41904   0.44223   0.00000  Uiso   1.00
O575   O     0.69660   0.58937   0.04174   0.00000  Uiso   1.00
H576   H     0.72252   0.59234   0.06321   0.00000  Uiso   1.00
O577   O     0.74115   0.49570   0.08775   0.00000  Uiso   1.00
H578   H     0.69563   0.48447   0.09600   0.00000  Uiso   1.00
O579   O     0.93437   0.51631   0.41627   0.00000  Uiso   1.00
H580   H     0.90918   0.48414   0.40598   0.00000  Uiso   1.00
O581   O     0.89081   0.35137   0.28344   0.00000  Uiso   1.00
H582   H     0.91440   0.66238   0.29267   0.00000  Uiso   1.00
O583   O     0.77455   0.64792   0.21849   0.00000  Uiso   1.00
H584   H     0.74377   0.33409   0.21585   0.00000  Uiso   1.00
O585   O     0.67926   0.56182   0.27053   0.00000  Uiso   1.00
C586   C     0.98777   0.57676   0.31362   0.00000  Uiso   1.00
H587   H     0.99218   0.54956   0.33693   0.00000  Uiso   1.00
H588   H     0.93883   0.57893   0.31832   0.00000  Uiso   1.00
C589   C     0.69081   0.63041   0.32282   0.00000  Uiso   1.00
H590   H     0.67068   0.64516   0.35553   0.00000  Uiso   1.00
H591   H     0.73934   0.62886   0.32146   0.00000  Uiso   1.00
H592   H     0.68957   0.65775   0.29857   0.00000  Uiso   1.00
O593   O     0.99743   0.46186   0.20338   0.00000  Uiso   1.00
C594   C     0.99323   0.40836   0.20523   0.00000  Uiso   1.00
H595   H     0.94685   0.38811   0.20099   0.00000  Uiso   1.00
H596   H     0.99867   0.39577   0.23653   0.00000  Uiso   1.00
C597   C     0.70488   0.39064   0.16675   0.00000  Uiso   1.00
H598   H     0.75276   0.40359   0.17082   0.00000  Uiso   1.00
H599   H     0.69335   0.34778   0.16313   0.00000  Uiso   1.00
H600   H     0.70112   0.40759   0.13718   0.00000  Uiso   1.00
C601   C     0.18091   0.93302   0.25245   0.00000  Uiso   1.00
C602   C     0.15227   0.73357   0.24793   0.00000  Uiso   1.00
C603   C     0.09517   0.82156   0.04310   0.00000  Uiso   1.00
C604   C     0.24088   0.85923   0.45942   0.00000  Uiso   1.00
C605   C     0.05434   0.79664   0.01687   0.00000  Uiso   1.00
C606   C     0.28013   0.88517   0.48612   0.00000  Uiso   1.00
C607   C     0.18546   0.98885   0.25835   0.00000  Uiso   1.00
C608   C     0.14775   0.67765   0.24243   0.00000  Uiso   1.00
C609   C     0.12846   0.82893   0.33301   0.00000  Uiso   1.00
C610   C     0.20482   0.83849   0.16709   0.00000  Uiso   1.00
C611   C     0.10484   0.82356   0.38100   0.00000  Uiso   1.00
C612   C     0.22848   0.84940   0.11995   0.00000  Uiso   1.00
C613   C     0.02746   0.78655   0.44498   0.00000  Uiso   1.00
C614   C     0.30467   0.89464   0.05904   0.00000  Uiso   1.00
C615   C     0.04610   0.79318   0.39930   0.00000  Uiso   1.00
C616   C     0.28428   0.88564   0.10436   0.00000  Uiso   1.00
C617   C     0.14343   0.84753   0.40900   0.00000  Uiso   1.00
C618   C     0.19351   0.82500   0.09001   0.00000  Uiso   1.00
C619   C     0.13121   0.83118   0.45234   0.00000  Uiso   1.00
C620   C     0.20405   0.84691   0.04881   0.00000  Uiso   1.00
C621   C     0.07064   0.80418   0.47141   0.00000  Uiso   1.00
C622   C     0.26337   0.87660   0.03133   0.00000  Uiso   1.00
C623   C     0.17687   0.84276   0.47782   0.00000  Uiso   1.00
C624   C     0.15839   0.83724   0.02362   0.00000  Uiso   1.00
Cu625  Cu    0.10737   0.82775   0.24517   0.00000  Uiso   1.00
Cu626  Cu    0.22596   0.83892   0.25483   0.00000  Uiso   1.00
N627   N     0.31506   0.84735   0.26212   0.00000  Uiso   1.00
N628   N     0.01827   0.81932   0.23788   0.00000  Uiso   1.00
O629   O     0.12815   0.90476   0.24686   0.00000  Uiso   1.00
O630   O     0.20518   0.76191   0.25314   0.00000  Uiso   1.00
O631   O     0.22829   0.91420   0.25502   0.00000  Uiso   1.00
O632   O     0.10504   0.75247   0.24498   0.00000  Uiso   1.00
O633   O     0.08851   0.82597   0.30855   0.00000  Uiso   1.00
O634   O     0.24482   0.84070   0.19145   0.00000  Uiso   1.00
O635   O     0.18866   0.83540   0.31671   0.00000  Uiso   1.00
O636   O     0.14468   0.83126   0.18329   0.00000  Uiso   1.00
O637   O     0.33285   0.76396   0.03601   0.00000  Uiso   1.00
C638   C     0.01399   0.71932   0.04891   0.00000  Uiso   1.00
H639   H     0.05123   0.72941   0.06654   0.00000  Uiso   1.00
H640   H     0.02907   0.69449   0.02015   0.00000  Uiso   1.00
C641   C     0.29251   0.68825   0.07998   0.00000  Uiso   1.00
H642   H     0.25995   0.99841   0.06119   0.00000  Uiso   1.00
H643   H     0.30827   0.99461   0.09727   0.00000  Uiso   1.00
H644   H     0.27010   0.71429   0.10509   0.00000  Uiso   1.00
O645   O     0.00245   0.91682   0.46729   0.00000  Uiso   1.00
C646   C     0.32211   0.95988   0.45131   0.00000  Uiso   1.00
H647   H     0.29541   0.98155   0.47816   0.00000  Uiso   1.00
H648   H     0.29529   0.94745   0.42583   0.00000  Uiso   1.00
C649   C     0.04744   0.99620   0.42972   0.00000  Uiso   1.00
H650   H     0.06990   0.97731   0.39982   0.00000  Uiso   1.00
H651   H     0.03547   0.69621   0.41851   0.00000  Uiso   1.00
H652   H     0.07936   0.67565   0.45194   0.00000  Uiso   1.00
O653   O     0.15304   0.77763   0.10023   0.00000  Uiso   1.00
C654   C     0.17038   0.73872   0.06868   0.00000  Uiso   1.00
H655   H     0.22102   0.74369   0.05810   0.00000  Uiso   1.00
H656   H     0.15331   0.73992   0.03883   0.00000  Uiso   1.00
C657   C     0.14386   0.68503   0.08723   0.00000  Uiso   1.00
H658   H     0.15903   0.98850   0.06270   0.00000  Uiso   1.00
H659   H     0.15906   0.68223   0.11765   0.00000  Uiso   1.00
H660   H     0.09299   0.67619   0.09448   0.00000  Uiso   1.00
O661   O     0.18891   0.89129   0.39589   0.00000  Uiso   1.00
C662   C     0.15916   0.93292   0.39830   0.00000  Uiso   1.00
H663   H     0.12434   0.93341   0.42983   0.00000  Uiso   1.00
H664   H     0.13720   0.92947   0.37000   0.00000  Uiso   1.00
C665   C     0.20440   0.98489   0.39636   0.00000  Uiso   1.00
H666   H     0.24172   0.98608   0.36670   0.00000  Uiso   1.00
H667   H     0.18050   0.68313   0.39472   0.00000  Uiso   1.00
H668   H     0.22316   0.99234   0.42612   0.00000  Uiso   1.00
O669   O     0.32018   0.91224   0.13205   0.00000  Uiso   1.00
H670   H     0.29228   0.92225   0.15916   0.00000  Uiso   1.00
O671   O     0.00788   0.76661   0.37322   0.00000  Uiso   1.00
H672   H     0.33080   0.79272   0.35748   0.00000  Uiso   1.00
O673   O     0.30155   0.76090   0.46412   0.00000  Uiso   1.00
H674   H     0.27590   0.75238   0.44223   0.00000  Uiso   1.00
O675   O     0.02994   0.92271   0.04174   0.00000  Uiso   1.00
H676   H     0.05586   0.92567   0.06321   0.00000  Uiso   1.00
O677   O     0.07448   0.82903   0.08775   0.00000  Uiso   1.00
H678   H     0.02896   0.81781   0.09600   0.00000  Uiso   1.00
O679   O     0.26770   0.84964   0.41627   0.00000  Uiso   1.00
H680   H     0.24251   0.81747   0.40598   0.00000  Uiso   1.00
O681   O     0.22415   0.68471   0.28344   0.00000  Uiso   1.00
H682   H     0.24773   0.99571   0.29267   0.00000  Uiso   1.00
O683   O     0.10789   0.98125   0.21849   0.00000  Uiso   1.00
H684   H     0.07711   0.66742   0.21585   0.00000  Uiso   1.00
O685   O     0.01260   0.89515   0.27053   0.00000  Uiso   1.00
C686   C     0.32110   0.91010   0.31362   0.00000  Uiso   1.00
H687   H     0.32551   0.88289   0.33693   0.00000  Uiso   1.00
H688   H     0.27217   0.91227   0.31832   0.00000  Uiso   1.00
C689   C     0.02414   0.96375   0.32282   0.00000  Uiso   1.00
H690   H     0.00401   0.97850   0.35553   0.00000  Uiso   1.00
H691   H     0.07267   0.96219   0.32146   0.00000  Uiso   1.00
H692   H     0.02290   0.99108   0.29857   0.00000  Uiso   1.00
O693   O     0.33076   0.79520   0.20338   0.00000  Uiso   1.00
C694   C     0.32656   0.74169   0.20523   0.00000  Uiso   1.00
H695   H     0.28018   0.72144   0.20099   0.00000  Uiso   1.00
H696   H     0.33201   0.72911   0.23653   0.00000  Uiso   1.00
C697   C     0.03821   0.72397   0.16675   0.00000  Uiso   1.00
H698   H     0.08609   0.73693   0.17082   0.00000  Uiso   1.00
H699   H     0.02668   0.68111   0.16313   0.00000  Uiso   1.00
H700   H     0.03445   0.74093   0.13718   0.00000  Uiso   1.00
C701   C     0.51424   0.93302   0.25245   0.00000  Uiso   1.00
C702   C     0.48560   0.73357   0.24793   0.00000  Uiso   1.00
C703   C     0.42850   0.82156   0.04310   0.00000  Uiso   1.00
C704   C     0.57421   0.85923   0.45942   0.00000  Uiso   1.00
C705   C     0.38767   0.79664   0.01687   0.00000  Uiso   1.00
C706   C     0.61347   0.88517   0.48612   0.00000  Uiso   1.00
C707   C     0.51879   0.98885   0.25835   0.00000  Uiso   1.00
C708   C     0.48108   0.67765   0.24243   0.00000  Uiso   1.00
C709   C     0.46179   0.82893   0.33301   0.00000  Uiso   1.00
C710   C     0.53815   0.83849   0.16709   0.00000  Uiso   1.00
C711   C     0.43818   0.82356   0.38100   0.00000  Uiso   1.00
C712   C     0.56181   0.84940   0.11995   0.00000  Uiso   1.00
C713   C     0.36079   0.78655   0.44498   0.00000  Uiso   1.00
C714   C     0.63800   0.89464   0.05904   0.00000  Uiso   1.00
C715   C     0.37943   0.79318   0.39930   0.00000  Uiso   1.00
C716   C     0.61761   0.88564   0.10436   0.00000  Uiso   1.00
C717   C     0.47676   0.84753   0.40900   0.00000  Uiso   1.00
C718   C     0.52684   0.82500   0.09001   0.00000  Uiso   1.00
C719   C     0.46454   0.83118   0.45234   0.00000  Uiso   1.00
C720   C     0.53738   0.84691   0.04881   0.00000  Uiso   1.00
C721   C     0.40397   0.80418   0.47141   0.00000  Uiso   1.00
C722   C     0.59670   0.87660   0.03133   0.00000  Uiso   1.00
C723   C     0.51020   0.84276   0.47782   0.00000  Uiso   1.00
C724   C     0.49173   0.83724   0.02362   0.00000  Uiso   1.00
Cu725  Cu    0.44071   0.82775   0.24517   0.00000  Uiso   1.00
Cu726  Cu    0.55929   0.83892   0.25483   0.00000  Uiso   1.00
N727   N     0.64839   0.84735   0.26212   0.00000  Uiso   1.00
N728   N     0.35161   0.81932   0.23788   0.00000  Uiso   1.00
O729   O     0.46148   0.90476   0.24686   0.00000  Uiso   1.00
O730   O     0.53852   0.76191   0.25314   0.00000  Uiso   1.00
O731   O     0.56163   0.91420   0.25502   0.00000  Uiso   1.00
O732   O     0.43837   0.75247   0.24498   0.00000  Uiso   1.00
O733   O     0.42185   0.82597   0.30855   0.00000  Uiso   1.00
O734   O     0.57815   0.84070   0.19145   0.00000  Uiso   1.00
O735   O     0.52199   0.83540   0.31671   0.00000  Uiso   1.00
O736   O     0.47801   0.83126   0.18329   0.00000  Uiso   1.00
O737   O     0.66619   0.76396   0.03601   0.00000  Uiso   1.00
C738   C     0.34732   0.71932   0.04891   0.00000  Uiso   1.00
H739   H     0.38456   0.72941   0.06654   0.00000  Uiso   1.00
H740   H     0.36241   0.69449   0.02015   0.00000  Uiso   1.00
C741   C     0.62584   0.68825   0.07998   0.00000  Uiso   1.00
H742   H     0.59328   0.99841   0.06119   0.00000  Uiso   1.00
H743   H     0.64161   0.99461   0.09727   0.00000  Uiso   1.00
H744   H     0.60343   0.71429   0.10509   0.00000  Uiso   1.00
O745   O     0.33579   0.91682   0.46729   0.00000  Uiso   1.00
C746   C     0.65545   0.95988   0.45131   0.00000  Uiso   1.00
H747   H     0.62875   0.98155   0.47816   0.00000  Uiso   1.00
H748   H     0.62862   0.94745   0.42583   0.00000  Uiso   1.00
C749   C     0.38077   0.99620   0.42972   0.00000  Uiso   1.00
H750   H     0.40323   0.97731   0.39982   0.00000  Uiso   1.00
H751   H     0.36880   0.69621   0.41851   0.00000  Uiso   1.00
H752   H     0.41269   0.67565   0.45194   0.00000  Uiso   1.00
O753   O     0.48637   0.77763   0.10023   0.00000  Uiso   1.00
C754   C     0.50371   0.73872   0.06868   0.00000  Uiso   1.00
H755   H     0.55436   0.74369   0.05810   0.00000  Uiso   1.00
H756   H     0.48664   0.73992   0.03883   0.00000  Uiso   1.00
C757   C     0.47719   0.68503   0.08723   0.00000  Uiso   1.00
H758   H     0.49237   0.98850   0.06270   0.00000  Uiso   1.00
H759   H     0.49240   0.68223   0.11765   0.00000  Uiso   1.00
H760   H     0.42632   0.67619   0.09448   0.00000  Uiso   1.00
O761   O     0.52225   0.89129   0.39589   0.00000  Uiso   1.00
C762   C     0.49250   0.93292   0.39830   0.00000  Uiso   1.00
H763   H     0.45767   0.93341   0.42983   0.00000  Uiso   1.00
H764   H     0.47053   0.92947   0.37000   0.00000  Uiso   1.00
C765   C     0.53774   0.98489   0.39636   0.00000  Uiso   1.00
H766   H     0.57505   0.98608   0.36670   0.00000  Uiso   1.00
H767   H     0.51384   0.68313   0.39472   0.00000  Uiso   1.00
H768   H     0.55649   0.99234   0.42612   0.00000  Uiso   1.00
O769   O     0.65351   0.91224   0.13205   0.00000  Uiso   1.00
H770   H     0.62561   0.92225   0.15916   0.00000  Uiso   1.00
O771   O     0.34122   0.76661   0.37322   0.00000  Uiso   1.00
H772   H     0.66413   0.79272   0.35748   0.00000  Uiso   1.00
O773   O     0.63488   0.76090   0.46412   0.00000  Uiso   1.00
H774   H     0.60923   0.75238   0.44223   0.00000  Uiso   1.00
O775   O     0.36327   0.92271   0.04174   0.00000  Uiso   1.00
H776   H     0.38919   0.92567   0.06321   0.00000  Uiso   1.00
O777   O     0.40782   0.82903   0.08775   0.00000  Uiso   1.00
H778   H     0.36229   0.81781   0.09600   0.00000  Uiso   1.00
O779   O     0.60103   0.84964   0.41627   0.00000  Uiso   1.00
H780   H     0.57585   0.81747   0.40598   0.00000  Uiso   1.00
O781   O     0.55748   0.68471   0.28344   0.00000  Uiso   1.00
H782   H     0.58107   0.99571   0.29267   0.00000  Uiso   1.00
O783   O     0.44122   0.98125   0.21849   0.00000  Uiso   1.00
H784   H     0.41044   0.66742   0.21585   0.00000  Uiso   1.00
O785   O     0.34593   0.89515   0.27053   0.00000  Uiso   1.00
C786   C     0.65444   0.91010   0.31362   0.00000  Uiso   1.00
H787   H     0.65885   0.88289   0.33693   0.00000  Uiso   1.00
H788   H     0.60550   0.91227   0.31832   0.00000  Uiso   1.00
C789   C     0.35748   0.96375   0.32282   0.00000  Uiso   1.00
H790   H     0.33734   0.97850   0.35553   0.00000  Uiso   1.00
H791   H     0.40600   0.96219   0.32146   0.00000  Uiso   1.00
H792   H     0.35624   0.99108   0.29857   0.00000  Uiso   1.00
O793   O     0.66410   0.79520   0.20338   0.00000  Uiso   1.00
C794   C     0.65990   0.74169   0.20523   0.00000  Uiso   1.00
H795   H     0.61351   0.72144   0.20099   0.00000  Uiso   1.00
H796   H     0.66534   0.72911   0.23653   0.00000  Uiso   1.00
C797   C     0.37155   0.72397   0.16675   0.00000  Uiso   1.00
H798   H     0.41942   0.73693   0.17082   0.00000  Uiso   1.00
H799   H     0.36001   0.68111   0.16313   0.00000  Uiso   1.00
H800   H     0.36778   0.74093   0.13718   0.00000  Uiso   1.00
C801   C     0.84758   0.93302   0.25245   0.00000  Uiso   1.00
C802   C     0.81894   0.73357   0.24793   0.00000  Uiso   1.00
C803   C     0.76184   0.82156   0.04310   0.00000  Uiso   1.00
C804   C     0.90754   0.85923   0.45942   0.00000  Uiso   1.00
C805   C     0.72101   0.79664   0.01687   0.00000  Uiso   1.00
C806   C     0.94680   0.88517   0.48612   0.00000  Uiso   1.00
C807   C     0.85213   0.98885   0.25835   0.00000  Uiso   1.00
C808   C     0.81442   0.67765   0.24243   0.00000  Uiso   1.00
C809   C     0.79512   0.82893   0.33301   0.00000  Uiso   1.00
C810   C     0.87149   0.83849   0.16709   0.00000  Uiso   1.00
C811   C     0.77151   0.82356   0.38100   0.00000  Uiso   1.00
C812   C     0.89515   0.84940   0.11995   0.00000  Uiso   1.00
C813   C     0.69412   0.78655   0.44498   0.00000  Uiso   1.00
C814   C     0.97133   0.89464   0.05904   0.00000  Uiso   1.00
C815   C     0.71276   0.79318   0.39930   0.00000  Uiso   1.00
C816   C     0.95094   0.88564   0.10436   0.00000  Uiso   1.00
C817   C     0.81010   0.84753   0.40900   0.00000  Uiso   1.00
C818   C     0.86018   0.82500   0.09001   0.00000  Uiso   1.00
C819   C     0.79788   0.83118   0.45234   0.00000  Uiso   1.00
C820   C     0.87071   0.84691   0.04881   0.00000  Uiso   1.00
C821   C     0.73730   0.80418   0.47141   0.00000  Uiso   1.00
C822   C     0.93003   0.87660   0.03133   0.00000  Uiso   1.00
C823   C     0.84353   0.84276   0.47782   0.00000  Uiso   1.00
C824   C     0.82506   0.83724   0.02362   0.00000  Uiso   1.00
Cu825  Cu    0.77404   0.82775   0.24517   0.00000  Uiso   1.00
Cu826  Cu    0.89263   0.83892   0.25483   0.00000  Uiso   1.00
N827   N     0.98173   0.84735   0.26212   0.00000  Uiso   1.00
N828   N     0.68494   0.81932   0.23788   0.00000  Uiso   1.00
O829   O     0.79482   0.90476   0.24686   0.00000  Uiso   1.00
O830   O     0.87185   0.76191   0.25314   0.00000  Uiso   1.00
O831   O     0.89496   0.91420   0.25502   0.00000  Uiso   1.00
O832   O     0.77171   0.75247   0.24498   0.00000  Uiso   1.00
O833   O     0.75518   0.82597   0.30855   0.00000  Uiso   1.00
O834   O     0.91149   0.84070   0.19145   0.00000  Uiso   1.00
O835   O     0.85532   0.83540   0.31671   0.00000  Uiso   1.00
O836   O     0.81134   0.83126   0.18329   0.00000  Uiso   1.00
O837   O     0.99952   0.76396   0.03601   0.00000  Uiso   1.00
C838   C     0.68065   0.71932   0.04891   0.00000  Uiso   1.00
H839   H     0.71789   0.72941   0.06654   0.00000  Uiso   1.00
H840   H     0.69574   0.69449   0.02015   0.00000  Uiso   1.00
C841   C     0.95917   0.68825   0.07998   0.00000  Uiso   1.00
H842   H     0.92662   0.99841   0.06119   0.00000  Uiso   1.00
H843   H     0.97494   0.99461   0.09727   0.00000  Uiso   1.00
H844   H     0.93676   0.71429   0.10509   0.00000  Uiso   1.00
O845   O     0.66912   0.91682   0.46729   0.00000  Uiso   1.00
C846   C     0.98878   0.95988   0.45131   0.00000  Uiso   1.00
H847   H     0.96208   0.98155   0.47816   0.00000  Uiso   1.00
H848   H     0.96195   0.94745   0.42583   0.00000  Uiso   1.00
C849   C     0.71410   0.99620   0.42972   0.00000  Uiso   1.00
H850   H     0.73656   0.97731   0.39982   0.00000  Uiso   1.00
H851   H     0.70213   0.69621   0.41851   0.00000  Uiso   1.00
H852   H     0.74603   0.67565   0.45194   0.00000  Uiso   1.00
O853   O     0.81971   0.77763   0.10023   0.00000  Uiso   1.00
C854   C     0.83705   0.73872   0.06868   0.00000  Uiso   1.00
H855   H     0.88769   0.74369   0.05810   0.00000  Uiso   1.00
H856   H     0.81997   0.73992   0.03883   0.00000  Uiso   1.00
C857   C     0.81052   0.68503   0.08723   0.00000  Uiso   1.00
H858   H     0.82570   0.98850   0.06270   0.00000  Uiso   1.00
H859   H     0.82573   0.68223   0.11765   0.00000  Uiso   1.00
H860   H     0.75965   0.67619   0.09448   0.00000  Uiso   1.00
O861   O     0.85558   0.89129   0.39589   0.00000  Uiso   1.00
C862   C     0.82583   0.93292   0.39830   0.00000  Uiso   1.00
H863   H     0.79101   0.93341   0.42983   0.00000  Uiso   1.00
H864   H     0.80386   0.92947   0.37000   0.00000  Uiso   1.00
C865   C     0.87107   0.98489   0.39636   0.00000  Uiso   1.00
H866   H     0.90839   0.98608   0.36670   0.00000  Uiso   1.00
H867   H     0.84717   0.68313   0.39472   0.00000  Uiso   1.00
H868   H     0.88982   0.99234   0.42612   0.00000  Uiso   1.00
O869   O     0.98685   0.91224   0.13205   0.00000  Uiso   1.00
H870   H     0.95894   0.92225   0.15916   0.00000  Uiso   1.00
O871   O     0.67455   0.76661   0.37322   0.00000  Uiso   1.00
H872   H     0.99746   0.79272   0.35748   0.00000  Uiso   1.00
O873   O     0.96822   0.76090   0.46412   0.00000  Uiso   1.00
H874   H     0.94256   0.75238   0.44223   0.00000  Uiso   1.00
O875   O     0.69660   0.92271   0.04174   0.00000  Uiso   1.00
H876   H     0.72252   0.92567   0.06321   0.00000  Uiso   1.00
O877   O     0.74115   0.82903   0.08775   0.00000  Uiso   1.00
H878   H     0.69563   0.81781   0.09600   0.00000  Uiso   1.00
O879   O     0.93437   0.84964   0.41627   0.00000  Uiso   1.00
H880   H     0.90918   0.81747   0.40598   0.00000  Uiso   1.00
O881   O     0.89081   0.68471   0.28344   0.00000  Uiso   1.00
H882   H     0.91440   0.99571   0.29267   0.00000  Uiso   1.00
O883   O     0.77455   0.98125   0.21849   0.00000  Uiso   1.00
H884   H     0.74377   0.66742   0.21585   0.00000  Uiso   1.00
O885   O     0.67926   0.89515   0.27053   0.00000  Uiso   1.00
C886   C     0.98777   0.91010   0.31362   0.00000  Uiso   1.00
H887   H     0.99218   0.88289   0.33693   0.00000  Uiso   1.00
H888   H     0.93883   0.91227   0.31832   0.00000  Uiso   1.00
C889   C     0.69081   0.96375   0.32282   0.00000  Uiso   1.00
H890   H     0.67068   0.97850   0.35553   0.00000  Uiso   1.00
H891   H     0.73934   0.96219   0.32146   0.00000  Uiso   1.00
H892   H     0.68957   0.99108   0.29857   0.00000  Uiso   1.00
O893   O     0.99743   0.79520   0.20338   0.00000  Uiso   1.00
C894   C     0.99323   0.74169   0.20523   0.00000  Uiso   1.00
H895   H     0.94685   0.72144   0.20099   0.00000  Uiso   1.00
H896   H     0.99867   0.72911   0.23653   0.00000  Uiso   1.00
C897   C     0.70488   0.72397   0.16675   0.00000  Uiso   1.00
H898   H     0.75276   0.73693   0.17082   0.00000  Uiso   1.00
H899   H     0.69335   0.68111   0.16313   0.00000  Uiso   1.00
H900   H     0.70112   0.74093   0.13718   0.00000  Uiso   1.00
C901   C     0.18091   0.26635   0.75245   0.00000  Uiso   1.00
C902   C     0.15227   0.06691   0.74793   0.00000  Uiso   1.00
C903   C     0.09517   0.15489   0.54310   0.00000  Uiso   1.00
C904   C     0.24088   0.19256   0.95942   0.00000  Uiso   1.00
C905   C     0.05434   0.12997   0.51687   0.00000  Uiso   1.00
C906   C     0.28013   0.21850   0.98612   0.00000  Uiso   1.00
C907   C     0.18546   0.32219   0.75835   0.00000  Uiso   1.00
C908   C     0.14775   0.01099   0.74243   0.00000  Uiso   1.00
C909   C     0.12846   0.16227   0.83301   0.00000  Uiso   1.00
C910   C     0.20482   0.17183   0.66709   0.00000  Uiso   1.00
C911   C     0.10484   0.15690   0.88100   0.00000  Uiso   1.00
C912   C     0.22848   0.18273   0.61995   0.00000  Uiso   1.00
C913   C     0.02746   0.11989   0.94498   0.00000  Uiso   1.00
C914   C     0.30467   0.22797   0.55904   0.00000  Uiso   1.00
C915   C     0.04610   0.12651   0.89930   0.00000  Uiso   1.00
C916   C     0.28428   0.21898   0.60436   0.00000  Uiso   1.00
C917   C     0.14343   0.18086   0.90900   0.00000  Uiso   1.00
C918   C     0.19351   0.15833   0.59001   0.00000  Uiso   1.00
C919   C     0.13121   0.16452   0.95234   0.00000  Uiso   1.00
C920   C     0.20405   0.18024   0.54881   0.00000  Uiso   1.00
C921   C     0.07064   0.13752   0.97141   0.00000  Uiso   1.00
C922   C     0.26337   0.20993   0.53133   0.00000  Uiso   1.00
C923   C     0.17687   0.17609   0.97782   0.00000  Uiso   1.00
C924   C     0.15839   0.17058   0.52362   0.00000  Uiso   1.00
Cu925  Cu    0.10737   0.16108   0.74517   0.00000  Uiso   1.00
Cu926  Cu    0.22596   0.17225   0.75483   0.00000  Uiso   1.00
N927   N     0.31506   0.18068   0.76212   0.00000  Uiso   1.00
N928   N     0.01827   0.15265   0.73788   0.00000  Uiso   1.00
O929   O     0.12815   0.23809   0.74686   0.00000  Uiso   1.00
O930   O     0.20518   0.09524   0.75314   0.00000  Uiso   1.00
O931   O     0.22829   0.24753   0.75502   0.00000  Uiso   1.00
O932   O     0.10504   0.08580   0.74498   0.00000  Uiso   1.00
O933   O     0.08851   0.15930   0.80855   0.00000  Uiso   1.00
O934   O     0.24482   0.17403   0.69145   0.00000  Uiso   1.00
O935   O     0.18866   0.16874   0.81671   0.00000  Uiso   1.00
O936   O     0.14468   0.16460   0.68329   0.00000  Uiso   1.00
O937   O     0.33285   0.09730   0.53601   0.00000  Uiso   1.00
C938   C     0.01399   0.05265   0.54891   0.00000  Uiso   1.00
H939   H     0.05123   0.06275   0.56654   0.00000  Uiso   1.00
H940   H     0.02907   0.02782   0.52015   0.00000  Uiso   1.00
C941   C     0.29251   0.02158   0.57998   0.00000  Uiso   1.00
H942   H     0.25995   0.33174   0.56119   0.00000  Uiso   1.00
H943   H     0.30827   0.32794   0.59727   0.00000  Uiso   1.00
H944   H     0.27010   0.04762   0.60509   0.00000  Uiso   1.00
O945   O     0.00245   0.25015   0.96729   0.00000  Uiso   1.00
C946   C     0.32211   0.29322   0.95131   0.00000  Uiso   1.00
H947   H     0.29541   0.31488   0.97816   0.00000  Uiso   1.00
H948   H     0.29529   0.28078   0.92583   0.00000  Uiso   1.00
C949   C     0.04744   0.32954   0.92972   0.00000  Uiso   1.00
H950   H     0.06990   0.31065   0.89982   0.00000  Uiso   1.00
H951   H     0.03547   0.02954   0.91851   0.00000  Uiso   1.00
H952   H     0.07936   0.00898   0.95194   0.00000  Uiso   1.00
O953   O     0.15304   0.11096   0.60023   0.00000  Uiso   1.00
C954   C     0.17038   0.07206   0.56868   0.00000  Uiso   1.00
H955   H     0.22102   0.07702   0.55810   0.00000  Uiso   1.00
H956   H     0.15331   0.07325   0.53883   0.00000  Uiso   1.00
C957   C     0.14386   0.01836   0.58723   0.00000  Uiso   1.00
H958   H     0.15903   0.32183   0.56270   0.00000  Uiso   1.00
H959   H     0.15906   0.01556   0.61765   0.00000  Uiso   1.00
H960   H     0.09299   0.00953   0.59448   0.00000  Uiso   1.00
O961   O     0.18891   0.22462   0.89589   0.00000  Uiso   1.00
C962   C     0.15916   0.26626   0.89830   0.00000  Uiso   1.00
H963   H     0.12434   0.26674   0.92983   0.00000  Uiso   1.00
H964   H     0.13720   0.26280   0.87000   0.00000  Uiso   1.00
C965   C     0.20440   0.31822   0.89636   0.00000  Uiso   1.00
H966   H     0.24172   0.31941   0.86670   0.00000  Uiso   1.00
H967   H     0.18050   0.01646   0.89472   0.00000  Uiso   1.00
H968   H     0.22316   0.32567   0.92612   0.00000  Uiso   1.00
O969   O     0.32018   0.24557   0.63205   0.00000  Uiso   1.00
H970   H     0.29228   0.25558   0.65916   0.00000  Uiso   1.00
O971   O     0.00788   0.09994   0.87322   0.00000  Uiso   1.00
H972   H     0.33080   0.12606   0.85748   0.00000  Uiso   1.00
O973   O     0.30155   0.09424   0.96412   0.00000  Uiso   1.00
H974   H     0.27590   0.08571   0.94223   0.00000  Uiso   1.00
O975   O     0.02994   0.25604   0.54174   0.00000  Uiso   1.00
H976   H     0.05586   0.25900   0.56321   0.00000  Uiso   1.00
O977   O     0.07448   0.16236   0.58775   0.00000  Uiso   1.00
H978   H     0.02896   0.15114   0.59600   0.00000  Uiso   1.00
O979   O     0.26770   0.18297   0.91627   0.00000  Uiso   1.00
H980   H     0.24251   0.15080   0.90598   0.00000  Uiso   1.00
O981   O     0.22415   0.01804   0.78344   0.00000  Uiso   1.00
H982   H     0.24773   0.32905   0.79267   0.00000  Uiso   1.00
O983   O     0.10789   0.31458   0.71849   0.00000  Uiso   1.00
H984   H     0.07711   0.00075   0.71585   0.00000  Uiso   1.00
O985   O     0.01260   0.22848   0.77053   0.00000  Uiso   1.00
C986   C     0.32110   0.24343   0.81362   0.00000  Uiso   1.00
H987   H     0.32551   0.21623   0.83693   0.00000  Uiso   1.00
H988   H     0.27217   0.24560   0.81832   0.00000  Uiso   1.00
C989   C     0.02414   0.29708   0.82282   0.00000  Uiso   1.00
H990   H     0.00401   0.31183   0.85553   0.00000  Uiso   1.00
H991   H     0.07267   0.29552   0.82146   0.00000  Uiso   1.00
H992   H     0.02290   0.32442   0.79857   0.00000  Uiso   1.00
O993   O     0.33076   0.12853   0.70338   0.00000  Uiso   1.00
C994   C     0.32656   0.07502   0.70523   0.00000  Uiso   1.00
H995   H     0.28018   0.05477   0.70099   0.00000  Uiso   1.00
H996   H     0.33201   0.06244   0.73653   0.00000  Uiso   1.00
C997   C     0.03821   0.05730   0.66675   0.00000  Uiso   1.00
H998   H     0.08609   0.07026   0.67082   0.00000  Uiso   1.00
H999   H     0.02668   0.01445   0.66313   0.00000  Uiso   1.00
H1000  H     0.03445   0.07426   0.63718   0.00000  Uiso   1.00
C1001  C     0.51424   0.26635   0.75245   0.00000  Uiso   1.00
C1002  C     0.48560   0.06691   0.74793   0.00000  Uiso   1.00
C1003  C     0.42850   0.15489   0.54310   0.00000  Uiso   1.00
C1004  C     0.57421   0.19256   0.95942   0.00000  Uiso   1.00
C1005  C     0.38767   0.12997   0.51687   0.00000  Uiso   1.00
C1006  C     0.61347   0.21850   0.98612   0.00000  Uiso   1.00
C1007  C     0.51879   0.32219   0.75835   0.00000  Uiso   1.00
C1008  C     0.48108   0.01099   0.74243   0.00000  Uiso   1.00
C1009  C     0.46179   0.16227   0.83301   0.00000  Uiso   1.00
C1010  C     0.53815   0.17183   0.66709   0.00000  Uiso   1.00
C1011  C     0.43818   0.15690   0.88100   0.00000  Uiso   1.00
C1012  C     0.56181   0.18273   0.61995   0.00000  Uiso   1.00
C1013  C     0.36079   0.11989   0.94498   0.00000  Uiso   1.00
C1014  C     0.63800   0.22797   0.55904   0.00000  Uiso   1.00
C1015  C     0.37943   0.12651   0.89930   0.00000  Uiso   1.00
C1016  C     0.61761   0.21898   0.60436   0.00000  Uiso   1.00
C1017  C     0.47676   0.18086   0.90900   0.00000  Uiso   1.00
C1018  C     0.52684   0.15833   0.59001   0.00000  Uiso   1.00
C1019  C     0.46454   0.16452   0.95234   0.00000  Uiso   1.00
C1020  C     0.53738   0.18024   0.54881   0.00000  Uiso   1.00
C1021  C     0.40397   0.13752   0.97141   0.00000  Uiso   1.00
C1022  C     0.59670   0.20993   0.53133   0.00000  Uiso   1.00
C1023  C     0.51020   0.17609   0.97782   0.00000  Uiso   1.00
C1024  C     0.49173   0.17058   0.52362   0.00000  Uiso   1.00
Cu1025 Cu    0.44071   0.16108   0.74517   0.00000  Uiso   1.00
Cu1026 Cu    0.55929   0.17225   0.75483   0.00000  Uiso   1.00
N1027  N     0.64839   0.18068   0.76212   0.00000  Uiso   1.00
N1028  N     0.35161   0.15265   0.73788   0.00000  Uiso   1.00
O1029  O     0.46148   0.23809   0.74686   0.00000  Uiso   1.00
O1030  O     0.53852   0.09524   0.75314   0.00000  Uiso   1.00
O1031  O     0.56163   0.24753   0.75502   0.00000  Uiso   1.00
O1032  O     0.43837   0.08580   0.74498   0.00000  Uiso   1.00
O1033  O     0.42185   0.15930   0.80855   0.00000  Uiso   1.00
O1034  O     0.57815   0.17403   0.69145   0.00000  Uiso   1.00
O1035  O     0.52199   0.16874   0.81671   0.00000  Uiso   1.00
O1036  O     0.47801   0.16460   0.68329   0.00000  Uiso   1.00
O1037  O     0.66619   0.09730   0.53601   0.00000  Uiso   1.00
C1038  C     0.34732   0.05265   0.54891   0.00000  Uiso   1.00
H1039  H     0.38456   0.06275   0.56654   0.00000  Uiso   1.00
H1040  H     0.36241   0.02782   0.52015   0.00000  Uiso   1.00
C1041  C     0.62584   0.02158   0.57998   0.00000  Uiso   1.00
H1042  H     0.59328   0.33174   0.56119   0.00000  Uiso   1.00
H1043  H     0.64161   0.32794   0.59727   0.00000  Uiso   1.00
H1044  H     0.60343   0.04762   0.60509   0.00000  Uiso   1.00
O1045  O     0.33579   0.25015   0.96729   0.00000  Uiso   1.00
C1046  C     0.65545   0.29322   0.95131   0.00000  Uiso   1.00
H1047  H     0.62875   0.31488   0.97816   0.00000  Uiso   1.00
H1048  H     0.62862   0.28078   0.92583   0.00000  Uiso   1.00
C1049  C     0.38077   0.32954   0.92972   0.00000  Uiso   1.00
H1050  H     0.40323   0.31065   0.89982   0.00000  Uiso   1.00
H1051  H     0.36880   0.02954   0.91851   0.00000  Uiso   1.00
H1052  H     0.41269   0.00898   0.95194   0.00000  Uiso   1.00
O1053  O     0.48637   0.11096   0.60023   0.00000  Uiso   1.00
C1054  C     0.50371   0.07206   0.56868   0.00000  Uiso   1.00
H1055  H     0.55436   0.07702   0.55810   0.00000  Uiso   1.00
H1056  H     0.48664   0.07325   0.53883   0.00000  Uiso   1.00
C1057  C     0.47719   0.01836   0.58723   0.00000  Uiso   1.00
H1058  H     0.49237   0.32183   0.56270   0.00000  Uiso   1.00
H1059  H     0.49240   0.01556   0.61765   0.00000  Uiso   1.00
H1060  H     0.42632   0.00953   0.59448   0.00000  Uiso   1.00
O1061  O     0.52225   0.22462   0.89589   0.00000  Uiso   1.00
C1062  C     0.49250   0.26626   0.89830   0.00000  Uiso   1.00
H1063  H     0.45767   0.26674   0.92983   0.00000  Uiso   1.00
H1064  H     0.47053   0.26280   0.87000   0.00000  Uiso   1.00
C1065  C     0.53774   0.31822   0.89636   0.00000  Uiso   1.00
H1066  H     0.57505   0.31941   0.86670   0.00000  Uiso   1.00
H1067  H     0.51384   0.01646   0.89472   0.00000  Uiso   1.00
H1068  H     0.55649   0.32567   0.92612   0.00000  Uiso   1.00
O1069  O     0.65351   0.24557   0.63205   0.00000  Uiso   1.00
H1070  H     0.62561   0.25558   0.65916   0.00000  Uiso   1.00
O1071  O     0.34122   0.09994   0.87322   0.00000  Uiso   1.00
H1072  H     0.66413   0.12606   0.85748   0.00000  Uiso   1.00
O1073  O     0.63488   0.09424   0.96412   0.00000  Uiso   1.00
H1074  H     0.60923   0.08571   0.94223   0.00000  Uiso   1.00
O1075  O     0.36327   0.25604   0.54174   0.00000  Uiso   1.00
H1076  H     0.38919   0.25900   0.56321   0.00000  Uiso   1.00
O1077  O     0.40782   0.16236   0.58775   0.00000  Uiso   1.00
H1078  H     0.36229   0.15114   0.59600   0.00000  Uiso   1.00
O1079  O     0.60103   0.18297   0.91627   0.00000  Uiso   1.00
H1080  H     0.57585   0.15080   0.90598   0.00000  Uiso   1.00
O1081  O     0.55748   0.01804   0.78344   0.00000  Uiso   1.00
H1082  H     0.58107   0.32905   0.79267   0.00000  Uiso   1.00
O1083  O     0.44122   0.31458   0.71849   0.00000  Uiso   1.00
H1084  H     0.41044   0.00075   0.71585   0.00000  Uiso   1.00
O1085  O     0.34593   0.22848   0.77053   0.00000  Uiso   1.00
C1086  C     0.65444   0.24343   0.81362   0.00000  Uiso   1.00
H1087  H     0.65885   0.21623   0.83693   0.00000  Uiso   1.00
H1088  H     0.60550   0.24560   0.81832   0.00000  Uiso   1.00
C1089  C     0.35748   0.29708   0.82282   0.00000  Uiso   1.00
H1090  H     0.33734   0.31183   0.85553   0.00000  Uiso   1.00
H1091  H     0.40600   0.29552   0.82146   0.00000  Uiso   1.00
H1092  H     0.35624   0.32442   0.79857   0.00000  Uiso   1.00
O1093  O     0.66410   0.12853   0.70338   0.00000  Uiso   1.00
C1094  C     0.65990   0.07502   0.70523   0.00000  Uiso   1.00
H1095  H     0.61351   0.05477   0.70099   0.00000  Uiso   1.00
H1096  H     0.66534   0.06244   0.73653   0.00000  Uiso   1.00
C1097  C     0.37155   0.05730   0.66675   0.00000  Uiso   1.00
H1098  H     0.41942   0.07026   0.67082   0.00000  Uiso   1.00
H1099  H     0.36001   0.01445   0.66313   0.00000  Uiso   1.00
H1100  H     0.36778   0.07426   0.63718   0.00000  Uiso   1.00
C1101  C     0.84758   0.26635   0.75245   0.00000  Uiso   1.00
C1102  C     0.81894   0.06691   0.74793   0.00000  Uiso   1.00
C1103  C     0.76184   0.15489   0.54310   0.00000  Uiso   1.00
C1104  C     0.90754   0.19256   0.95942   0.00000  Uiso   1.00
C1105  C     0.72101   0.12997   0.51687   0.00000  Uiso   1.00
C1106  C     0.94680   0.21850   0.98612   0.00000  Uiso   1.00
C1107  C     0.85213   0.32219   0.75835   0.00000  Uiso   1.00
C1108  C     0.81442   0.01099   0.74243   0.00000  Uiso   1.00
C1109  C     0.79512   0.16227   0.83301   0.00000  Uiso   1.00
C1110  C     0.87149   0.17183   0.66709   0.00000  Uiso   1.00
C1111  C     0.77151   0.15690   0.88100   0.00000  Uiso   1.00
C1112  C     0.89515   0.18273   0.61995   0.00000  Uiso   1.00
C1113  C     0.69412   0.11989   0.94498   0.00000  Uiso   1.00
C1114  C     0.97133   0.22797   0.55904   0.00000  Uiso   1.00
C1115  C     0.71276   0.12651   0.89930   0.00000  Uiso   1.00
C1116  C     0.95094   0.21898   0.60436   0.00000  Uiso   1.00
C1117  C     0.81010   0.18086   0.90900   0.00000  Uiso   1.00
C1118  C     0.86018   0.15833   0.59001   0.00000  Uiso   1.00
C1119  C     0.79788   0.16452   0.95234   0.00000  Uiso   1.00
C1120  C     0.87071   0.18024   0.54881   0.00000  Uiso   1.00
C1121  C     0.73730   0.13752   0.97141   0.00000  Uiso   1.00
C1122  C     0.93003   0.20993   0.53133   0.00000  Uiso   1.00
C1123  C     0.84353   0.17609   0.97782   0.00000  Uiso   1.00
C1124  C     0.82506   0.17058   0.52362   0.00000  Uiso   1.00
Cu1125 Cu    0.77404   0.16108   0.74517   0.00000  Uiso   1.00
Cu1126 Cu    0.89263   0.17225   0.75483   0.00000  Uiso   1.00
N1127  N     0.98173   0.18068   0.76212   0.00000  Uiso   1.00
N1128  N     0.68494   0.15265   0.73788   0.00000  Uiso   1.00
O1129  O     0.79482   0.23809   0.74686   0.00000  Uiso   1.00
O1130  O     0.87185   0.09524   0.75314   0.00000  Uiso   1.00
O1131  O     0.89496   0.24753   0.75502   0.00000  Uiso   1.00
O1132  O     0.77171   0.08580   0.74498   0.00000  Uiso   1.00
O1133  O     0.75518   0.15930   0.80855   0.00000  Uiso   1.00
O1134  O     0.91149   0.17403   0.69145   0.00000  Uiso   1.00
O1135  O     0.85532   0.16874   0.81671   0.00000  Uiso   1.00
O1136  O     0.81134   0.16460   0.68329   0.00000  Uiso   1.00
O1137  O     0.99952   0.09730   0.53601   0.00000  Uiso   1.00
C1138  C     0.68065   0.05265   0.54891   0.00000  Uiso   1.00
H1139  H     0.71789   0.06275   0.56654   0.00000  Uiso   1.00
H1140  H     0.69574   0.02782   0.52015   0.00000  Uiso   1.00
C1141  C     0.95917   0.02158   0.57998   0.00000  Uiso   1.00
H1142  H     0.92662   0.33174   0.56119   0.00000  Uiso   1.00
H1143  H     0.97494   0.32794   0.59727   0.00000  Uiso   1.00
H1144  H     0.93676   0.04762   0.60509   0.00000  Uiso   1.00
O1145  O     0.66912   0.25015   0.96729   0.00000  Uiso   1.00
C1146  C     0.98878   0.29322   0.95131   0.00000  Uiso   1.00
H1147  H     0.96208   0.31488   0.97816   0.00000  Uiso   1.00
H1148  H     0.96195   0.28078   0.92583   0.00000  Uiso   1.00
C1149  C     0.71410   0.32954   0.92972   0.00000  Uiso   1.00
H1150  H     0.73656   0.31065   0.89982   0.00000  Uiso   1.00
H1151  H     0.70213   0.02954   0.91851   0.00000  Uiso   1.00
H1152  H     0.74603   0.00898   0.95194   0.00000  Uiso   1.00
O1153  O     0.81971   0.11096   0.60023   0.00000  Uiso   1.00
C1154  C     0.83705   0.07206   0.56868   0.00000  Uiso   1.00
H1155  H     0.88769   0.07702   0.55810   0.00000  Uiso   1.00
H1156  H     0.81997   0.07325   0.53883   0.00000  Uiso   1.00
C1157  C     0.81052   0.01836   0.58723   0.00000  Uiso   1.00
H1158  H     0.82570   0.32183   0.56270   0.00000  Uiso   1.00
H1159  H     0.82573   0.01556   0.61765   0.00000  Uiso   1.00
H1160  H     0.75965   0.00953   0.59448   0.00000  Uiso   1.00
O1161  O     0.85558   0.22462   0.89589   0.00000  Uiso   1.00
C1162  C     0.82583   0.26626   0.89830   0.00000  Uiso   1.00
H1163  H     0.79101   0.26674   0.92983   0.00000  Uiso   1.00
H1164  H     0.80386   0.26280   0.87000   0.00000  Uiso   1.00
C1165  C     0.87107   0.31822   0.89636   0.00000  Uiso   1.00
H1166  H     0.90839   0.31941   0.86670   0.00000  Uiso   1.00
H1167  H     0.84717   0.01646   0.89472   0.00000  Uiso   1.00
H1168  H     0.88982   0.32567   0.92612   0.00000  Uiso   1.00
O1169  O     0.98685   0.24557   0.63205   0.00000  Uiso   1.00
H1170  H     0.95894   0.25558   0.65916   0.00000  Uiso   1.00
O1171  O     0.67455   0.09994   0.87322   0.00000  Uiso   1.00
H1172  H     0.99746   0.12606   0.85748   0.00000  Uiso   1.00
O1173  O     0.96822   0.09424   0.96412   0.00000  Uiso   1.00
H1174  H     0.94256   0.08571   0.94223   0.00000  Uiso   1.00
O1175  O     0.69660   0.25604   0.54174   0.00000  Uiso   1.00
H1176  H     0.72252   0.25900   0.56321   0.00000  Uiso   1.00
O1177  O     0.74115   0.16236   0.58775   0.00000  Uiso   1.00
H1178  H     0.69563   0.15114   0.59600   0.00000  Uiso   1.00
O1179  O     0.93437   0.18297   0.91627   0.00000  Uiso   1.00
H1180  H     0.90918   0.15080   0.90598   0.00000  Uiso   1.00
O1181  O     0.89081   0.01804   0.78344   0.00000  Uiso   1.00
H1182  H     0.91440   0.32905   0.79267   0.00000  Uiso   1.00
O1183  O     0.77455   0.31458   0.71849   0.00000  Uiso   1.00
H1184  H     0.74377   0.00075   0.71585   0.00000  Uiso   1.00
O1185  O     0.67926   0.22848   0.77053   0.00000  Uiso   1.00
C1186  C     0.98777   0.24343   0.81362   0.00000  Uiso   1.00
H1187  H     0.99218   0.21623   0.83693   0.00000  Uiso   1.00
H1188  H     0.93883   0.24560   0.81832   0.00000  Uiso   1.00
C1189  C     0.69081   0.29708   0.82282   0.00000  Uiso   1.00
H1190  H     0.67068   0.31183   0.85553   0.00000  Uiso   1.00
H1191  H     0.73934   0.29552   0.82146   0.00000  Uiso   1.00
H1192  H     0.68957   0.32442   0.79857   0.00000  Uiso   1.00
O1193  O     0.99743   0.12853   0.70338   0.00000  Uiso   1.00
C1194  C     0.99323   0.07502   0.70523   0.00000  Uiso   1.00
H1195  H     0.94685   0.05477   0.70099   0.00000  Uiso   1.00
H1196  H     0.99867   0.06244   0.73653   0.00000  Uiso   1.00
C1197  C     0.70488   0.05730   0.66675   0.00000  Uiso   1.00
H1198  H     0.75276   0.07026   0.67082   0.00000  Uiso   1.00
H1199  H     0.69335   0.01445   0.66313   0.00000  Uiso   1.00
H1200  H     0.70112   0.07426   0.63718   0.00000  Uiso   1.00
C1201  C     0.18091   0.59969   0.75245   0.00000  Uiso   1.00
C1202  C     0.15227   0.40024   0.74793   0.00000  Uiso   1.00
C1203  C     0.09517   0.48822   0.54310   0.00000  Uiso   1.00
C1204  C     0.24088   0.52590   0.95942   0.00000  Uiso   1.00
C1205  C     0.05434   0.46331   0.51687   0.00000  Uiso   1.00
C1206  C     0.28013   0.55184   0.98612   0.00000  Uiso   1.00
C1207  C     0.18546   0.65552   0.75835   0.00000  Uiso   1.00
C1208  C     0.14775   0.34432   0.74243   0.00000  Uiso   1.00
C1209  C     0.12846   0.49560   0.83301   0.00000  Uiso   1.00
C1210  C     0.20482   0.50516   0.66709   0.00000  Uiso   1.00
C1211  C     0.10484   0.49023   0.88100   0.00000  Uiso   1.00
C1212  C     0.22848   0.51606   0.61995   0.00000  Uiso   1.00
C1213  C     0.02746   0.45322   0.94498   0.00000  Uiso   1.00
C1214  C     0.30467   0.56130   0.55904   0.00000  Uiso   1.00
C1215  C     0.04610   0.45985   0.89930   0.00000  Uiso   1.00
C1216  C     0.28428   0.55231   0.60436   0.00000  Uiso   1.00
C1217  C     0.14343   0.51419   0.90900   0.00000  Uiso   1.00
C1218  C     0.19351   0.49166   0.59001   0.00000  Uiso   1.00
C1219  C     0.13121   0.49785   0.95234   0.00000  Uiso   1.00
C1220  C     0.20405   0.51357   0.54881   0.00000  Uiso   1.00
C1221  C     0.07064   0.47085   0.97141   0.00000  Uiso   1.00
C1222  C     0.26337   0.54327   0.53133   0.00000  Uiso   1.00
C1223  C     0.17687   0.50942   0.97782   0.00000  Uiso   1.00
C1224  C     0.15839   0.50391   0.52362   0.00000  Uiso   1.00
Cu1225 Cu    0.10737   0.49441   0.74517   0.00000  Uiso   1.00
Cu1226 Cu    0.22596   0.50559   0.75483   0.00000  Uiso   1.00
N1227  N     0.31506   0.51401   0.76212   0.00000  Uiso   1.00
N1228  N     0.01827   0.48599   0.73788   0.00000  Uiso   1.00
O1229  O     0.12815   0.57142   0.74686   0.00000  Uiso   1.00
O1230  O     0.20518   0.42858   0.75314   0.00000  Uiso   1.00
O1231  O     0.22829   0.58086   0.75502   0.00000  Uiso   1.00
O1232  O     0.10504   0.41914   0.74498   0.00000  Uiso   1.00
O1233  O     0.08851   0.49263   0.80855   0.00000  Uiso   1.00
O1234  O     0.24482   0.50737   0.69145   0.00000  Uiso   1.00
O1235  O     0.18866   0.50207   0.81671   0.00000  Uiso   1.00
O1236  O     0.14468   0.49793   0.68329   0.00000  Uiso   1.00
O1237  O     0.33285   0.43063   0.53601   0.00000  Uiso   1.00
C1238  C     0.01399   0.38599   0.54891   0.00000  Uiso   1.00
H1239  H     0.05123   0.39608   0.56654   0.00000  Uiso   1.00
H1240  H     0.02907   0.36115   0.52015   0.00000  Uiso   1.00
C1241  C     0.29251   0.35491   0.57998   0.00000  Uiso   1.00
H1242  H     0.25995   0.66507   0.56119   0.00000  Uiso   1.00
H1243  H     0.30827   0.66127   0.59727   0.00000  Uiso   1.00
H1244  H     0.27010   0.38095   0.60509   0.00000  Uiso   1.00
O1245  O     0.00245   0.58348   0.96729   0.00000  Uiso   1.00
C1246  C     0.32211   0.62655   0.95131   0.00000  Uiso   1.00
H1247  H     0.29541   0.64821   0.97816   0.00000  Uiso   1.00
H1248  H     0.29529   0.61411   0.92583   0.00000  Uiso   1.00
C1249  C     0.04744   0.66287   0.92972   0.00000  Uiso   1.00
H1250  H     0.06990   0.64398   0.89982   0.00000  Uiso   1.00
H1251  H     0.03547   0.36287   0.91851   0.00000  Uiso   1.00
H1252  H     0.07936   0.34232   0.95194   0.00000  Uiso   1.00
O1253  O     0.15304   0.44430   0.60023   0.00000  Uiso   1.00
C1254  C     0.17038   0.40539   0.56868   0.00000  Uiso   1.00
H1255  H     0.22102   0.41035   0.55810   0.00000  Uiso   1.00
H1256  H     0.15331   0.40658   0.53883   0.00000  Uiso   1.00
C1257  C     0.14386   0.35169   0.58723   0.00000  Uiso   1.00
H1258  H     0.15903   0.65516   0.56270   0.00000  Uiso   1.00
H1259  H     0.15906   0.34890   0.61765   0.00000  Uiso   1.00
H1260  H     0.09299   0.34286   0.59448   0.00000  Uiso   1.00
O1261  O     0.18891   0.55796   0.89589   0.00000  Uiso   1.00
C1262  C     0.15916   0.59959   0.89830   0.00000  Uiso   1.00
H1263  H     0.12434   0.60008   0.92983   0.00000  Uiso   1.00
H1264  H     0.13720   0.59614   0.87000   0.00000  Uiso   1.00
C1265  C     0.20440   0.65156   0.89636   0.00000  Uiso   1.00
H1266  H     0.24172   0.65274   0.86670   0.00000  Uiso   1.00
H1267  H     0.18050   0.34980   0.89472   0.00000  Uiso   1.00
H1268  H     0.22316   0.65901   0.92612   0.00000  Uiso   1.00
O1269  O     0.32018   0.57891   0.63205   0.00000  Uiso   1.00
H1270  H     0.29228   0.58891   0.65916   0.00000  Uiso   1.00
O1271  O     0.00788   0.43327   0.87322   0.00000  Uiso   1.00
H1272  H     0.33080   0.45939   0.85748   0.00000  Uiso   1.00
O1273  O     0.30155   0.42757   0.96412   0.00000  Uiso   1.00
H1274  H     0.27590   0.41904   0.94223   0.00000  Uiso   1.00
O1275  O     0.02994   0.58937   0.54174   0.00000  Uiso   1.00
H1276  H     0.05586   0.59234   0.56321   0.00000  Uiso   1.00
O1277  O     0.07448   0.49570   0.58775   0.00000  Uiso   1.00
H1278  H     0.02896   0.48447   0.59600   0.00000  Uiso   1.00
O1279  O     0.26770   0.51631   0.91627   0.00000  Uiso   1.00
H1280  H     0.24251   0.48414   0.90598   0.00000  Uiso   1.00
O1281  O     0.22415   0.35137   0.78344   0.00000  Uiso   1.00
H1282  H     0.24773   0.66238   0.79267   0.00000  Uiso   1.00
O1283  O     0.10789   0.64792   0.71849   0.00000  Uiso   1.00
H1284  H     0.07711   0.33409   0.71585   0.00000  Uiso   1.00
O1285  O     0.01260   0.56182   0.77053   0.00000  Uiso   1.00
C1286  C     0.32110   0.57676   0.81362   0.00000  Uiso   1.00
H1287  H     0.32551   0.54956   0.83693   0.00000  Uiso   1.00
H1288  H     0.27217   0.57893   0.81832   0.00000  Uiso   1.00
C1289  C     0.02414   0.63041   0.82282   0.00000  Uiso   1.00
H1290  H     0.00401   0.64516   0.85553   0.00000  Uiso   1.00
H1291  H     0.07267   0.62886   0.82146   0.00000  Uiso   1.00
H1292  H     0.02290   0.65775   0.79857   0.00000  Uiso   1.00
O1293  O     0.33076   0.46186   0.70338   0.00000  Uiso   1.00
C1294  C     0.32656   0.40836   0.70523   0.00000  Uiso   1.00
H1295  H     0.28018   0.38811   0.70099   0.00000  Uiso   1.00
H1296  H     0.33201   0.39577   0.73653   0.00000  Uiso   1.00
C1297  C     0.03821   0.39064   0.66675   0.00000  Uiso   1.00
H1298  H     0.08609   0.40359   0.67082   0.00000  Uiso   1.00
H1299  H     0.02668   0.34778   0.66313   0.00000  Uiso   1.00
H1300  H     0.03445   0.40759   0.63718   0.00000  Uiso   1.00
C1301  C     0.51424   0.59969   0.75245   0.00000  Uiso   1.00
C1302  C     0.48560   0.40024   0.74793   0.00000  Uiso   1.00
C1303  C     0.42850   0.48822   0.54310   0.00000  Uiso   1.00
C1304  C     0.57421   0.52590   0.95942   0.00000  Uiso   1.00
C1305  C     0.38767   0.46331   0.51687   0.00000  Uiso   1.00
C1306  C     0.61347   0.55184   0.98612   0.00000  Uiso   1.00
C1307  C     0.51879   0.65552   0.75835   0.00000  Uiso   1.00
C1308  C     0.48108   0.34432   0.74243   0.00000  Uiso   1.00
C1309  C     0.46179   0.49560   0.83301   0.00000  Uiso   1.00
C1310  C     0.53815   0.50516   0.66709   0.00000  Uiso   1.00
C1311  C     0.43818   0.49023   0.88100   0.00000  Uiso   1.00
C1312  C     0.56181   0.51606   0.61995   0.00000  Uiso   1.00
C1313  C     0.36079   0.45322   0.94498   0.00000  Uiso   1.00
C1314  C     0.63800   0.56130   0.55904   0.00000  Uiso   1.00
C1315  C     0.37943   0.45985   0.89930   0.00000  Uiso   1.00
C1316  C     0.61761   0.55231   0.60436   0.00000  Uiso   1.00
C1317  C     0.47676   0.51419   0.90900   0.00000  Uiso   1.00
C1318  C     0.52684   0.49166   0.59001   0.00000  Uiso   1.00
C1319  C     0.46454   0.49785   0.95234   0.00000  Uiso   1.00
C1320  C     0.53738   0.51357   0.54881   0.00000  Uiso   1.00
C1321  C     0.40397   0.47085   0.97141   0.00000  Uiso   1.00
C1322  C     0.59670   0.54327   0.53133   0.00000  Uiso   1.00
C1323  C     0.51020   0.50942   0.97782   0.00000  Uiso   1.00
C1324  C     0.49173   0.50391   0.52362   0.00000  Uiso   1.00
Cu1325 Cu    0.44071   0.49441   0.74517   0.00000  Uiso   1.00
Cu1326 Cu    0.55929   0.50559   0.75483   0.00000  Uiso   1.00
N1327  N     0.64839   0.51401   0.76212   0.00000  Uiso   1.00
N1328  N     0.35161   0.48599   0.73788   0.00000  Uiso   1.00
O1329  O     0.46148   0.57142   0.74686   0.00000  Uiso   1.00
O1330  O     0.53852   0.42858   0.75314   0.00000  Uiso   1.00
O1331  O     0.56163   0.58086   0.75502   0.00000  Uiso   1.00
O1332  O     0.43837   0.41914   0.74498   0.00000  Uiso   1.00
O1333  O     0.42185   0.49263   0.80855   0.00000  Uiso   1.00
O1334  O     0.57815   0.50737   0.69145   0.00000  Uiso   1.00
O1335  O     0.52199   0.50207   0.81671   0.00000  Uiso   1.00
O1336  O     0.47801   0.49793   0.68329   0.00000  Uiso   1.00
O1337  O     0.66619   0.43063   0.53601   0.00000  Uiso   1.00
C1338  C     0.34732   0.38599   0.54891   0.00000  Uiso   1.00
H1339  H     0.38456   0.39608   0.56654   0.00000  Uiso   1.00
H1340  H     0.36241   0.36115   0.52015   0.00000  Uiso   1.00
C1341  C     0.62584   0.35491   0.57998   0.00000  Uiso   1.00
H1342  H     0.59328   0.66507   0.56119   0.00000  Uiso   1.00
H1343  H     0.64161   0.66127   0.59727   0.00000  Uiso   1.00
H1344  H     0.60343   0.38095   0.60509   0.00000  Uiso   1.00
O1345  O     0.33579   0.58348   0.96729   0.00000  Uiso   1.00
C1346  C     0.65545   0.62655   0.95131   0.00000  Uiso   1.00
H1347  H     0.62875   0.64821   0.97816   0.00000  Uiso   1.00
H1348  H     0.62862   0.61411   0.92583   0.00000  Uiso   1.00
C1349  C     0.38077   0.66287   0.92972   0.00000  Uiso   1.00
H1350  H     0.40323   0.64398   0.89982   0.00000  Uiso   1.00
H1351  H     0.36880   0.36287   0.91851   0.00000  Uiso   1.00
H1352  H     0.41269   0.34232   0.95194   0.00000  Uiso   1.00
O1353  O     0.48637   0.44430   0.60023   0.00000  Uiso   1.00
C1354  C     0.50371   0.40539   0.56868   0.00000  Uiso   1.00
H1355  H     0.55436   0.41035   0.55810   0.00000  Uiso   1.00
H1356  H     0.48664   0.40658   0.53883   0.00000  Uiso   1.00
C1357  C     0.47719   0.35169   0.58723   0.00000  Uiso   1.00
H1358  H     0.49237   0.65516   0.56270   0.00000  Uiso   1.00
H1359  H     0.49240   0.34890   0.61765   0.00000  Uiso   1.00
H1360  H     0.42632   0.34286   0.59448   0.00000  Uiso   1.00
O1361  O     0.52225   0.55796   0.89589   0.00000  Uiso   1.00
C1362  C     0.49250   0.59959   0.89830   0.00000  Uiso   1.00
H1363  H     0.45767   0.60008   0.92983   0.00000  Uiso   1.00
H1364  H     0.47053   0.59614   0.87000   0.00000  Uiso   1.00
C1365  C     0.53774   0.65156   0.89636   0.00000  Uiso   1.00
H1366  H     0.57505   0.65274   0.86670   0.00000  Uiso   1.00
H1367  H     0.51384   0.34980   0.89472   0.00000  Uiso   1.00
H1368  H     0.55649   0.65901   0.92612   0.00000  Uiso   1.00
O1369  O     0.65351   0.57891   0.63205   0.00000  Uiso   1.00
H1370  H     0.62561   0.58891   0.65916   0.00000  Uiso   1.00
O1371  O     0.34122   0.43327   0.87322   0.00000  Uiso   1.00
H1372  H     0.66413   0.45939   0.85748   0.00000  Uiso   1.00
O1373  O     0.63488   0.42757   0.96412   0.00000  Uiso   1.00
H1374  H     0.60923   0.41904   0.94223   0.00000  Uiso   1.00
O1375  O     0.36327   0.58937   0.54174   0.00000  Uiso   1.00
H1376  H     0.38919   0.59234   0.56321   0.00000  Uiso   1.00
O1377  O     0.40782   0.49570   0.58775   0.00000  Uiso   1.00
H1378  H     0.36229   0.48447   0.59600   0.00000  Uiso   1.00
O1379  O     0.60103   0.51631   0.91627   0.00000  Uiso   1.00
H1380  H     0.57585   0.48414   0.90598   0.00000  Uiso   1.00
O1381  O     0.55748   0.35137   0.78344   0.00000  Uiso   1.00
H1382  H     0.58107   0.66238   0.79267   0.00000  Uiso   1.00
O1383  O     0.44122   0.64792   0.71849   0.00000  Uiso   1.00
H1384  H     0.41044   0.33409   0.71585   0.00000  Uiso   1.00
O1385  O     0.34593   0.56182   0.77053   0.00000  Uiso   1.00
C1386  C     0.65444   0.57676   0.81362   0.00000  Uiso   1.00
H1387  H     0.65885   0.54956   0.83693   0.00000  Uiso   1.00
H1388  H     0.60550   0.57893   0.81832   0.00000  Uiso   1.00
C1389  C     0.35748   0.63041   0.82282   0.00000  Uiso   1.00
H1390  H     0.33734   0.64516   0.85553   0.00000  Uiso   1.00
H1391  H     0.40600   0.62886   0.82146   0.00000  Uiso   1.00
H1392  H     0.35624   0.65775   0.79857   0.00000  Uiso   1.00
O1393  O     0.66410   0.46186   0.70338   0.00000  Uiso   1.00
C1394  C     0.65990   0.40836   0.70523   0.00000  Uiso   1.00
H1395  H     0.61351   0.38811   0.70099   0.00000  Uiso   1.00
H1396  H     0.66534   0.39577   0.73653   0.00000  Uiso   1.00
C1397  C     0.37155   0.39064   0.66675   0.00000  Uiso   1.00
H1398  H     0.41942   0.40359   0.67082   0.00000  Uiso   1.00
H1399  H     0.36001   0.34778   0.66313   0.00000  Uiso   1.00
H1400  H     0.36778   0.40759   0.63718   0.00000  Uiso   1.00
C1401  C     0.84758   0.59969   0.75245   0.00000  Uiso   1.00
C1402  C     0.81894   0.40024   0.74793   0.00000  Uiso   1.00
C1403  C     0.76184   0.48822   0.54310   0.00000  Uiso   1.00
C1404  C     0.90754   0.52590   0.95942   0.00000  Uiso   1.00
C1405  C     0.72101   0.46331   0.51687   0.00000  Uiso   1.00
C1406  C     0.94680   0.55184   0.98612   0.00000  Uiso   1.00
C1407  C     0.85213   0.65552   0.75835   0.00000  Uiso   1.00
C1408  C     0.81442   0.34432   0.74243   0.00000  Uiso   1.00
C1409  C     0.79512   0.49560   0.83301   0.00000  Uiso   1.00
C1410  C     0.87149   0.50516   0.66709   0.00000  Uiso   1.00
C1411  C     0.77151   0.49023   0.88100   0.00000  Uiso   1.00
C1412  C     0.89515   0.51606   0.61995   0.00000  Uiso   1.00
C1413  C     0.69412   0.45322   0.94498   0.00000  Uiso   1.00
C1414  C     0.97133   0.56130   0.55904   0.00000  Uiso   1.00
C1415  C     0.71276   0.45985   0.89930   0.00000  Uiso   1.00
C1416  C     0.95094   0.55231   0.60436   0.00000  Uiso   1.00
C1417  C     0.81010   0.51419   0.90900   0.00000  Uiso   1.00
C1418  C     0.86018   0.49166   0.59001   0.00000  Uiso   1.00
C1419  C     0.79788   0.49785   0.95234   0.00000  Uiso   1.00
C1420  C     0.87071   0.51357   0.54881   0.00000  Uiso   1.00
C1421  C     0.73730   0.47085   0.97141   0.00000  Uiso   1.00
C1422  C     0.93003   0.54327   0.53133   0.00000  Uiso   1.00
C1423  C     0.84353   0.50942   0.97782   0.00000  Uiso   1.00
C1424  C     0.82506   0.50391   0.52362   0.00000  Uiso   1.00
Cu1425 Cu    0.77404   0.49441   0.74517   0.00000  Uiso   1.00
Cu1426 Cu    0.89263   0.50559   0.75483   0.00000  Uiso   1.00
N1427  N     0.98173   0.51401   0.76212   0.00000  Uiso   1.00
N1428  N     0.68494   0.48599   0.73788   0.00000  Uiso   1.00
O1429  O     0.79482   0.57142   0.74686   0.00000  Uiso   1.00
O1430  O     0.87185   0.42858   0.75314   0.00000  Uiso   1.00
O1431  O     0.89496   0.58086   0.75502   0.00000  Uiso   1.00
O1432  O     0.77171   0.41914   0.74498   0.00000  Uiso   1.00
O1433  O     0.75518   0.49263   0.80855   0.00000  Uiso   1.00
O1434  O     0.91149   0.50737   0.69145   0.00000  Uiso   1.00
O1435  O     0.85532   0.50207   0.81671   0.00000  Uiso   1.00
O1436  O     0.81134   0.49793   0.68329   0.00000  Uiso   1.00
O1437  O     0.99952   0.43063   0.53601   0.00000  Uiso   1.00
C1438  C     0.68065   0.38599   0.54891   0.00000  Uiso   1.00
H1439  H     0.71789   0.39608   0.56654   0.00000  Uiso   1.00
H1440  H     0.69574   0.36115   0.52015   0.00000  Uiso   1.00
C1441  C     0.95917   0.35491   0.57998   0.00000  Uiso   1.00
H1442  H     0.92662   0.66507   0.56119   0.00000  Uiso   1.00
H1443  H     0.97494   0.66127   0.59727   0.00000  Uiso   1.00
H1444  H     0.93676   0.38095   0.60509   0.00000  Uiso   1.00
O1445  O     0.66912   0.58348   0.96729   0.00000  Uiso   1.00
C1446  C     0.98878   0.62655   0.95131   0.00000  Uiso   1.00
H1447  H     0.96208   0.64821   0.97816   0.00000  Uiso   1.00
H1448  H     0.96195   0.61411   0.92583   0.00000  Uiso   1.00
C1449  C     0.71410   0.66287   0.92972   0.00000  Uiso   1.00
H1450  H     0.73656   0.64398   0.89982   0.00000  Uiso   1.00
H1451  H     0.70213   0.36287   0.91851   0.00000  Uiso   1.00
H1452  H     0.74603   0.34232   0.95194   0.00000  Uiso   1.00
O1453  O     0.81971   0.44430   0.60023   0.00000  Uiso   1.00
C1454  C     0.83705   0.40539   0.56868   0.00000  Uiso   1.00
H1455  H     0.88769   0.41035   0.55810   0.00000  Uiso   1.00
H1456  H     0.81997   0.40658   0.53883   0.00000  Uiso   1.00
C1457  C     0.81052   0.35169   0.58723   0.00000  Uiso   1.00
H1458  H     0.82570   0.65516   0.56270   0.00000  Uiso   1.00
H1459  H     0.82573   0.34890   0.61765   0.00000  Uiso   1.00
H1460  H     0.75965   0.34286   0.59448   0.00000  Uiso   1.00
O1461  O     0.85558   0.55796   0.89589   0.00000  Uiso   1.00
C1462  C     0.82583   0.59959   0.89830   0.00000  Uiso   1.00
H1463  H     0.79101   0.60008   0.92983   0.00000  Uiso   1.00
H1464  H     0.80386   0.59614   0.87000   0.00000  Uiso   1.00
C1465  C     0.87107   0.65156   0.89636   0.00000  Uiso   1.00
H1466  H     0.90839   0.65274   0.86670   0.00000  Uiso   1.00
H1467  H     0.84717   0.34980   0.89472   0.00000  Uiso   1.00
H1468  H     0.88982   0.65901   0.92612   0.00000  Uiso   1.00
O1469  O     0.98685   0.57891   0.63205   0.00000  Uiso   1.00
H1470  H     0.95894   0.58891   0.65916   0.00000  Uiso   1.00
O1471  O     0.67455   0.43327   0.87322   0.00000  Uiso   1.00
H1472  H     0.99746   0.45939   0.85748   0.00000  Uiso   1.00
O1473  O     0.96822   0.42757   0.96412   0.00000  Uiso   1.00
H1474  H     0.94256   0.41904   0.94223   0.00000  Uiso   1.00
O1475  O     0.69660   0.58937   0.54174   0.00000  Uiso   1.00
H1476  H     0.72252   0.59234   0.56321   0.00000  Uiso   1.00
O1477  O     0.74115   0.49570   0.58775   0.00000  Uiso   1.00
H1478  H     0.69563   0.48447   0.59600   0.00000  Uiso   1.00
O1479  O     0.93437   0.51631   0.91627   0.00000  Uiso   1.00
H1480  H     0.90918   0.48414   0.90598   0.00000  Uiso   1.00
O1481  O     0.89081   0.35137   0.78344   0.00000  Uiso   1.00
H1482  H     0.91440   0.66238   0.79267   0.00000  Uiso   1.00
O1483  O     0.77455   0.64792   0.71849   0.00000  Uiso   1.00
H1484  H     0.74377   0.33409   0.71585   0.00000  Uiso   1.00
O1485  O     0.67926   0.56182   0.77053   0.00000  Uiso   1.00
C1486  C     0.98777   0.57676   0.81362   0.00000  Uiso   1.00
H1487  H     0.99218   0.54956   0.83693   0.00000  Uiso   1.00
H1488  H     0.93883   0.57893   0.81832   0.00000  Uiso   1.00
C1489  C     0.69081   0.63041   0.82282   0.00000  Uiso   1.00
H1490  H     0.67068   0.64516   0.85553   0.00000  Uiso   1.00
H1491  H     0.73934   0.62886   0.82146   0.00000  Uiso   1.00
H1492  H     0.68957   0.65775   0.79857   0.00000  Uiso   1.00
O1493  O     0.99743   0.46186   0.70338   0.00000  Uiso   1.00
C1494  C     0.99323   0.40836   0.70523   0.00000  Uiso   1.00
H1495  H     0.94685   0.38811   0.70099   0.00000  Uiso   1.00
H1496  H     0.99867   0.39577   0.73653   0.00000  Uiso   1.00
C1497  C     0.70488   0.39064   0.66675   0.00000  Uiso   1.00
H1498  H     0.75276   0.40359   0.67082   0.00000  Uiso   1.00
H1499  H     0.69335   0.34778   0.66313   0.00000  Uiso   1.00
H1500  H     0.70112   0.40759   0.63718   0.00000  Uiso   1.00
C1501  C     0.18091   0.93302   0.75245   0.00000  Uiso   1.00
C1502  C     0.15227   0.73357   0.74793   0.00000  Uiso   1.00
C1503  C     0.09517   0.82156   0.54310   0.00000  Uiso   1.00
C1504  C     0.24088   0.85923   0.95942   0.00000  Uiso   1.00
C1505  C     0.05434   0.79664   0.51687   0.00000  Uiso   1.00
C1506  C     0.28013   0.88517   0.98612   0.00000  Uiso   1.00
C1507  C     0.18546   0.98885   0.75835   0.00000  Uiso   1.00
C1508  C     0.14775   0.67765   0.74243   0.00000  Uiso   1.00
C1509  C     0.12846   0.82893   0.83301   0.00000  Uiso   1.00
C1510  C     0.20482   0.83849   0.66709   0.00000  Uiso   1.00
C1511  C     0.10484   0.82356   0.88100   0.00000  Uiso   1.00
C1512  C     0.22848   0.84940   0.61995   0.00000  Uiso   1.00
C1513  C     0.02746   0.78655   0.94498   0.00000  Uiso   1.00
C1514  C     0.30467   0.89464   0.55904   0.00000  Uiso   1.00
C1515  C     0.04610   0.79318   0.89930   0.00000  Uiso   1.00
C1516  C     0.28428   0.88564   0.60436   0.00000  Uiso   1.00
C1517  C     0.14343   0.84753   0.90900   0.00000  Uiso   1.00
C1518  C     0.19351   0.82500   0.59001   0.00000  Uiso   1.00
C1519  C     0.13121   0.83118   0.95234   0.00000  Uiso   1.00
C1520  C     0.20405   0.84691   0.54881   0.00000  Uiso   1.00
C1521  C     0.07064   0.80418   0.97141   0.00000  Uiso   1.00
C1522  C     0.26337   0.87660   0.53133   0.00000  Uiso   1.00
C1523  C     0.17687   0.84276   0.97782   0.00000  Uiso   1.00
C1524  C     0.15839   0.83724   0.52362   0.00000  Uiso   1.00
Cu1525 Cu    0.10737   0.82775   0.74517   0.00000  Uiso   1.00
Cu1526 Cu    0.22596   0.83892   0.75483   0.00000  Uiso   1.00
N1527  N     0.31506   0.84735   0.76212   0.00000  Uiso   1.00
N1528  N     0.01827   0.81932   0.73788   0.00000  Uiso   1.00
O1529  O     0.12815   0.90476   0.74686   0.00000  Uiso   1.00
O1530  O     0.20518   0.76191   0.75314   0.00000  Uiso   1.00
O1531  O     0.22829   0.91420   0.75502   0.00000  Uiso   1.00
O1532  O     0.10504   0.75247   0.74498   0.00000  Uiso   1.00
O1533  O     0.08851   0.82597   0.80855   0.00000  Uiso   1.00
O1534  O     0.24482   0.84070   0.69145   0.00000  Uiso   1.00
O1535  O     0.18866   0.83540   0.81671   0.00000  Uiso   1.00
O1536  O     0.14468   0.83126   0.68329   0.00000  Uiso   1.00
O1537  O     0.33285   0.76396   0.53601   0.00000  Uiso   1.00
C1538  C     0.01399   0.71932   0.54891   0.00000  Uiso   1.00
H1539  H     0.05123   0.72941   0.56654   0.00000  Uiso   1.00
H1540  H     0.02907   0.69449   0.52015   0.00000  Uiso   1.00
C1541  C     0.29251   0.68825   0.57998   0.00000  Uiso   1.00
H1542  H     0.25995   0.99841   0.56119   0.00000  Uiso   1.00
H1543  H     0.30827   0.99461   0.59727   0.00000  Uiso   1.00
H1544  H     0.27010   0.71429   0.60509   0.00000  Uiso   1.00
O1545  O     0.00245   0.91682   0.96729   0.00000  Uiso   1.00
C1546  C     0.32211   0.95988   0.95131   0.00000  Uiso   1.00
H1547  H     0.29541   0.98155   0.97816   0.00000  Uiso   1.00
H1548  H     0.29529   0.94745   0.92583   0.00000  Uiso   1.00
C1549  C     0.04744   0.99620   0.92972   0.00000  Uiso   1.00
H1550  H     0.06990   0.97731   0.89982   0.00000  Uiso   1.00
H1551  H     0.03547   0.69621   0.91851   0.00000  Uiso   1.00
H1552  H     0.07936   0.67565   0.95194   0.00000  Uiso   1.00
O1553  O     0.15304   0.77763   0.60023   0.00000  Uiso   1.00
C1554  C     0.17038   0.73872   0.56868   0.00000  Uiso   1.00
H1555  H     0.22102   0.74369   0.55810   0.00000  Uiso   1.00
H1556  H     0.15331   0.73992   0.53883   0.00000  Uiso   1.00
C1557  C     0.14386   0.68503   0.58723   0.00000  Uiso   1.00
H1558  H     0.15903   0.98850   0.56270   0.00000  Uiso   1.00
H1559  H     0.15906   0.68223   0.61765   0.00000  Uiso   1.00
H1560  H     0.09299   0.67619   0.59448   0.00000  Uiso   1.00
O1561  O     0.18891   0.89129   0.89589   0.00000  Uiso   1.00
C1562  C     0.15916   0.93292   0.89830   0.00000  Uiso   1.00
H1563  H     0.12434   0.93341   0.92983   0.00000  Uiso   1.00
H1564  H     0.13720   0.92947   0.87000   0.00000  Uiso   1.00
C1565  C     0.20440   0.98489   0.89636   0.00000  Uiso   1.00
H1566  H     0.24172   0.98608   0.86670   0.00000  Uiso   1.00
H1567  H     0.18050   0.68313   0.89472   0.00000  Uiso   1.00
H1568  H     0.22316   0.99234   0.92612   0.00000  Uiso   1.00
O1569  O     0.32018   0.91224   0.63205   0.00000  Uiso   1.00
H1570  H     0.29228   0.92225   0.65916   0.00000  Uiso   1.00
O1571  O     0.00788   0.76661   0.87322   0.00000  Uiso   1.00
H1572  H     0.33080   0.79272   0.85748   0.00000  Uiso   1.00
O1573  O     0.30155   0.76090   0.96412   0.00000  Uiso   1.00
H1574  H     0.27590   0.75238   0.94223   0.00000  Uiso   1.00
O1575  O     0.02994   0.92271   0.54174   0.00000  Uiso   1.00
H1576  H     0.05586   0.92567   0.56321   0.00000  Uiso   1.00
O1577  O     0.07448   0.82903   0.58775   0.00000  Uiso   1.00
H1578  H     0.02896   0.81781   0.59600   0.00000  Uiso   1.00
O1579  O     0.26770   0.84964   0.91627   0.00000  Uiso   1.00
H1580  H     0.24251   0.81747   0.90598   0.00000  Uiso   1.00
O1581  O     0.22415   0.68471   0.78344   0.00000  Uiso   1.00
H1582  H     0.24773   0.99571   0.79267   0.00000  Uiso   1.00
O1583  O     0.10789   0.98125   0.71849   0.00000  Uiso   1.00
H1584  H     0.07711   0.66742   0.71585   0.00000  Uiso   1.00
O1585  O     0.01260   0.89515   0.77053   0.00000  Uiso   1.00
C1586  C     0.32110   0.91010   0.81362   0.00000  Uiso   1.00
H1587  H     0.32551   0.88289   0.83693   0.00000  Uiso   1.00
H1588  H     0.27217   0.91227   0.81832   0.00000  Uiso   1.00
C1589  C     0.02414   0.96375   0.82282   0.00000  Uiso   1.00
H1590  H     0.00401   0.97850   0.85553   0.00000  Uiso   1.00
H1591  H     0.07267   0.96219   0.82146   0.00000  Uiso   1.00
H1592  H     0.02290   0.99108   0.79857   0.00000  Uiso   1.00
O1593  O     0.33076   0.79520   0.70338   0.00000  Uiso   1.00
C1594  C     0.32656   0.74169   0.70523   0.00000  Uiso   1.00
H1595  H     0.28018   0.72144   0.70099   0.00000  Uiso   1.00
H1596  H     0.33201   0.72911   0.73653   0.00000  Uiso   1.00
C1597  C     0.03821   0.72397   0.66675   0.00000  Uiso   1.00
H1598  H     0.08609   0.73693   0.67082   0.00000  Uiso   1.00
H1599  H     0.02668   0.68111   0.66313   0.00000  Uiso   1.00
H1600  H     0.03445   0.74093   0.63718   0.00000  Uiso   1.00
C1601  C     0.51424   0.93302   0.75245   0.00000  Uiso   1.00
C1602  C     0.48560   0.73357   0.74793   0.00000  Uiso   1.00
C1603  C     0.42850   0.82156   0.54310   0.00000  Uiso   1.00
C1604  C     0.57421   0.85923   0.95942   0.00000  Uiso   1.00
C1605  C     0.38767   0.79664   0.51687   0.00000  Uiso   1.00
C1606  C     0.61347   0.88517   0.98612   0.00000  Uiso   1.00
C1607  C     0.51879   0.98885   0.75835   0.00000  Uiso   1.00
C1608  C     0.48108   0.67765   0.74243   0.00000  Uiso   1.00
C1609  C     0.46179   0.82893   0.83301   0.00000  Uiso   1.00
C1610  C     0.53815   0.83849   0.66709   0.00000  Uiso   1.00
C1611  C     0.43818   0.82356   0.88100   0.00000  Uiso   1.00
C1612  C     0.56181   0.84940   0.61995   0.00000  Uiso   1.00
C1613  C     0.36079   0.78655   0.94498   0.00000  Uiso   1.00
C1614  C     0.63800   0.89464   0.55904   0.00000  Uiso   1.00
C1615  C     0.37943   0.79318   0.89930   0.00000  Uiso   1.00
C1616  C     0.61761   0.88564   0.60436   0.00000  Uiso   1.00
C1617  C     0.47676   0.84753   0.90900   0.00000  Uiso   1.00
C1618  C     0.52684   0.82500   0.59001   0.00000  Uiso   1.00
C1619  C     0.46454   0.83118   0.95234   0.00000  Uiso   1.00
C1620  C     0.53738   0.84691   0.54881   0.00000  Uiso   1.00
C1621  C     0.40397   0.80418   0.97141   0.00000  Uiso   1.00
C1622  C     0.59670   0.87660   0.53133   0.00000  Uiso   1.00
C1623  C     0.51020   0.84276   0.97782   0.00000  Uiso   1.00
C1624  C     0.49173   0.83724   0.52362   0.00000  Uiso   1.00
Cu1625 Cu    0.44071   0.82775   0.74517   0.00000  Uiso   1.00
Cu1626 Cu    0.55929   0.83892   0.75483   0.00000  Uiso   1.00
N1627  N     0.64839   0.84735   0.76212   0.00000  Uiso   1.00
N1628  N     0.35161   0.81932   0.73788   0.00000  Uiso   1.00
O1629  O     0.46148   0.90476   0.74686   0.00000  Uiso   1.00
O1630  O     0.53852   0.76191   0.75314   0.00000  Uiso   1.00
O1631  O     0.56163   0.91420   0.75502   0.00000  Uiso   1.00
O1632  O     0.43837   0.75247   0.74498   0.00000  Uiso   1.00
O1633  O     0.42185   0.82597   0.80855   0.00000  Uiso   1.00
O1634  O     0.57815   0.84070   0.69145   0.00000  Uiso   1.00
O1635  O     0.52199   0.83540   0.81671   0.00000  Uiso   1.00
O1636  O     0.47801   0.83126   0.68329   0.00000  Uiso   1.00
O1637  O     0.66619   0.76396   0.53601   0.00000  Uiso   1.00
C1638  C     0.34732   0.71932   0.54891   0.00000  Uiso   1.00
H1639  H     0.38456   0.72941   0.56654   0.00000  Uiso   1.00
H1640  H     0.36241   0.69449   0.52015   0.00000  Uiso   1.00
C1641  C     0.62584   0.68825   0.57998   0.00000  Uiso   1.00
H1642  H     0.59328   0.99841   0.56119   0.00000  Uiso   1.00
H1643  H     0.64161   0.99461   0.59727   0.00000  Uiso   1.00
H1644  H     0.60343   0.71429   0.60509   0.00000  Uiso   1.00
O1645  O     0.33579   0.91682   0.96729   0.00000  Uiso   1.00
C1646  C     0.65545   0.95988   0.95131   0.00000  Uiso   1.00
H1647  H     0.62875   0.98155   0.97816   0.00000  Uiso   1.00
H1648  H     0.62862   0.94745   0.92583   0.00000  Uiso   1.00
C1649  C     0.38077   0.99620   0.92972   0.00000  Uiso   1.00
H1650  H     0.40323   0.97731   0.89982   0.00000  Uiso   1.00
H1651  H     0.36880   0.69621   0.91851   0.00000  Uiso   1.00
H1652  H     0.41269   0.67565   0.95194   0.00000  Uiso   1.00
O1653  O     0.48637   0.77763   0.60023   0.00000  Uiso   1.00
C1654  C     0.50371   0.73872   0.56868   0.00000  Uiso   1.00
H1655  H     0.55436   0.74369   0.55810   0.00000  Uiso   1.00
H1656  H     0.48664   0.73992   0.53883   0.00000  Uiso   1.00
C1657  C     0.47719   0.68503   0.58723   0.00000  Uiso   1.00
H1658  H     0.49237   0.98850   0.56270   0.00000  Uiso   1.00
H1659  H     0.49240   0.68223   0.61765   0.00000  Uiso   1.00
H1660  H     0.42632   0.67619   0.59448   0.00000  Uiso   1.00
O1661  O     0.52225   0.89129   0.89589   0.00000  Uiso   1.00
C1662  C     0.49250   0.93292   0.89830   0.00000  Uiso   1.00
H1663  H     0.45767   0.93341   0.92983   0.00000  Uiso   1.00
H1664  H     0.47053   0.92947   0.87000   0.00000  Uiso   1.00
C1665  C     0.53774   0.98489   0.89636   0.00000  Uiso   1.00
H1666  H     0.57505   0.98608   0.86670   0.00000  Uiso   1.00
H1667  H     0.51384   0.68313   0.89472   0.00000  Uiso   1.00
H1668  H     0.55649   0.99234   0.92612   0.00000  Uiso   1.00
O1669  O     0.65351   0.91224   0.63205   0.00000  Uiso   1.00
H1670  H     0.62561   0.92225   0.65916   0.00000  Uiso   1.00
O1671  O     0.34122   0.76661   0.87322   0.00000  Uiso   1.00
H1672  H     0.66413   0.79272   0.85748   0.00000  Uiso   1.00
O1673  O     0.63488   0.76090   0.96412   0.00000  Uiso   1.00
H1674  H     0.60923   0.75238   0.94223   0.00000  Uiso   1.00
O1675  O     0.36327   0.92271   0.54174   0.00000  Uiso   1.00
H1676  H     0.38919   0.92567   0.56321   0.00000  Uiso   1.00
O1677  O     0.40782   0.82903   0.58775   0.00000  Uiso   1.00
H1678  H     0.36229   0.81781   0.59600   0.00000  Uiso   1.00
O1679  O     0.60103   0.84964   0.91627   0.00000  Uiso   1.00
H1680  H     0.57585   0.81747   0.90598   0.00000  Uiso   1.00
O1681  O     0.55748   0.68471   0.78344   0.00000  Uiso   1.00
H1682  H     0.58107   0.99571   0.79267   0.00000  Uiso   1.00
O1683  O     0.44122   0.98125   0.71849   0.00000  Uiso   1.00
H1684  H     0.41044   0.66742   0.71585   0.00000  Uiso   1.00
O1685  O     0.34593   0.89515   0.77053   0.00000  Uiso   1.00
C1686  C     0.65444   0.91010   0.81362   0.00000  Uiso   1.00
H1687  H     0.65885   0.88289   0.83693   0.00000  Uiso   1.00
H1688  H     0.60550   0.91227   0.81832   0.00000  Uiso   1.00
C1689  C     0.35748   0.96375   0.82282   0.00000  Uiso   1.00
H1690  H     0.33734   0.97850   0.85553   0.00000  Uiso   1.00
H1691  H     0.40600   0.96219   0.82146   0.00000  Uiso   1.00
H1692  H     0.35624   0.99108   0.79857   0.00000  Uiso   1.00
O1693  O     0.66410   0.79520   0.70338   0.00000  Uiso   1.00
C1694  C     0.65990   0.74169   0.70523   0.00000  Uiso   1.00
H1695  H     0.61351   0.72144   0.70099   0.00000  Uiso   1.00
H1696  H     0.66534   0.72911   0.73653   0.00000  Uiso   1.00
C1697  C     0.37155   0.72397   0.66675   0.00000  Uiso   1.00
H1698  H     0.41942   0.73693   0.67082   0.00000  Uiso   1.00
H1699  H     0.36001   0.68111   0.66313   0.00000  Uiso   1.00
H1700  H     0.36778   0.74093   0.63718   0.00000  Uiso   1.00
C1701  C     0.84758   0.93302   0.75245   0.00000  Uiso   1.00
C1702  C     0.81894   0.73357   0.74793   0.00000  Uiso   1.00
C1703  C     0.76184   0.82156   0.54310   0.00000  Uiso   1.00
C1704  C     0.90754   0.85923   0.95942   0.00000  Uiso   1.00
C1705  C     0.72101   0.79664   0.51687   0.00000  Uiso   1.00
C1706  C     0.94680   0.88517   0.98612   0.00000  Uiso   1.00
C1707  C     0.85213   0.98885   0.75835   0.00000  Uiso   1.00
C1708  C     0.81442   0.67765   0.74243   0.00000  Uiso   1.00
C1709  C     0.79512   0.82893   0.83301   0.00000  Uiso   1.00
C1710  C     0.87149   0.83849   0.66709   0.00000  Uiso   1.00
C1711  C     0.77151   0.82356   0.88100   0.00000  Uiso   1.00
C1712  C     0.89515   0.84940   0.61995   0.00000  Uiso   1.00
C1713  C     0.69412   0.78655   0.94498   0.00000  Uiso   1.00
C1714  C     0.97133   0.89464   0.55904   0.00000  Uiso   1.00
C1715  C     0.71276   0.79318   0.89930   0.00000  Uiso   1.00
C1716  C     0.95094   0.88564   0.60436   0.00000  Uiso   1.00
C1717  C     0.81010   0.84753   0.90900   0.00000  Uiso   1.00
C1718  C     0.86018   0.82500   0.59001   0.00000  Uiso   1.00
C1719  C     0.79788   0.83118   0.95234   0.00000  Uiso   1.00
C1720  C     0.87071   0.84691   0.54881   0.00000  Uiso   1.00
C1721  C     0.73730   0.80418   0.97141   0.00000  Uiso   1.00
C1722  C     0.93003   0.87660   0.53133   0.00000  Uiso   1.00
C1723  C     0.84353   0.84276   0.97782   0.00000  Uiso   1.00
C1724  C     0.82506   0.83724   0.52362   0.00000  Uiso   1.00
Cu1725 Cu    0.77404   0.82775   0.74517   0.00000  Uiso   1.00
Cu1726 Cu    0.89263   0.83892   0.75483   0.00000  Uiso   1.00
N1727  N     0.98173   0.84735   0.76212   0.00000  Uiso   1.00
N1728  N     0.68494   0.81932   0.73788   0.00000  Uiso   1.00
O1729  O     0.79482   0.90476   0.74686   0.00000  Uiso   1.00
O1730  O     0.87185   0.76191   0.75314   0.00000  Uiso   1.00
O1731  O     0.89496   0.91420   0.75502   0.00000  Uiso   1.00
O1732  O     0.77171   0.75247   0.74498   0.00000  Uiso   1.00
O1733  O     0.75518   0.82597   0.80855   0.00000  Uiso   1.00
O1734  O     0.91149   0.84070   0.69145   0.00000  Uiso   1.00
O1735  O     0.85532   0.83540   0.81671   0.00000  Uiso   1.00
O1736  O     0.81134   0.83126   0.68329   0.00000  Uiso   1.00
O1737  O     0.99952   0.76396   0.53601   0.00000  Uiso   1.00
C1738  C     0.68065   0.71932   0.54891   0.00000  Uiso   1.00
H1739  H     0.71789   0.72941   0.56654   0.00000  Uiso   1.00
H1740  H     0.69574   0.69449   0.52015   0.00000  Uiso   1.00
C1741  C     0.95917   0.68825   0.57998   0.00000  Uiso   1.00
H1742  H     0.92662   0.99841   0.56119   0.00000  Uiso   1.00
H1743  H     0.97494   0.99461   0.59727   0.00000  Uiso   1.00
H1744  H     0.93676   0.71429   0.60509   0.00000  Uiso   1.00
O1745  O     0.66912   0.91682   0.96729   0.00000  Uiso   1.00
C1746  C     0.98878   0.95988   0.95131   0.00000  Uiso   1.00
H1747  H     0.96208   0.98155   0.97816   0.00000  Uiso   1.00
H1748  H     0.96195   0.94745   0.92583   0.00000  Uiso   1.00
C1749  C     0.71410   0.99620   0.92972   0.00000  Uiso   1.00
H1750  H     0.73656   0.97731   0.89982   0.00000  Uiso   1.00
H1751  H     0.70213   0.69621   0.91851   0.00000  Uiso   1.00
H1752  H     0.74603   0.67565   0.95194   0.00000  Uiso   1.00
O1753  O     0.81971   0.77763   0.60023   0.00000  Uiso   1.00
C1754  C     0.83705   0.73872   0.56868   0.00000  Uiso   1.00
H1755  H     0.88769   0.74369   0.55810   0.00000  Uiso   1.00
H1756  H     0.81997   0.73992   0.53883   0.00000  Uiso   1.00
C1757  C     0.81052   0.68503   0.58723   0.00000  Uiso   1.00
H1758  H     0.82570   0.98850   0.56270   0.00000  Uiso   1.00
H1759  H     0.82573   0.68223   0.61765   0.00000  Uiso   1.00
H1760  H     0.75965   0.67619   0.59448   0.00000  Uiso   1.00
O1761  O     0.85558   0.89129   0.89589   0.00000  Uiso   1.00
C1762  C     0.82583   0.93292   0.89830   0.00000  Uiso   1.00
H1763  H     0.79101   0.93341   0.92983   0.00000  Uiso   1.00
H1764  H     0.80386   0.92947   0.87000   0.00000  Uiso   1.00
C1765  C     0.87107   0.98489   0.89636   0.00000  Uiso   1.00
H1766  H     0.90839   0.98608   0.86670   0.00000  Uiso   1.00
H1767  H     0.84717   0.68313   0.89472   0.00000  Uiso   1.00
H1768  H     0.88982   0.99234   0.92612   0.00000  Uiso   1.00
O1769  O     0.98685   0.91224   0.63205   0.00000  Uiso   1.00
H1770  H     0.95894   0.92225   0.65916   0.00000  Uiso   1.00
O1771  O     0.67455   0.76661   0.87322   0.00000  Uiso   1.00
H1772  H     0.99746   0.79272   0.85748   0.00000  Uiso   1.00
O1773  O     0.96822   0.76090   0.96412   0.00000  Uiso   1.00
H1774  H     0.94256   0.75238   0.94223   0.00000  Uiso   1.00
O1775  O     0.69660   0.92271   0.54174   0.00000  Uiso   1.00
H1776  H     0.72252   0.92567   0.56321   0.00000  Uiso   1.00
O1777  O     0.74115   0.82903   0.58775   0.00000  Uiso   1.00
H1778  H     0.69563   0.81781   0.59600   0.00000  Uiso   1.00
O1779  O     0.93437   0.84964   0.91627   0.00000  Uiso   1.00
H1780  H     0.90918   0.81747   0.90598   0.00000  Uiso   1.00
O1781  O     0.89081   0.68471   0.78344   0.00000  Uiso   1.00
H1782  H     0.91440   0.99571   0.79267   0.00000  Uiso   1.00
O1783  O     0.77455   0.98125   0.71849   0.00000  Uiso   1.00
H1784  H     0.74377   0.66742   0.71585   0.00000  Uiso   1.00
O1785  O     0.67926   0.89515   0.77053   0.00000  Uiso   1.00
C1786  C     0.98777   0.91010   0.81362   0.00000  Uiso   1.00
H1787  H     0.99218   0.88289   0.83693   0.00000  Uiso   1.00
H1788  H     0.93883   0.91227   0.81832   0.00000  Uiso   1.00
C1789  C     0.69081   0.96375   0.82282   0.00000  Uiso   1.00
H1790  H     0.67068   0.97850   0.85553   0.00000  Uiso   1.00
H1791  H     0.73934   0.96219   0.82146   0.00000  Uiso   1.00
H1792  H     0.68957   0.99108   0.79857   0.00000  Uiso   1.00
O1793  O     0.99743   0.79520   0.70338   0.00000  Uiso   1.00
C1794  C     0.99323   0.74169   0.70523   0.00000  Uiso   1.00
H1795  H     0.94685   0.72144   0.70099   0.00000  Uiso   1.00
H1796  H     0.99867   0.72911   0.73653   0.00000  Uiso   1.00
C1797  C     0.70488   0.72397   0.66675   0.00000  Uiso   1.00
H1798  H     0.75276   0.73693   0.67082   0.00000  Uiso   1.00
H1799  H     0.69335   0.68111   0.66313   0.00000  Uiso   1.00
H1800  H     0.70112   0.74093   0.63718   0.00000  Uiso   1.00
loop_
_geom_bond_atom_site_label_1
_geom_bond_atom_site_label_2
_geom_bond_distance
_geom_bond_site_symmetry_2
_ccdc_geom_bond_type
C1     O31     1.312   .     A
C1     O29     1.309   .     A
C1     C7      1.459   .     S
C2     O32     1.314   .     A
C2     C8      1.461   .     S
C2     O30     1.309   .     A
C3     C24     1.407   .     A
C3     O77     1.384   .     S
C3     C5      1.409   .     A
C4     C6      1.402   .     A
C4     C23     1.418   .     A
C4     O79     1.378   .     S
C5     C921    1.412   1_554 S
C5     O237    1.385   1_455 S
C6     C922    1.409   .     S
C6     O145    1.383   .     S
C7     C308    1.353   .     S
C7     O381    1.386   .     S
C8     C607    1.353   1_545 S
C8     O683    1.385   1_545 S
C9     O33     1.315   .     A
C9     C11     1.487   .     S
C9     O35     1.323   .     A
C10    O34     1.317   .     A
C10    C12     1.485   .     S
C10    O36     1.320   .     A
C11    C15     1.415   .     A
C11    C17     1.407   .     A
C12    C16     1.420   .     A
C12    C18     1.403   .     A
C13    C21     1.415   .     A
C13    C15     1.415   .     A
C13    O273    1.385   1_455 S
C14    C16     1.416   .     A
C14    C22     1.414   .     A
C14    O175    1.382   .     S
C15    O71     1.377   .     S
C16    O69     1.380   .     S
C17    O61     1.389   .     S
C17    C19     1.415   .     A
C18    O53     1.392   .     S
C18    C20     1.416   .     A
C19    C21     1.419   .     A
C19    C23     1.429   .     A
C20    C24     1.423   .     A
C20    C22     1.411   .     A
C21    C905    1.412   .     S
C22    C906    1.409   1_554 S
C23    C924    1.415   .     S
C24    C923    1.415   1_554 S
Cu25   N28     2.062   .     S
Cu25   O32     1.985   .     S
Cu25   O29     1.988   .     S
Cu25   Cu26    2.744   .     S
Cu25   O36     1.933   .     S
Cu25   O33     1.943   .     S
Cu26   N27     2.062   .     S
Cu26   O34     1.943   .     S
Cu26   O31     1.985   .     S
Cu26   O30     1.988   .     S
Cu26   O35     1.933   .     S
N27    N128    1.306   .     S
N27    O185    1.341   .     S
N28    N227    1.306   1_455 S
N28    O293    1.344   1_455 S
O37    C105    1.385   .     S
O37    C138    1.417   .     S
C38    H39     1.096   .     S
C38    H40     1.104   .     S
C38    O237    1.417   1_455 S
C38    C241    1.514   1_455 S
C41    H44     1.110   .     S
C41    C138    1.514   .     S
C41    H642    1.105   1_545 S
C41    H643    1.105   1_545 S
H42    C341    1.105   .     S
H43    C341    1.105   .     S
O45    C206    1.383   1_455 S
O45    C246    1.414   1_455 S
C46    H47     1.114   .     S
C46    H48     1.108   .     S
C46    O145    1.414   .     S
C46    C149    1.509   .     S
C49    H50     1.096   .     S
C49    C246    1.509   1_455 S
C49    H351    1.093   .     S
C49    H352    1.108   .     S
H51    C649    1.093   1_545 S
H52    C649    1.108   1_545 S
O53    C54     1.422   .     S
C54    H56     1.108   .     S
C54    H55     1.104   .     S
C54    C57     1.525   .     S
C57    H59     1.110   .     S
C57    H60     1.102   .     S
C57    H658    1.109   1_545 S
H58    C357    1.109   .     S
O61    C62     1.410   .     S
C62    H64     1.112   .     S
C62    H63     1.114   .     S
C62    C65     1.520   .     S
C65    H68     1.107   .     S
C65    H66     1.100   .     S
C65    H367    1.110   .     S
H67    C665    1.110   1_545 S
O69    H70     0.990   .     S
O71    H272    0.989   1_455 S
H72    O171    0.989   .     S
O73    H74     0.989   .     S
O73    C113    1.385   .     S
O75    H76     0.989   .     S
O75    C214    1.382   1_455 S
O77    H78     0.990   .     S
O79    H80     0.991   .     S
O81    C607    1.386   1_545 S
O81    H682    0.989   1_545 S
H82    O381    0.989   .     S
O83    C308    1.385   .     S
O83    H384    0.985   .     S
H84    O683    0.985   1_545 S
O85    N227    1.341   1_455 S
O85    C286    1.399   1_455 S
C86    H88     1.105   .     S
C86    H87     1.112   .     S
C86    O185    1.399   .     S
C86    C189    1.518   .     S
C89    H91     1.108   .     S
C89    H92     1.110   .     S
C89    H90     1.099   .     S
C89    C286    1.518   1_455 S
O93    C94     1.406   .     S
O93    N128    1.344   .     S
C94    H95     1.107   .     S
C94    H96     1.113   .     S
C94    C197    1.504   .     S
C97    H98     1.104   .     S
C97    H99     1.109   .     S
C97    H100    1.101   .     S
C97    C294    1.504   1_455 S
C101   O131    1.312   .     A
C101   O129    1.309   .     A
C101   C107    1.459   .     S
C102   O132    1.314   .     A
C102   C108    1.461   .     S
C102   O130    1.309   .     A
C103   C124    1.407   .     A
C103   O177    1.384   .     S
C103   C105    1.409   .     A
C104   C106    1.402   .     A
C104   C123    1.418   .     A
C104   O179    1.378   .     S
C105   C1021   1.412   1_554 S
C106   C1022   1.409   .     S
C106   O245    1.383   .     S
C107   C408    1.353   .     S
C107   O481    1.386   .     S
C108   C707    1.353   1_545 S
C108   O783    1.385   1_545 S
C109   O133    1.315   .     A
C109   C111    1.487   .     S
C109   O135    1.323   .     A
C110   O134    1.317   .     A
C110   C112    1.485   .     S
C110   O136    1.320   .     A
C111   C115    1.415   .     A
C111   C117    1.407   .     A
C112   C116    1.420   .     A
C112   C118    1.403   .     A
C113   C121    1.415   .     A
C113   C115    1.415   .     A
C114   C116    1.416   .     A
C114   C122    1.414   .     A
C114   O275    1.382   .     S
C115   O171    1.377   .     S
C116   O169    1.380   .     S
C117   O161    1.389   .     S
C117   C119    1.415   .     A
C118   O153    1.392   .     S
C118   C120    1.416   .     A
C119   C121    1.419   .     A
C119   C123    1.429   .     A
C120   C124    1.423   .     A
C120   C122    1.411   .     A
C121   C1005   1.412   .     S
C122   C1006   1.409   1_554 S
C123   C1024   1.415   .     S
C124   C1023   1.415   1_554 S
Cu125  N128    2.062   .     S
Cu125  O132    1.985   .     S
Cu125  O129    1.988   .     S
Cu125  Cu126   2.744   .     S
Cu125  O136    1.933   .     S
Cu125  O133    1.943   .     S
Cu126  N127    2.062   .     S
Cu126  O134    1.943   .     S
Cu126  O131    1.985   .     S
Cu126  O130    1.988   .     S
Cu126  O135    1.933   .     S
N127   N228    1.306   .     S
N127   O285    1.341   .     S
O137   C205    1.385   .     S
O137   C238    1.417   .     S
C138   H139    1.096   .     S
C138   H140    1.104   .     S
C141   H144    1.110   .     S
C141   C238    1.514   .     S
C141   H742    1.105   1_545 S
C141   H743    1.105   1_545 S
H142   C441    1.105   .     S
H143   C441    1.105   .     S
C146   H147    1.114   .     S
C146   H148    1.108   .     S
C146   O245    1.414   .     S
C146   C249    1.509   .     S
C149   H150    1.096   .     S
C149   H451    1.093   .     S
C149   H452    1.108   .     S
H151   C749    1.093   1_545 S
H152   C749    1.108   1_545 S
O153   C154    1.422   .     S
C154   H156    1.108   .     S
C154   H155    1.104   .     S
C154   C157    1.525   .     S
C157   H159    1.110   .     S
C157   H160    1.102   .     S
C157   H758    1.109   1_545 S
H158   C457    1.109   .     S
O161   C162    1.410   .     S
C162   H164    1.112   .     S
C162   H163    1.114   .     S
C162   C165    1.520   .     S
C165   H168    1.107   .     S
C165   H166    1.100   .     S
C165   H467    1.110   .     S
H167   C765    1.110   1_545 S
O169   H170    0.990   .     S
H172   O271    0.989   .     S
O173   H174    0.989   .     S
O173   C213    1.385   .     S
O175   H176    0.989   .     S
O177   H178    0.990   .     S
O179   H180    0.991   .     S
O181   C707    1.386   1_545 S
O181   H782    0.989   1_545 S
H182   O481    0.989   .     S
O183   C408    1.385   .     S
O183   H484    0.985   .     S
H184   O783    0.985   1_545 S
C186   H188    1.105   .     S
C186   H187    1.112   .     S
C186   O285    1.399   .     S
C186   C289    1.518   .     S
C189   H191    1.108   .     S
C189   H192    1.110   .     S
C189   H190    1.099   .     S
O193   C194    1.406   .     S
O193   N228    1.344   .     S
C194   H195    1.107   .     S
C194   H196    1.113   .     S
C194   C297    1.504   .     S
C197   H198    1.104   .     S
C197   H199    1.109   .     S
C197   H200    1.101   .     S
C201   O231    1.312   .     A
C201   O229    1.309   .     A
C201   C207    1.459   .     S
C202   O232    1.314   .     A
C202   C208    1.461   .     S
C202   O230    1.309   .     A
C203   C224    1.407   .     A
C203   O277    1.384   .     S
C203   C205    1.409   .     A
C204   C206    1.402   .     A
C204   C223    1.418   .     A
C204   O279    1.378   .     S
C205   C1121   1.412   1_554 S
C206   C1122   1.409   .     S
C206   O45     1.383   1_655 S
C207   C508    1.353   .     S
C207   O581    1.386   .     S
C208   C807    1.353   1_545 S
C208   O883    1.385   1_545 S
C209   O233    1.315   .     A
C209   C211    1.487   .     S
C209   O235    1.323   .     A
C210   O234    1.317   .     A
C210   C212    1.485   .     S
C210   O236    1.320   .     A
C211   C215    1.415   .     A
C211   C217    1.407   .     A
C212   C216    1.420   .     A
C212   C218    1.403   .     A
C213   C221    1.415   .     A
C213   C215    1.415   .     A
C214   C216    1.416   .     A
C214   C222    1.414   .     A
C214   O75     1.382   1_655 S
C215   O271    1.377   .     S
C216   O269    1.380   .     S
C217   O261    1.389   .     S
C217   C219    1.415   .     A
C218   O253    1.392   .     S
C218   C220    1.416   .     A
C219   C221    1.419   .     A
C219   C223    1.429   .     A
C220   C224    1.423   .     A
C220   C222    1.411   .     A
C221   C1105   1.412   .     S
C222   C1106   1.409   1_554 S
C223   C1124   1.415   .     S
C224   C1123   1.415   1_554 S
Cu225  N228    2.062   .     S
Cu225  O232    1.985   .     S
Cu225  O229    1.988   .     S
Cu225  Cu226   2.744   .     S
Cu225  O236    1.933   .     S
Cu225  O233    1.943   .     S
Cu226  N227    2.062   .     S
Cu226  O234    1.943   .     S
Cu226  O231    1.985   .     S
Cu226  O230    1.988   .     S
Cu226  O235    1.933   .     S
N227   N28     1.306   1_655 S
N227   O85     1.341   1_655 S
O237   C5      1.385   1_655 S
O237   C38     1.417   1_655 S
C238   H239    1.096   .     S
C238   H240    1.104   .     S
C241   H244    1.110   .     S
C241   C38     1.514   1_655 S
C241   H842    1.105   1_545 S
C241   H843    1.105   1_545 S
H242   C541    1.105   .     S
H243   C541    1.105   .     S
C246   H247    1.114   .     S
C246   H248    1.108   .     S
C246   O45     1.414   1_655 S
C246   C49     1.509   1_655 S
C249   H250    1.096   .     S
C249   H551    1.093   .     S
C249   H552    1.108   .     S
H251   C849    1.093   1_545 S
H252   C849    1.108   1_545 S
O253   C254    1.422   .     S
C254   H256    1.108   .     S
C254   H255    1.104   .     S
C254   C257    1.525   .     S
C257   H259    1.110   .     S
C257   H260    1.102   .     S
C257   H858    1.109   1_545 S
H258   C557    1.109   .     S
O261   C262    1.410   .     S
C262   H264    1.112   .     S
C262   H263    1.114   .     S
C262   C265    1.520   .     S
C265   H268    1.107   .     S
C265   H266    1.100   .     S
C265   H567    1.110   .     S
H267   C865    1.110   1_545 S
O269   H270    0.990   .     S
H272   O71     0.989   1_655 S
O273   H274    0.989   .     S
O273   C13     1.385   1_655 S
O275   H276    0.989   .     S
O277   H278    0.990   .     S
O279   H280    0.991   .     S
O281   C807    1.386   1_545 S
O281   H882    0.989   1_545 S
H282   O581    0.989   .     S
O283   C508    1.385   .     S
O283   H584    0.985   .     S
H284   O883    0.985   1_545 S
C286   H288    1.105   .     S
C286   H287    1.112   .     S
C286   O85     1.399   1_655 S
C286   C89     1.518   1_655 S
C289   H291    1.108   .     S
C289   H292    1.110   .     S
C289   H290    1.099   .     S
O293   C294    1.406   .     S
O293   N28     1.344   1_655 S
C294   H295    1.107   .     S
C294   H296    1.113   .     S
C294   C97     1.504   1_655 S
C297   H298    1.104   .     S
C297   H299    1.109   .     S
C297   H300    1.101   .     S
C301   O331    1.312   .     A
C301   O329    1.309   .     A
C301   C307    1.459   .     S
C302   O332    1.314   .     A
C302   C308    1.461   .     S
C302   O330    1.309   .     A
C303   C324    1.407   .     A
C303   O377    1.384   .     S
C303   C305    1.409   .     A
C304   C306    1.402   .     A
C304   C323    1.418   .     A
C304   O379    1.378   .     S
C305   C1221   1.412   1_554 S
C305   O537    1.385   1_455 S
C306   C1222   1.409   .     S
C306   O445    1.383   .     S
C307   C608    1.353   .     S
C307   O681    1.386   .     S
C309   O333    1.315   .     A
C309   C311    1.487   .     S
C309   O335    1.323   .     A
C310   O334    1.317   .     A
C310   C312    1.485   .     S
C310   O336    1.320   .     A
C311   C315    1.415   .     A
C311   C317    1.407   .     A
C312   C316    1.420   .     A
C312   C318    1.403   .     A
C313   C321    1.415   .     A
C313   C315    1.415   .     A
C313   O573    1.385   1_455 S
C314   C316    1.416   .     A
C314   C322    1.414   .     A
C314   O475    1.382   .     S
C315   O371    1.377   .     S
C316   O369    1.380   .     S
C317   O361    1.389   .     S
C317   C319    1.415   .     A
C318   O353    1.392   .     S
C318   C320    1.416   .     A
C319   C321    1.419   .     A
C319   C323    1.429   .     A
C320   C324    1.423   .     A
C320   C322    1.411   .     A
C321   C1205   1.412   .     S
C322   C1206   1.409   1_554 S
C323   C1224   1.415   .     S
C324   C1223   1.415   1_554 S
Cu325  N328    2.062   .     S
Cu325  O332    1.985   .     S
Cu325  O329    1.988   .     S
Cu325  Cu326   2.744   .     S
Cu325  O336    1.933   .     S
Cu325  O333    1.943   .     S
Cu326  N327    2.062   .     S
Cu326  O334    1.943   .     S
Cu326  O331    1.985   .     S
Cu326  O330    1.988   .     S
Cu326  O335    1.933   .     S
N327   N428    1.306   .     S
N327   O485    1.341   .     S
N328   N527    1.306   1_455 S
N328   O593    1.344   1_455 S
O337   C405    1.385   .     S
O337   C438    1.417   .     S
C338   H339    1.096   .     S
C338   H340    1.104   .     S
C338   O537    1.417   1_455 S
C338   C541    1.514   1_455 S
C341   H344    1.110   .     S
C341   C438    1.514   .     S
H342   C641    1.105   .     S
H343   C641    1.105   .     S
O345   C506    1.383   1_455 S
O345   C546    1.414   1_455 S
C346   H347    1.114   .     S
C346   H348    1.108   .     S
C346   O445    1.414   .     S
C346   C449    1.509   .     S
C349   H350    1.096   .     S
C349   C546    1.509   1_455 S
C349   H651    1.093   .     S
C349   H652    1.108   .     S
O353   C354    1.422   .     S
C354   H356    1.108   .     S
C354   H355    1.104   .     S
C354   C357    1.525   .     S
C357   H359    1.110   .     S
C357   H360    1.102   .     S
H358   C657    1.109   .     S
O361   C362    1.410   .     S
C362   H364    1.112   .     S
C362   H363    1.114   .     S
C362   C365    1.520   .     S
C365   H368    1.107   .     S
C365   H366    1.100   .     S
C365   H667    1.110   .     S
O369   H370    0.990   .     S
O371   H572    0.989   1_455 S
H372   O471    0.989   .     S
O373   H374    0.989   .     S
O373   C413    1.385   .     S
O375   H376    0.989   .     S
O375   C514    1.382   1_455 S
O377   H378    0.990   .     S
O379   H380    0.991   .     S
H382   O681    0.989   .     S
O383   C608    1.385   .     S
O383   H684    0.985   .     S
O385   N527    1.341   1_455 S
O385   C586    1.399   1_455 S
C386   H388    1.105   .     S
C386   H387    1.112   .     S
C386   O485    1.399   .     S
C386   C489    1.518   .     S
C389   H391    1.108   .     S
C389   H392    1.110   .     S
C389   H390    1.099   .     S
C389   C586    1.518   1_455 S
O393   C394    1.406   .     S
O393   N428    1.344   .     S
C394   H395    1.107   .     S
C394   H396    1.113   .     S
C394   C497    1.504   .     S
C397   H398    1.104   .     S
C397   H399    1.109   .     S
C397   H400    1.101   .     S
C397   C594    1.504   1_455 S
C401   O431    1.312   .     A
C401   O429    1.309   .     A
C401   C407    1.459   .     S
C402   O432    1.314   .     A
C402   C408    1.461   .     S
C402   O430    1.309   .     A
C403   C424    1.407   .     A
C403   O477    1.384   .     S
C403   C405    1.409   .     A
C404   C406    1.402   .     A
C404   C423    1.418   .     A
C404   O479    1.378   .     S
C405   C1321   1.412   1_554 S
C406   C1322   1.409   .     S
C406   O545    1.383   .     S
C407   C708    1.353   .     S
C407   O781    1.386   .     S
C409   O433    1.315   .     A
C409   C411    1.487   .     S
C409   O435    1.323   .     A
C410   O434    1.317   .     A
C410   C412    1.485   .     S
C410   O436    1.320   .     A
C411   C415    1.415   .     A
C411   C417    1.407   .     A
C412   C416    1.420   .     A
C412   C418    1.403   .     A
C413   C421    1.415   .     A
C413   C415    1.415   .     A
C414   C416    1.416   .     A
C414   C422    1.414   .     A
C414   O575    1.382   .     S
C415   O471    1.377   .     S
C416   O469    1.380   .     S
C417   O461    1.389   .     S
C417   C419    1.415   .     A
C418   O453    1.392   .     S
C418   C420    1.416   .     A
C419   C421    1.419   .     A
C419   C423    1.429   .     A
C420   C424    1.423   .     A
C420   C422    1.411   .     A
C421   C1305   1.412   .     S
C422   C1306   1.409   1_554 S
C423   C1324   1.415   .     S
C424   C1323   1.415   1_554 S
Cu425  N428    2.062   .     S
Cu425  O432    1.985   .     S
Cu425  O429    1.988   .     S
Cu425  Cu426   2.744   .     S
Cu425  O436    1.933   .     S
Cu425  O433    1.943   .     S
Cu426  N427    2.062   .     S
Cu426  O434    1.943   .     S
Cu426  O431    1.985   .     S
Cu426  O430    1.988   .     S
Cu426  O435    1.933   .     S
N427   N528    1.306   .     S
N427   O585    1.341   .     S
O437   C505    1.385   .     S
O437   C538    1.417   .     S
C438   H439    1.096   .     S
C438   H440    1.104   .     S
C441   H444    1.110   .     S
C441   C538    1.514   .     S
H442   C741    1.105   .     S
H443   C741    1.105   .     S
C446   H447    1.114   .     S
C446   H448    1.108   .     S
C446   O545    1.414   .     S
C446   C549    1.509   .     S
C449   H450    1.096   .     S
C449   H751    1.093   .     S
C449   H752    1.108   .     S
O453   C454    1.422   .     S
C454   H456    1.108   .     S
C454   H455    1.104   .     S
C454   C457    1.525   .     S
C457   H459    1.110   .     S
C457   H460    1.102   .     S
H458   C757    1.109   .     S
O461   C462    1.410   .     S
C462   H464    1.112   .     S
C462   H463    1.114   .     S
C462   C465    1.520   .     S
C465   H468    1.107   .     S
C465   H466    1.100   .     S
C465   H767    1.110   .     S
O469   H470    0.990   .     S
H472   O571    0.989   .     S
O473   H474    0.989   .     S
O473   C513    1.385   .     S
O475   H476    0.989   .     S
O477   H478    0.990   .     S
O479   H480    0.991   .     S
H482   O781    0.989   .     S
O483   C708    1.385   .     S
O483   H784    0.985   .     S
C486   H488    1.105   .     S
C486   H487    1.112   .     S
C486   O585    1.399   .     S
C486   C589    1.518   .     S
C489   H491    1.108   .     S
C489   H492    1.110   .     S
C489   H490    1.099   .     S
O493   C494    1.406   .     S
O493   N528    1.344   .     S
C494   H495    1.107   .     S
C494   H496    1.113   .     S
C494   C597    1.504   .     S
C497   H498    1.104   .     S
C497   H499    1.109   .     S
C497   H500    1.101   .     S
C501   O531    1.312   .     A
C501   O529    1.309   .     A
C501   C507    1.459   .     S
C502   O532    1.314   .     A
C502   C508    1.461   .     S
C502   O530    1.309   .     A
C503   C524    1.407   .     A
C503   O577    1.384   .     S
C503   C505    1.409   .     A
C504   C506    1.402   .     A
C504   C523    1.418   .     A
C504   O579    1.378   .     S
C505   C1421   1.412   1_554 S
C506   C1422   1.409   .     S
C506   O345    1.383   1_655 S
C507   C808    1.353   .     S
C507   O881    1.386   .     S
C509   O533    1.315   .     A
C509   C511    1.487   .     S
C509   O535    1.323   .     A
C510   O534    1.317   .     A
C510   C512    1.485   .     S
C510   O536    1.320   .     A
C511   C515    1.415   .     A
C511   C517    1.407   .     A
C512   C516    1.420   .     A
C512   C518    1.403   .     A
C513   C521    1.415   .     A
C513   C515    1.415   .     A
C514   C516    1.416   .     A
C514   C522    1.414   .     A
C514   O375    1.382   1_655 S
C515   O571    1.377   .     S
C516   O569    1.380   .     S
C517   O561    1.389   .     S
C517   C519    1.415   .     A
C518   O553    1.392   .     S
C518   C520    1.416   .     A
C519   C521    1.419   .     A
C519   C523    1.429   .     A
C520   C524    1.423   .     A
C520   C522    1.411   .     A
C521   C1405   1.412   .     S
C522   C1406   1.409   1_554 S
C523   C1424   1.415   .     S
C524   C1423   1.415   1_554 S
Cu525  N528    2.062   .     S
Cu525  O532    1.985   .     S
Cu525  O529    1.988   .     S
Cu525  Cu526   2.744   .     S
Cu525  O536    1.933   .     S
Cu525  O533    1.943   .     S
Cu526  N527    2.062   .     S
Cu526  O534    1.943   .     S
Cu526  O531    1.985   .     S
Cu526  O530    1.988   .     S
Cu526  O535    1.933   .     S
N527   N328    1.306   1_655 S
N527   O385    1.341   1_655 S
O537   C305    1.385   1_655 S
O537   C338    1.417   1_655 S
C538   H539    1.096   .     S
C538   H540    1.104   .     S
C541   H544    1.110   .     S
C541   C338    1.514   1_655 S
H542   C841    1.105   .     S
H543   C841    1.105   .     S
C546   H547    1.114   .     S
C546   H548    1.108   .     S
C546   O345    1.414   1_655 S
C546   C349    1.509   1_655 S
C549   H550    1.096   .     S
C549   H851    1.093   .     S
C549   H852    1.108   .     S
O553   C554    1.422   .     S
C554   H556    1.108   .     S
C554   H555    1.104   .     S
C554   C557    1.525   .     S
C557   H559    1.110   .     S
C557   H560    1.102   .     S
H558   C857    1.109   .     S
O561   C562    1.410   .     S
C562   H564    1.112   .     S
C562   H563    1.114   .     S
C562   C565    1.520   .     S
C565   H568    1.107   .     S
C565   H566    1.100   .     S
C565   H867    1.110   .     S
O569   H570    0.990   .     S
H572   O371    0.989   1_655 S
O573   H574    0.989   .     S
O573   C313    1.385   1_655 S
O575   H576    0.989   .     S
O577   H578    0.990   .     S
O579   H580    0.991   .     S
H582   O881    0.989   .     S
O583   C808    1.385   .     S
O583   H884    0.985   .     S
C586   H588    1.105   .     S
C586   H587    1.112   .     S
C586   O385    1.399   1_655 S
C586   C389    1.518   1_655 S
C589   H591    1.108   .     S
C589   H592    1.110   .     S
C589   H590    1.099   .     S
O593   C594    1.406   .     S
O593   N328    1.344   1_655 S
C594   H595    1.107   .     S
C594   H596    1.113   .     S
C594   C397    1.504   1_655 S
C597   H598    1.104   .     S
C597   H599    1.109   .     S
C597   H600    1.101   .     S
C601   O631    1.312   .     A
C601   O629    1.309   .     A
C601   C607    1.459   .     S
C602   O632    1.314   .     A
C602   C608    1.461   .     S
C602   O630    1.309   .     A
C603   C624    1.407   .     A
C603   O677    1.384   .     S
C603   C605    1.409   .     A
C604   C606    1.402   .     A
C604   C623    1.418   .     A
C604   O679    1.378   .     S
C605   C1521   1.412   1_554 S
C605   O837    1.385   1_455 S
C606   C1522   1.409   .     S
C606   O745    1.383   .     S
C607   C8      1.353   1_565 S
C607   O81     1.386   1_565 S
C609   O633    1.315   .     A
C609   C611    1.487   .     S
C609   O635    1.323   .     A
C610   O634    1.317   .     A
C610   C612    1.485   .     S
C610   O636    1.320   .     A
C611   C615    1.415   .     A
C611   C617    1.407   .     A
C612   C616    1.420   .     A
C612   C618    1.403   .     A
C613   C621    1.415   .     A
C613   C615    1.415   .     A
C613   O873    1.385   1_455 S
C614   C616    1.416   .     A
C614   C622    1.414   .     A
C614   O775    1.382   .     S
C615   O671    1.377   .     S
C616   O669    1.380   .     S
C617   O661    1.389   .     S
C617   C619    1.415   .     A
C618   O653    1.392   .     S
C618   C620    1.416   .     A
C619   C621    1.419   .     A
C619   C623    1.429   .     A
C620   C624    1.423   .     A
C620   C622    1.411   .     A
C621   C1505   1.412   .     S
C622   C1506   1.409   1_554 S
C623   C1524   1.415   .     S
C624   C1523   1.415   1_554 S
Cu625  N628    2.062   .     S
Cu625  O632    1.985   .     S
Cu625  O629    1.988   .     S
Cu625  Cu626   2.744   .     S
Cu625  O636    1.933   .     S
Cu625  O633    1.943   .     S
Cu626  N627    2.062   .     S
Cu626  O634    1.943   .     S
Cu626  O631    1.985   .     S
Cu626  O630    1.988   .     S
Cu626  O635    1.933   .     S
N627   N728    1.306   .     S
N627   O785    1.341   .     S
N628   N827    1.306   1_455 S
N628   O893    1.344   1_455 S
O637   C705    1.385   .     S
O637   C738    1.417   .     S
C638   H639    1.096   .     S
C638   H640    1.104   .     S
C638   O837    1.417   1_455 S
C638   C841    1.514   1_455 S
C641   H644    1.110   .     S
C641   C738    1.514   .     S
H642   C41     1.105   1_565 S
H643   C41     1.105   1_565 S
O645   C806    1.383   1_455 S
O645   C846    1.414   1_455 S
C646   H647    1.114   .     S
C646   H648    1.108   .     S
C646   O745    1.414   .     S
C646   C749    1.509   .     S
C649   H650    1.096   .     S
C649   C846    1.509   1_455 S
C649   H51     1.093   1_565 S
C649   H52     1.108   1_565 S
O653   C654    1.422   .     S
C654   H656    1.108   .     S
C654   H655    1.104   .     S
C654   C657    1.525   .     S
C657   H659    1.110   .     S
C657   H660    1.102   .     S
H658   C57     1.109   1_565 S
O661   C662    1.410   .     S
C662   H664    1.112   .     S
C662   H663    1.114   .     S
C662   C665    1.520   .     S
C665   H668    1.107   .     S
C665   H666    1.100   .     S
C665   H67     1.110   1_565 S
O669   H670    0.990   .     S
O671   H872    0.989   1_455 S
H672   O771    0.989   .     S
O673   H674    0.989   .     S
O673   C713    1.385   .     S
O675   H676    0.989   .     S
O675   C814    1.382   1_455 S
O677   H678    0.990   .     S
O679   H680    0.991   .     S
H682   O81     0.989   1_565 S
O683   C8      1.385   1_565 S
O683   H84     0.985   1_565 S
O685   N827    1.341   1_455 S
O685   C886    1.399   1_455 S
C686   H688    1.105   .     S
C686   H687    1.112   .     S
C686   O785    1.399   .     S
C686   C789    1.518   .     S
C689   H691    1.108   .     S
C689   H692    1.110   .     S
C689   H690    1.099   .     S
C689   C886    1.518   1_455 S
O693   C694    1.406   .     S
O693   N728    1.344   .     S
C694   H695    1.107   .     S
C694   H696    1.113   .     S
C694   C797    1.504   .     S
C697   H698    1.104   .     S
C697   H699    1.109   .     S
C697   H700    1.101   .     S
C697   C894    1.504   1_455 S
C701   O731    1.312   .     A
C701   O729    1.309   .     A
C701   C707    1.459   .     S
C702   O732    1.314   .     A
C702   C708    1.461   .     S
C702   O730    1.309   .     A
C703   C724    1.407   .     A
C703   O777    1.384   .     S
C703   C705    1.409   .     A
C704   C706    1.402   .     A
C704   C723    1.418   .     A
C704   O779    1.378   .     S
C705   C1621   1.412   1_554 S
C706   C1622   1.409   .     S
C706   O845    1.383   .     S
C707   C108    1.353   1_565 S
C707   O181    1.386   1_565 S
C709   O733    1.315   .     A
C709   C711    1.487   .     S
C709   O735    1.323   .     A
C710   O734    1.317   .     A
C710   C712    1.485   .     S
C710   O736    1.320   .     A
C711   C715    1.415   .     A
C711   C717    1.407   .     A
C712   C716    1.420   .     A
C712   C718    1.403   .     A
C713   C721    1.415   .     A
C713   C715    1.415   .     A
C714   C716    1.416   .     A
C714   C722    1.414   .     A
C714   O875    1.382   .     S
C715   O771    1.377   .     S
C716   O769    1.380   .     S
C717   O761    1.389   .     S
C717   C719    1.415   .     A
C718   O753    1.392   .     S
C718   C720    1.416   .     A
C719   C721    1.419   .     A
C719   C723    1.429   .     A
C720   C724    1.423   .     A
C720   C722    1.411   .     A
C721   C1605   1.412   .     S
C722   C1606   1.409   1_554 S
C723   C1624   1.415   .     S
C724   C1623   1.415   1_554 S
Cu725  N728    2.062   .     S
Cu725  O732    1.985   .     S
Cu725  O729    1.988   .     S
Cu725  Cu726   2.744   .     S
Cu725  O736    1.933   .     S
Cu725  O733    1.943   .     S
Cu726  N727    2.062   .     S
Cu726  O734    1.943   .     S
Cu726  O731    1.985   .     S
Cu726  O730    1.988   .     S
Cu726  O735    1.933   .     S
N727   N828    1.306   .     S
N727   O885    1.341   .     S
O737   C805    1.385   .     S
O737   C838    1.417   .     S
C738   H739    1.096   .     S
C738   H740    1.104   .     S
C741   H744    1.110   .     S
C741   C838    1.514   .     S
H742   C141    1.105   1_565 S
H743   C141    1.105   1_565 S
C746   H747    1.114   .     S
C746   H748    1.108   .     S
C746   O845    1.414   .     S
C746   C849    1.509   .     S
C749   H750    1.096   .     S
C749   H151    1.093   1_565 S
C749   H152    1.108   1_565 S
O753   C754    1.422   .     S
C754   H756    1.108   .     S
C754   H755    1.104   .     S
C754   C757    1.525   .     S
C757   H759    1.110   .     S
C757   H760    1.102   .     S
H758   C157    1.109   1_565 S
O761   C762    1.410   .     S
C762   H764    1.112   .     S
C762   H763    1.114   .     S
C762   C765    1.520   .     S
C765   H768    1.107   .     S
C765   H766    1.100   .     S
C765   H167    1.110   1_565 S
O769   H770    0.990   .     S
H772   O871    0.989   .     S
O773   H774    0.989   .     S
O773   C813    1.385   .     S
O775   H776    0.989   .     S
O777   H778    0.990   .     S
O779   H780    0.991   .     S
H782   O181    0.989   1_565 S
O783   C108    1.385   1_565 S
O783   H184    0.985   1_565 S
C786   H788    1.105   .     S
C786   H787    1.112   .     S
C786   O885    1.399   .     S
C786   C889    1.518   .     S
C789   H791    1.108   .     S
C789   H792    1.110   .     S
C789   H790    1.099   .     S
O793   C794    1.406   .     S
O793   N828    1.344   .     S
C794   H795    1.107   .     S
C794   H796    1.113   .     S
C794   C897    1.504   .     S
C797   H798    1.104   .     S
C797   H799    1.109   .     S
C797   H800    1.101   .     S
C801   O831    1.312   .     A
C801   O829    1.309   .     A
C801   C807    1.459   .     S
C802   O832    1.314   .     A
C802   C808    1.461   .     S
C802   O830    1.309   .     A
C803   C824    1.407   .     A
C803   O877    1.384   .     S
C803   C805    1.409   .     A
C804   C806    1.402   .     A
C804   C823    1.418   .     A
C804   O879    1.378   .     S
C805   C1721   1.412   1_554 S
C806   C1722   1.409   .     S
C806   O645    1.383   1_655 S
C807   C208    1.353   1_565 S
C807   O281    1.386   1_565 S
C809   O833    1.315   .     A
C809   C811    1.487   .     S
C809   O835    1.323   .     A
C810   O834    1.317   .     A
C810   C812    1.485   .     S
C810   O836    1.320   .     A
C811   C815    1.415   .     A
C811   C817    1.407   .     A
C812   C816    1.420   .     A
C812   C818    1.403   .     A
C813   C821    1.415   .     A
C813   C815    1.415   .     A
C814   C816    1.416   .     A
C814   C822    1.414   .     A
C814   O675    1.382   1_655 S
C815   O871    1.377   .     S
C816   O869    1.380   .     S
C817   O861    1.389   .     S
C817   C819    1.415   .     A
C818   O853    1.392   .     S
C818   C820    1.416   .     A
C819   C821    1.419   .     A
C819   C823    1.429   .     A
C820   C824    1.423   .     A
C820   C822    1.411   .     A
C821   C1705   1.412   .     S
C822   C1706   1.409   1_554 S
C823   C1724   1.415   .     S
C824   C1723   1.415   1_554 S
Cu825  N828    2.062   .     S
Cu825  O832    1.985   .     S
Cu825  O829    1.988   .     S
Cu825  Cu826   2.744   .     S
Cu825  O836    1.933   .     S
Cu825  O833    1.943   .     S
Cu826  N827    2.062   .     S
Cu826  O834    1.943   .     S
Cu826  O831    1.985   .     S
Cu826  O830    1.988   .     S
Cu826  O835    1.933   .     S
N827   N628    1.306   1_655 S
N827   O685    1.341   1_655 S
O837   C605    1.385   1_655 S
O837   C638    1.417   1_655 S
C838   H839    1.096   .     S
C838   H840    1.104   .     S
C841   H844    1.110   .     S
C841   C638    1.514   1_655 S
H842   C241    1.105   1_565 S
H843   C241    1.105   1_565 S
C846   H847    1.114   .     S
C846   H848    1.108   .     S
C846   O645    1.414   1_655 S
C846   C649    1.509   1_655 S
C849   H850    1.096   .     S
C849   H251    1.093   1_565 S
C849   H252    1.108   1_565 S
O853   C854    1.422   .     S
C854   H856    1.108   .     S
C854   H855    1.104   .     S
C854   C857    1.525   .     S
C857   H859    1.110   .     S
C857   H860    1.102   .     S
H858   C257    1.109   1_565 S
O861   C862    1.410   .     S
C862   H864    1.112   .     S
C862   H863    1.114   .     S
C862   C865    1.520   .     S
C865   H868    1.107   .     S
C865   H866    1.100   .     S
C865   H267    1.110   1_565 S
O869   H870    0.990   .     S
H872   O671    0.989   1_655 S
O873   H874    0.989   .     S
O873   C613    1.385   1_655 S
O875   H876    0.989   .     S
O877   H878    0.990   .     S
O879   H880    0.991   .     S
H882   O281    0.989   1_565 S
O883   C208    1.385   1_565 S
O883   H284    0.985   1_565 S
C886   H888    1.105   .     S
C886   H887    1.112   .     S
C886   O685    1.399   1_655 S
C886   C689    1.518   1_655 S
C889   H891    1.108   .     S
C889   H892    1.110   .     S
C889   H890    1.099   .     S
O893   C894    1.406   .     S
O893   N628    1.344   1_655 S
C894   H895    1.107   .     S
C894   H896    1.113   .     S
C894   C697    1.504   1_655 S
C897   H898    1.104   .     S
C897   H899    1.109   .     S
C897   H900    1.101   .     S
C901   O931    1.312   .     A
C901   O929    1.309   .     A
C901   C907    1.459   .     S
C902   O932    1.314   .     A
C902   C908    1.461   .     S
C902   O930    1.309   .     A
C903   C924    1.407   .     A
C903   O977    1.384   .     S
C903   C905    1.409   .     A
C904   C906    1.402   .     A
C904   C923    1.418   .     A
C904   O979    1.378   .     S
C905   O1137   1.385   1_455 S
C906   C22     1.409   1_556 S
C906   O1045   1.383   .     S
C907   C1208   1.353   .     S
C907   O1281   1.386   .     S
C908   C1507   1.353   1_545 S
C908   O1583   1.385   1_545 S
C909   O933    1.315   .     A
C909   C911    1.487   .     S
C909   O935    1.323   .     A
C910   O934    1.317   .     A
C910   C912    1.485   .     S
C910   O936    1.320   .     A
C911   C915    1.415   .     A
C911   C917    1.407   .     A
C912   C916    1.420   .     A
C912   C918    1.403   .     A
C913   C921    1.415   .     A
C913   C915    1.415   .     A
C913   O1173   1.385   1_455 S
C914   C916    1.416   .     A
C914   C922    1.414   .     A
C914   O1075   1.382   .     S
C915   O971    1.377   .     S
C916   O969    1.380   .     S
C917   O961    1.389   .     S
C917   C919    1.415   .     A
C918   O953    1.392   .     S
C918   C920    1.416   .     A
C919   C921    1.419   .     A
C919   C923    1.429   .     A
C920   C924    1.423   .     A
C920   C922    1.411   .     A
C921   C5      1.412   1_556 S
C923   C24     1.415   1_556 S
Cu925  N928    2.062   .     S
Cu925  O932    1.985   .     S
Cu925  O929    1.988   .     S
Cu925  Cu926   2.744   .     S
Cu925  O936    1.933   .     S
Cu925  O933    1.943   .     S
Cu926  N927    2.062   .     S
Cu926  O934    1.943   .     S
Cu926  O931    1.985   .     S
Cu926  O930    1.988   .     S
Cu926  O935    1.933   .     S
N927   N1028   1.306   .     S
N927   O1085   1.341   .     S
N928   N1127   1.306   1_455 S
N928   O1193   1.344   1_455 S
O937   C1005   1.385   .     S
O937   C1038   1.417   .     S
C938   H939    1.096   .     S
C938   H940    1.104   .     S
C938   O1137   1.417   1_455 S
C938   C1141   1.514   1_455 S
C941   H944    1.110   .     S
C941   C1038   1.514   .     S
C941   H1542   1.105   1_545 S
C941   H1543   1.105   1_545 S
H942   C1241   1.105   .     S
H943   C1241   1.105   .     S
O945   C1106   1.383   1_455 S
O945   C1146   1.414   1_455 S
C946   H947    1.114   .     S
C946   H948    1.108   .     S
C946   O1045   1.414   .     S
C946   C1049   1.509   .     S
C949   H950    1.096   .     S
C949   C1146   1.509   1_455 S
C949   H1251   1.093   .     S
C949   H1252   1.108   .     S
H951   C1549   1.093   1_545 S
H952   C1549   1.108   1_545 S
O953   C954    1.422   .     S
C954   H956    1.108   .     S
C954   H955    1.104   .     S
C954   C957    1.525   .     S
C957   H959    1.110   .     S
C957   H960    1.102   .     S
C957   H1558   1.109   1_545 S
H958   C1257   1.109   .     S
O961   C962    1.410   .     S
C962   H964    1.112   .     S
C962   H963    1.114   .     S
C962   C965    1.520   .     S
C965   H968    1.107   .     S
C965   H966    1.100   .     S
C965   H1267   1.110   .     S
H967   C1565   1.110   1_545 S
O969   H970    0.990   .     S
O971   H1172   0.989   1_455 S
H972   O1071   0.989   .     S
O973   H974    0.989   .     S
O973   C1013   1.385   .     S
O975   H976    0.989   .     S
O975   C1114   1.382   1_455 S
O977   H978    0.990   .     S
O979   H980    0.991   .     S
O981   C1507   1.386   1_545 S
O981   H1582   0.989   1_545 S
H982   O1281   0.989   .     S
O983   C1208   1.385   .     S
O983   H1284   0.985   .     S
H984   O1583   0.985   1_545 S
O985   N1127   1.341   1_455 S
O985   C1186   1.399   1_455 S
C986   H988    1.105   .     S
C986   H987    1.112   .     S
C986   O1085   1.399   .     S
C986   C1089   1.518   .     S
C989   H991    1.108   .     S
C989   H992    1.110   .     S
C989   H990    1.099   .     S
C989   C1186   1.518   1_455 S
O993   C994    1.406   .     S
O993   N1028   1.344   .     S
C994   H995    1.107   .     S
C994   H996    1.113   .     S
C994   C1097   1.504   .     S
C997   H998    1.104   .     S
C997   H999    1.109   .     S
C997   H1000   1.101   .     S
C997   C1194   1.504   1_455 S
C1001  O1031   1.312   .     A
C1001  O1029   1.309   .     A
C1001  C1007   1.459   .     S
C1002  O1032   1.314   .     A
C1002  C1008   1.461   .     S
C1002  O1030   1.309   .     A
C1003  C1024   1.407   .     A
C1003  O1077   1.384   .     S
C1003  C1005   1.409   .     A
C1004  C1006   1.402   .     A
C1004  C1023   1.418   .     A
C1004  O1079   1.378   .     S
C1006  C122    1.409   1_556 S
C1006  O1145   1.383   .     S
C1007  C1308   1.353   .     S
C1007  O1381   1.386   .     S
C1008  C1607   1.353   1_545 S
C1008  O1683   1.385   1_545 S
C1009  O1033   1.315   .     A
C1009  C1011   1.487   .     S
C1009  O1035   1.323   .     A
C1010  O1034   1.317   .     A
C1010  C1012   1.485   .     S
C1010  O1036   1.320   .     A
C1011  C1015   1.415   .     A
C1011  C1017   1.407   .     A
C1012  C1016   1.420   .     A
C1012  C1018   1.403   .     A
C1013  C1021   1.415   .     A
C1013  C1015   1.415   .     A
C1014  C1016   1.416   .     A
C1014  C1022   1.414   .     A
C1014  O1175   1.382   .     S
C1015  O1071   1.377   .     S
C1016  O1069   1.380   .     S
C1017  O1061   1.389   .     S
C1017  C1019   1.415   .     A
C1018  O1053   1.392   .     S
C1018  C1020   1.416   .     A
C1019  C1021   1.419   .     A
C1019  C1023   1.429   .     A
C1020  C1024   1.423   .     A
C1020  C1022   1.411   .     A
C1021  C105    1.412   1_556 S
C1023  C124    1.415   1_556 S
Cu1025 N1028   2.062   .     S
Cu1025 O1032   1.985   .     S
Cu1025 O1029   1.988   .     S
Cu1025 Cu1026  2.744   .     S
Cu1025 O1036   1.933   .     S
Cu1025 O1033   1.943   .     S
Cu1026 N1027   2.062   .     S
Cu1026 O1034   1.943   .     S
Cu1026 O1031   1.985   .     S
Cu1026 O1030   1.988   .     S
Cu1026 O1035   1.933   .     S
N1027  N1128   1.306   .     S
N1027  O1185   1.341   .     S
O1037  C1105   1.385   .     S
O1037  C1138   1.417   .     S
C1038  H1039   1.096   .     S
C1038  H1040   1.104   .     S
C1041  H1044   1.110   .     S
C1041  C1138   1.514   .     S
C1041  H1642   1.105   1_545 S
C1041  H1643   1.105   1_545 S
H1042  C1341   1.105   .     S
H1043  C1341   1.105   .     S
C1046  H1047   1.114   .     S
C1046  H1048   1.108   .     S
C1046  O1145   1.414   .     S
C1046  C1149   1.509   .     S
C1049  H1050   1.096   .     S
C1049  H1351   1.093   .     S
C1049  H1352   1.108   .     S
H1051  C1649   1.093   1_545 S
H1052  C1649   1.108   1_545 S
O1053  C1054   1.422   .     S
C1054  H1056   1.108   .     S
C1054  H1055   1.104   .     S
C1054  C1057   1.525   .     S
C1057  H1059   1.110   .     S
C1057  H1060   1.102   .     S
C1057  H1658   1.109   1_545 S
H1058  C1357   1.109   .     S
O1061  C1062   1.410   .     S
C1062  H1064   1.112   .     S
C1062  H1063   1.114   .     S
C1062  C1065   1.520   .     S
C1065  H1068   1.107   .     S
C1065  H1066   1.100   .     S
C1065  H1367   1.110   .     S
H1067  C1665   1.110   1_545 S
O1069  H1070   0.990   .     S
H1072  O1171   0.989   .     S
O1073  H1074   0.989   .     S
O1073  C1113   1.385   .     S
O1075  H1076   0.989   .     S
O1077  H1078   0.990   .     S
O1079  H1080   0.991   .     S
O1081  C1607   1.386   1_545 S
O1081  H1682   0.989   1_545 S
H1082  O1381   0.989   .     S
O1083  C1308   1.385   .     S
O1083  H1384   0.985   .     S
H1084  O1683   0.985   1_545 S
C1086  H1088   1.105   .     S
C1086  H1087   1.112   .     S
C1086  O1185   1.399   .     S
C1086  C1189   1.518   .     S
C1089  H1091   1.108   .     S
C1089  H1092   1.110   .     S
C1089  H1090   1.099   .     S
O1093  C1094   1.406   .     S
O1093  N1128   1.344   .     S
C1094  H1095   1.107   .     S
C1094  H1096   1.113   .     S
C1094  C1197   1.504   .     S
C1097  H1098   1.104   .     S
C1097  H1099   1.109   .     S
C1097  H1100   1.101   .     S
C1101  O1131   1.312   .     A
C1101  O1129   1.309   .     A
C1101  C1107   1.459   .     S
C1102  O1132   1.314   .     A
C1102  C1108   1.461   .     S
C1102  O1130   1.309   .     A
C1103  C1124   1.407   .     A
C1103  O1177   1.384   .     S
C1103  C1105   1.409   .     A
C1104  C1106   1.402   .     A
C1104  C1123   1.418   .     A
C1104  O1179   1.378   .     S
C1106  C222    1.409   1_556 S
C1106  O945    1.383   1_655 S
C1107  C1408   1.353   .     S
C1107  O1481   1.386   .     S
C1108  C1707   1.353   1_545 S
C1108  O1783   1.385   1_545 S
C1109  O1133   1.315   .     A
C1109  C1111   1.487   .     S
C1109  O1135   1.323   .     A
C1110  O1134   1.317   .     A
C1110  C1112   1.485   .     S
C1110  O1136   1.320   .     A
C1111  C1115   1.415   .     A
C1111  C1117   1.407   .     A
C1112  C1116   1.420   .     A
C1112  C1118   1.403   .     A
C1113  C1121   1.415   .     A
C1113  C1115   1.415   .     A
C1114  C1116   1.416   .     A
C1114  C1122   1.414   .     A
C1114  O975    1.382   1_655 S
C1115  O1171   1.377   .     S
C1116  O1169   1.380   .     S
C1117  O1161   1.389   .     S
C1117  C1119   1.415   .     A
C1118  O1153   1.392   .     S
C1118  C1120   1.416   .     A
C1119  C1121   1.419   .     A
C1119  C1123   1.429   .     A
C1120  C1124   1.423   .     A
C1120  C1122   1.411   .     A
C1121  C205    1.412   1_556 S
C1123  C224    1.415   1_556 S
Cu1125 N1128   2.062   .     S
Cu1125 O1132   1.985   .     S
Cu1125 O1129   1.988   .     S
Cu1125 Cu1126  2.744   .     S
Cu1125 O1136   1.933   .     S
Cu1125 O1133   1.943   .     S
Cu1126 N1127   2.062   .     S
Cu1126 O1134   1.943   .     S
Cu1126 O1131   1.985   .     S
Cu1126 O1130   1.988   .     S
Cu1126 O1135   1.933   .     S
N1127  N928    1.306   1_655 S
N1127  O985    1.341   1_655 S
O1137  C905    1.385   1_655 S
O1137  C938    1.417   1_655 S
C1138  H1139   1.096   .     S
C1138  H1140   1.104   .     S
C1141  H1144   1.110   .     S
C1141  C938    1.514   1_655 S
C1141  H1742   1.105   1_545 S
C1141  H1743   1.105   1_545 S
H1142  C1441   1.105   .     S
H1143  C1441   1.105   .     S
C1146  H1147   1.114   .     S
C1146  H1148   1.108   .     S
C1146  O945    1.414   1_655 S
C1146  C949    1.509   1_655 S
C1149  H1150   1.096   .     S
C1149  H1451   1.093   .     S
C1149  H1452   1.108   .     S
H1151  C1749   1.093   1_545 S
H1152  C1749   1.108   1_545 S
O1153  C1154   1.422   .     S
C1154  H1156   1.108   .     S
C1154  H1155   1.104   .     S
C1154  C1157   1.525   .     S
C1157  H1159   1.110   .     S
C1157  H1160   1.102   .     S
C1157  H1758   1.109   1_545 S
H1158  C1457   1.109   .     S
O1161  C1162   1.410   .     S
C1162  H1164   1.112   .     S
C1162  H1163   1.114   .     S
C1162  C1165   1.520   .     S
C1165  H1168   1.107   .     S
C1165  H1166   1.100   .     S
C1165  H1467   1.110   .     S
H1167  C1765   1.110   1_545 S
O1169  H1170   0.990   .     S
H1172  O971    0.989   1_655 S
O1173  H1174   0.989   .     S
O1173  C913    1.385   1_655 S
O1175  H1176   0.989   .     S
O1177  H1178   0.990   .     S
O1179  H1180   0.991   .     S
O1181  C1707   1.386   1_545 S
O1181  H1782   0.989   1_545 S
H1182  O1481   0.989   .     S
O1183  C1408   1.385   .     S
O1183  H1484   0.985   .     S
H1184  O1783   0.985   1_545 S
C1186  H1188   1.105   .     S
C1186  H1187   1.112   .     S
C1186  O985    1.399   1_655 S
C1186  C989    1.518   1_655 S
C1189  H1191   1.108   .     S
C1189  H1192   1.110   .     S
C1189  H1190   1.099   .     S
O1193  C1194   1.406   .     S
O1193  N928    1.344   1_655 S
C1194  H1195   1.107   .     S
C1194  H1196   1.113   .     S
C1194  C997    1.504   1_655 S
C1197  H1198   1.104   .     S
C1197  H1199   1.109   .     S
C1197  H1200   1.101   .     S
C1201  O1231   1.312   .     A
C1201  O1229   1.309   .     A
C1201  C1207   1.459   .     S
C1202  O1232   1.314   .     A
C1202  C1208   1.461   .     S
C1202  O1230   1.309   .     A
C1203  C1224   1.407   .     A
C1203  O1277   1.384   .     S
C1203  C1205   1.409   .     A
C1204  C1206   1.402   .     A
C1204  C1223   1.418   .     A
C1204  O1279   1.378   .     S
C1205  O1437   1.385   1_455 S
C1206  C322    1.409   1_556 S
C1206  O1345   1.383   .     S
C1207  C1508   1.353   .     S
C1207  O1581   1.386   .     S
C1209  O1233   1.315   .     A
C1209  C1211   1.487   .     S
C1209  O1235   1.323   .     A
C1210  O1234   1.317   .     A
C1210  C1212   1.485   .     S
C1210  O1236   1.320   .     A
C1211  C1215   1.415   .     A
C1211  C1217   1.407   .     A
C1212  C1216   1.420   .     A
C1212  C1218   1.403   .     A
C1213  C1221   1.415   .     A
C1213  C1215   1.415   .     A
C1213  O1473   1.385   1_455 S
C1214  C1216   1.416   .     A
C1214  C1222   1.414   .     A
C1214  O1375   1.382   .     S
C1215  O1271   1.377   .     S
C1216  O1269   1.380   .     S
C1217  O1261   1.389   .     S
C1217  C1219   1.415   .     A
C1218  O1253   1.392   .     S
C1218  C1220   1.416   .     A
C1219  C1221   1.419   .     A
C1219  C1223   1.429   .     A
C1220  C1224   1.423   .     A
C1220  C1222   1.411   .     A
C1221  C305    1.412   1_556 S
C1223  C324    1.415   1_556 S
Cu1225 N1228   2.062   .     S
Cu1225 O1232   1.985   .     S
Cu1225 O1229   1.988   .     S
Cu1225 Cu1226  2.744   .     S
Cu1225 O1236   1.933   .     S
Cu1225 O1233   1.943   .     S
Cu1226 N1227   2.062   .     S
Cu1226 O1234   1.943   .     S
Cu1226 O1231   1.985   .     S
Cu1226 O1230   1.988   .     S
Cu1226 O1235   1.933   .     S
N1227  N1328   1.306   .     S
N1227  O1385   1.341   .     S
N1228  N1427   1.306   1_455 S
N1228  O1493   1.344   1_455 S
O1237  C1305   1.385   .     S
O1237  C1338   1.417   .     S
C1238  H1239   1.096   .     S
C1238  H1240   1.104   .     S
C1238  O1437   1.417   1_455 S
C1238  C1441   1.514   1_455 S
C1241  H1244   1.110   .     S
C1241  C1338   1.514   .     S
H1242  C1541   1.105   .     S
H1243  C1541   1.105   .     S
O1245  C1406   1.383   1_455 S
O1245  C1446   1.414   1_455 S
C1246  H1247   1.114   .     S
C1246  H1248   1.108   .     S
C1246  O1345   1.414   .     S
C1246  C1349   1.509   .     S
C1249  H1250   1.096   .     S
C1249  C1446   1.509   1_455 S
C1249  H1551   1.093   .     S
C1249  H1552   1.108   .     S
O1253  C1254   1.422   .     S
C1254  H1256   1.108   .     S
C1254  H1255   1.104   .     S
C1254  C1257   1.525   .     S
C1257  H1259   1.110   .     S
C1257  H1260   1.102   .     S
H1258  C1557   1.109   .     S
O1261  C1262   1.410   .     S
C1262  H1264   1.112   .     S
C1262  H1263   1.114   .     S
C1262  C1265   1.520   .     S
C1265  H1268   1.107   .     S
C1265  H1266   1.100   .     S
C1265  H1567   1.110   .     S
O1269  H1270   0.990   .     S
O1271  H1472   0.989   1_455 S
H1272  O1371   0.989   .     S
O1273  H1274   0.989   .     S
O1273  C1313   1.385   .     S
O1275  H1276   0.989   .     S
O1275  C1414   1.382   1_455 S
O1277  H1278   0.990   .     S
O1279  H1280   0.991   .     S
H1282  O1581   0.989   .     S
O1283  C1508   1.385   .     S
O1283  H1584   0.985   .     S
O1285  N1427   1.341   1_455 S
O1285  C1486   1.399   1_455 S
C1286  H1288   1.105   .     S
C1286  H1287   1.112   .     S
C1286  O1385   1.399   .     S
C1286  C1389   1.518   .     S
C1289  H1291   1.108   .     S
C1289  H1292   1.110   .     S
C1289  H1290   1.099   .     S
C1289  C1486   1.518   1_455 S
O1293  C1294   1.406   .     S
O1293  N1328   1.344   .     S
C1294  H1295   1.107   .     S
C1294  H1296   1.113   .     S
C1294  C1397   1.504   .     S
C1297  H1298   1.104   .     S
C1297  H1299   1.109   .     S
C1297  H1300   1.101   .     S
C1297  C1494   1.504   1_455 S
C1301  O1331   1.312   .     A
C1301  O1329   1.309   .     A
C1301  C1307   1.459   .     S
C1302  O1332   1.314   .     A
C1302  C1308   1.461   .     S
C1302  O1330   1.309   .     A
C1303  C1324   1.407   .     A
C1303  O1377   1.384   .     S
C1303  C1305   1.409   .     A
C1304  C1306   1.402   .     A
C1304  C1323   1.418   .     A
C1304  O1379   1.378   .     S
C1306  C422    1.409   1_556 S
C1306  O1445   1.383   .     S
C1307  C1608   1.353   .     S
C1307  O1681   1.386   .     S
C1309  O1333   1.315   .     A
C1309  C1311   1.487   .     S
C1309  O1335   1.323   .     A
C1310  O1334   1.317   .     A
C1310  C1312   1.485   .     S
C1310  O1336   1.320   .     A
C1311  C1315   1.415   .     A
C1311  C1317   1.407   .     A
C1312  C1316   1.420   .     A
C1312  C1318   1.403   .     A
C1313  C1321   1.415   .     A
C1313  C1315   1.415   .     A
C1314  C1316   1.416   .     A
C1314  C1322   1.414   .     A
C1314  O1475   1.382   .     S
C1315  O1371   1.377   .     S
C1316  O1369   1.380   .     S
C1317  O1361   1.389   .     S
C1317  C1319   1.415   .     A
C1318  O1353   1.392   .     S
C1318  C1320   1.416   .     A
C1319  C1321   1.419   .     A
C1319  C1323   1.429   .     A
C1320  C1324   1.423   .     A
C1320  C1322   1.411   .     A
C1321  C405    1.412   1_556 S
C1323  C424    1.415   1_556 S
Cu1325 N1328   2.062   .     S
Cu1325 O1332   1.985   .     S
Cu1325 O1329   1.988   .     S
Cu1325 Cu1326  2.744   .     S
Cu1325 O1336   1.933   .     S
Cu1325 O1333   1.943   .     S
Cu1326 N1327   2.062   .     S
Cu1326 O1334   1.943   .     S
Cu1326 O1331   1.985   .     S
Cu1326 O1330   1.988   .     S
Cu1326 O1335   1.933   .     S
N1327  N1428   1.306   .     S
N1327  O1485   1.341   .     S
O1337  C1405   1.385   .     S
O1337  C1438   1.417   .     S
C1338  H1339   1.096   .     S
C1338  H1340   1.104   .     S
C1341  H1344   1.110   .     S
C1341  C1438   1.514   .     S
H1342  C1641   1.105   .     S
H1343  C1641   1.105   .     S
C1346  H1347   1.114   .     S
C1346  H1348   1.108   .     S
C1346  O1445   1.414   .     S
C1346  C1449   1.509   .     S
C1349  H1350   1.096   .     S
C1349  H1651   1.093   .     S
C1349  H1652   1.108   .     S
O1353  C1354   1.422   .     S
C1354  H1356   1.108   .     S
C1354  H1355   1.104   .     S
C1354  C1357   1.525   .     S
C1357  H1359   1.110   .     S
C1357  H1360   1.102   .     S
H1358  C1657   1.109   .     S
O1361  C1362   1.410   .     S
C1362  H1364   1.112   .     S
C1362  H1363   1.114   .     S
C1362  C1365   1.520   .     S
C1365  H1368   1.107   .     S
C1365  H1366   1.100   .     S
C1365  H1667   1.110   .     S
O1369  H1370   0.990   .     S
H1372  O1471   0.989   .     S
O1373  H1374   0.989   .     S
O1373  C1413   1.385   .     S
O1375  H1376   0.989   .     S
O1377  H1378   0.990   .     S
O1379  H1380   0.991   .     S
H1382  O1681   0.989   .     S
O1383  C1608   1.385   .     S
O1383  H1684   0.985   .     S
C1386  H1388   1.105   .     S
C1386  H1387   1.112   .     S
C1386  O1485   1.399   .     S
C1386  C1489   1.518   .     S
C1389  H1391   1.108   .     S
C1389  H1392   1.110   .     S
C1389  H1390   1.099   .     S
O1393  C1394   1.406   .     S
O1393  N1428   1.344   .     S
C1394  H1395   1.107   .     S
C1394  H1396   1.113   .     S
C1394  C1497   1.504   .     S
C1397  H1398   1.104   .     S
C1397  H1399   1.109   .     S
C1397  H1400   1.101   .     S
C1401  O1431   1.312   .     A
C1401  O1429   1.309   .     A
C1401  C1407   1.459   .     S
C1402  O1432   1.314   .     A
C1402  C1408   1.461   .     S
C1402  O1430   1.309   .     A
C1403  C1424   1.407   .     A
C1403  O1477   1.384   .     S
C1403  C1405   1.409   .     A
C1404  C1406   1.402   .     A
C1404  C1423   1.418   .     A
C1404  O1479   1.378   .     S
C1406  C522    1.409   1_556 S
C1406  O1245   1.383   1_655 S
C1407  C1708   1.353   .     S
C1407  O1781   1.386   .     S
C1409  O1433   1.315   .     A
C1409  C1411   1.487   .     S
C1409  O1435   1.323   .     A
C1410  O1434   1.317   .     A
C1410  C1412   1.485   .     S
C1410  O1436   1.320   .     A
C1411  C1415   1.415   .     A
C1411  C1417   1.407   .     A
C1412  C1416   1.420   .     A
C1412  C1418   1.403   .     A
C1413  C1421   1.415   .     A
C1413  C1415   1.415   .     A
C1414  C1416   1.416   .     A
C1414  C1422   1.414   .     A
C1414  O1275   1.382   1_655 S
C1415  O1471   1.377   .     S
C1416  O1469   1.380   .     S
C1417  O1461   1.389   .     S
C1417  C1419   1.415   .     A
C1418  O1453   1.392   .     S
C1418  C1420   1.416   .     A
C1419  C1421   1.419   .     A
C1419  C1423   1.429   .     A
C1420  C1424   1.423   .     A
C1420  C1422   1.411   .     A
C1421  C505    1.412   1_556 S
C1423  C524    1.415   1_556 S
Cu1425 N1428   2.062   .     S
Cu1425 O1432   1.985   .     S
Cu1425 O1429   1.988   .     S
Cu1425 Cu1426  2.744   .     S
Cu1425 O1436   1.933   .     S
Cu1425 O1433   1.943   .     S
Cu1426 N1427   2.062   .     S
Cu1426 O1434   1.943   .     S
Cu1426 O1431   1.985   .     S
Cu1426 O1430   1.988   .     S
Cu1426 O1435   1.933   .     S
N1427  N1228   1.306   1_655 S
N1427  O1285   1.341   1_655 S
O1437  C1205   1.385   1_655 S
O1437  C1238   1.417   1_655 S
C1438  H1439   1.096   .     S
C1438  H1440   1.104   .     S
C1441  H1444   1.110   .     S
C1441  C1238   1.514   1_655 S
H1442  C1741   1.105   .     S
H1443  C1741   1.105   .     S
C1446  H1447   1.114   .     S
C1446  H1448   1.108   .     S
C1446  O1245   1.414   1_655 S
C1446  C1249   1.509   1_655 S
C1449  H1450   1.096   .     S
C1449  H1751   1.093   .     S
C1449  H1752   1.108   .     S
O1453  C1454   1.422   .     S
C1454  H1456   1.108   .     S
C1454  H1455   1.104   .     S
C1454  C1457   1.525   .     S
C1457  H1459   1.110   .     S
C1457  H1460   1.102   .     S
H1458  C1757   1.109   .     S
O1461  C1462   1.410   .     S
C1462  H1464   1.112   .     S
C1462  H1463   1.114   .     S
C1462  C1465   1.520   .     S
C1465  H1468   1.107   .     S
C1465  H1466   1.100   .     S
C1465  H1767   1.110   .     S
O1469  H1470   0.990   .     S
H1472  O1271   0.989   1_655 S
O1473  H1474   0.989   .     S
O1473  C1213   1.385   1_655 S
O1475  H1476   0.989   .     S
O1477  H1478   0.990   .     S
O1479  H1480   0.991   .     S
H1482  O1781   0.989   .     S
O1483  C1708   1.385   .     S
O1483  H1784   0.985   .     S
C1486  H1488   1.105   .     S
C1486  H1487   1.112   .     S
C1486  O1285   1.399   1_655 S
C1486  C1289   1.518   1_655 S
C1489  H1491   1.108   .     S
C1489  H1492   1.110   .     S
C1489  H1490   1.099   .     S
O1493  C1494   1.406   .     S
O1493  N1228   1.344   1_655 S
C1494  H1495   1.107   .     S
C1494  H1496   1.113   .     S
C1494  C1297   1.504   1_655 S
C1497  H1498   1.104   .     S
C1497  H1499   1.109   .     S
C1497  H1500   1.101   .     S
C1501  O1531   1.312   .     A
C1501  O1529   1.309   .     A
C1501  C1507   1.459   .     S
C1502  O1532   1.314   .     A
C1502  C1508   1.461   .     S
C1502  O1530   1.309   .     A
C1503  C1524   1.407   .     A
C1503  O1577   1.384   .     S
C1503  C1505   1.409   .     A
C1504  C1506   1.402   .     A
C1504  C1523   1.418   .     A
C1504  O1579   1.378   .     S
C1505  O1737   1.385   1_455 S
C1506  C622    1.409   1_556 S
C1506  O1645   1.383   .     S
C1507  C908    1.353   1_565 S
C1507  O981    1.386   1_565 S
C1509  O1533   1.315   .     A
C1509  C1511   1.487   .     S
C1509  O1535   1.323   .     A
C1510  O1534   1.317   .     A
C1510  C1512   1.485   .     S
C1510  O1536   1.320   .     A
C1511  C1515   1.415   .     A
C1511  C1517   1.407   .     A
C1512  C1516   1.420   .     A
C1512  C1518   1.403   .     A
C1513  C1521   1.415   .     A
C1513  C1515   1.415   .     A
C1513  O1773   1.385   1_455 S
C1514  C1516   1.416   .     A
C1514  C1522   1.414   .     A
C1514  O1675   1.382   .     S
C1515  O1571   1.377   .     S
C1516  O1569   1.380   .     S
C1517  O1561   1.389   .     S
C1517  C1519   1.415   .     A
C1518  O1553   1.392   .     S
C1518  C1520   1.416   .     A
C1519  C1521   1.419   .     A
C1519  C1523   1.429   .     A
C1520  C1524   1.423   .     A
C1520  C1522   1.411   .     A
C1521  C605    1.412   1_556 S
C1523  C624    1.415   1_556 S
Cu1525 N1528   2.062   .     S
Cu1525 O1532   1.985   .     S
Cu1525 O1529   1.988   .     S
Cu1525 Cu1526  2.744   .     S
Cu1525 O1536   1.933   .     S
Cu1525 O1533   1.943   .     S
Cu1526 N1527   2.062   .     S
Cu1526 O1534   1.943   .     S
Cu1526 O1531   1.985   .     S
Cu1526 O1530   1.988   .     S
Cu1526 O1535   1.933   .     S
N1527  N1628   1.306   .     S
N1527  O1685   1.341   .     S
N1528  N1727   1.306   1_455 S
N1528  O1793   1.344   1_455 S
O1537  C1605   1.385   .     S
O1537  C1638   1.417   .     S
C1538  H1539   1.096   .     S
C1538  H1540   1.104   .     S
C1538  O1737   1.417   1_455 S
C1538  C1741   1.514   1_455 S
C1541  H1544   1.110   .     S
C1541  C1638   1.514   .     S
H1542  C941    1.105   1_565 S
H1543  C941    1.105   1_565 S
O1545  C1706   1.383   1_455 S
O1545  C1746   1.414   1_455 S
C1546  H1547   1.114   .     S
C1546  H1548   1.108   .     S
C1546  O1645   1.414   .     S
C1546  C1649   1.509   .     S
C1549  H1550   1.096   .     S
C1549  C1746   1.509   1_455 S
C1549  H951    1.093   1_565 S
C1549  H952    1.108   1_565 S
O1553  C1554   1.422   .     S
C1554  H1556   1.108   .     S
C1554  H1555   1.104   .     S
C1554  C1557   1.525   .     S
C1557  H1559   1.110   .     S
C1557  H1560   1.102   .     S
H1558  C957    1.109   1_565 S
O1561  C1562   1.410   .     S
C1562  H1564   1.112   .     S
C1562  H1563   1.114   .     S
C1562  C1565   1.520   .     S
C1565  H1568   1.107   .     S
C1565  H1566   1.100   .     S
C1565  H967    1.110   1_565 S
O1569  H1570   0.990   .     S
O1571  H1772   0.989   1_455 S
H1572  O1671   0.989   .     S
O1573  H1574   0.989   .     S
O1573  C1613   1.385   .     S
O1575  H1576   0.989   .     S
O1575  C1714   1.382   1_455 S
O1577  H1578   0.990   .     S
O1579  H1580   0.991   .     S
H1582  O981    0.989   1_565 S
O1583  C908    1.385   1_565 S
O1583  H984    0.985   1_565 S
O1585  N1727   1.341   1_455 S
O1585  C1786   1.399   1_455 S
C1586  H1588   1.105   .     S
C1586  H1587   1.112   .     S
C1586  O1685   1.399   .     S
C1586  C1689   1.518   .     S
C1589  H1591   1.108   .     S
C1589  H1592   1.110   .     S
C1589  H1590   1.099   .     S
C1589  C1786   1.518   1_455 S
O1593  C1594   1.406   .     S
O1593  N1628   1.344   .     S
C1594  H1595   1.107   .     S
C1594  H1596   1.113   .     S
C1594  C1697   1.504   .     S
C1597  H1598   1.104   .     S
C1597  H1599   1.109   .     S
C1597  H1600   1.101   .     S
C1597  C1794   1.504   1_455 S
C1601  O1631   1.312   .     A
C1601  O1629   1.309   .     A
C1601  C1607   1.459   .     S
C1602  O1632   1.314   .     A
C1602  C1608   1.461   .     S
C1602  O1630   1.309   .     A
C1603  C1624   1.407   .     A
C1603  O1677   1.384   .     S
C1603  C1605   1.409   .     A
C1604  C1606   1.402   .     A
C1604  C1623   1.418   .     A
C1604  O1679   1.378   .     S
C1606  C722    1.409   1_556 S
C1606  O1745   1.383   .     S
C1607  C1008   1.353   1_565 S
C1607  O1081   1.386   1_565 S
C1609  O1633   1.315   .     A
C1609  C1611   1.487   .     S
C1609  O1635   1.323   .     A
C1610  O1634   1.317   .     A
C1610  C1612   1.485   .     S
C1610  O1636   1.320   .     A
C1611  C1615   1.415   .     A
C1611  C1617   1.407   .     A
C1612  C1616   1.420   .     A
C1612  C1618   1.403   .     A
C1613  C1621   1.415   .     A
C1613  C1615   1.415   .     A
C1614  C1616   1.416   .     A
C1614  C1622   1.414   .     A
C1614  O1775   1.382   .     S
C1615  O1671   1.377   .     S
C1616  O1669   1.380   .     S
C1617  O1661   1.389   .     S
C1617  C1619   1.415   .     A
C1618  O1653   1.392   .     S
C1618  C1620   1.416   .     A
C1619  C1621   1.419   .     A
C1619  C1623   1.429   .     A
C1620  C1624   1.423   .     A
C1620  C1622   1.411   .     A
C1621  C705    1.412   1_556 S
C1623  C724    1.415   1_556 S
Cu1625 N1628   2.062   .     S
Cu1625 O1632   1.985   .     S
Cu1625 O1629   1.988   .     S
Cu1625 Cu1626  2.744   .     S
Cu1625 O1636   1.933   .     S
Cu1625 O1633   1.943   .     S
Cu1626 N1627   2.062   .     S
Cu1626 O1634   1.943   .     S
Cu1626 O1631   1.985   .     S
Cu1626 O1630   1.988   .     S
Cu1626 O1635   1.933   .     S
N1627  N1728   1.306   .     S
N1627  O1785   1.341   .     S
O1637  C1705   1.385   .     S
O1637  C1738   1.417   .     S
C1638  H1639   1.096   .     S
C1638  H1640   1.104   .     S
C1641  H1644   1.110   .     S
C1641  C1738   1.514   .     S
H1642  C1041   1.105   1_565 S
H1643  C1041   1.105   1_565 S
C1646  H1647   1.114   .     S
C1646  H1648   1.108   .     S
C1646  O1745   1.414   .     S
C1646  C1749   1.509   .     S
C1649  H1650   1.096   .     S
C1649  H1051   1.093   1_565 S
C1649  H1052   1.108   1_565 S
O1653  C1654   1.422   .     S
C1654  H1656   1.108   .     S
C1654  H1655   1.104   .     S
C1654  C1657   1.525   .     S
C1657  H1659   1.110   .     S
C1657  H1660   1.102   .     S
H1658  C1057   1.109   1_565 S
O1661  C1662   1.410   .     S
C1662  H1664   1.112   .     S
C1662  H1663   1.114   .     S
C1662  C1665   1.520   .     S
C1665  H1668   1.107   .     S
C1665  H1666   1.100   .     S
C1665  H1067   1.110   1_565 S
O1669  H1670   0.990   .     S
H1672  O1771   0.989   .     S
O1673  H1674   0.989   .     S
O1673  C1713   1.385   .     S
O1675  H1676   0.989   .     S
O1677  H1678   0.990   .     S
O1679  H1680   0.991   .     S
H1682  O1081   0.989   1_565 S
O1683  C1008   1.385   1_565 S
O1683  H1084   0.985   1_565 S
C1686  H1688   1.105   .     S
C1686  H1687   1.112   .     S
C1686  O1785   1.399   .     S
C1686  C1789   1.518   .     S
C1689  H1691   1.108   .     S
C1689  H1692   1.110   .     S
C1689  H1690   1.099   .     S
O1693  C1694   1.406   .     S
O1693  N1728   1.344   .     S
C1694  H1695   1.107   .     S
C1694  H1696   1.113   .     S
C1694  C1797   1.504   .     S
C1697  H1698   1.104   .     S
C1697  H1699   1.109   .     S
C1697  H1700   1.101   .     S
C1701  O1731   1.312   .     A
C1701  O1729   1.309   .     A
C1701  C1707   1.459   .     S
C1702  O1732   1.314   .     A
C1702  C1708   1.461   .     S
C1702  O1730   1.309   .     A
C1703  C1724   1.407   .     A
C1703  O1777   1.384   .     S
C1703  C1705   1.409   .     A
C1704  C1706   1.402   .     A
C1704  C1723   1.418   .     A
C1704  O1779   1.378   .     S
C1706  C822    1.409   1_556 S
C1706  O1545   1.383   1_655 S
C1707  C1108   1.353   1_565 S
C1707  O1181   1.386   1_565 S
C1709  O1733   1.315   .     A
C1709  C1711   1.487   .     S
C1709  O1735   1.323   .     A
C1710  O1734   1.317   .     A
C1710  C1712   1.485   .     S
C1710  O1736   1.320   .     A
C1711  C1715   1.415   .     A
C1711  C1717   1.407   .     A
C1712  C1716   1.420   .     A
C1712  C1718   1.403   .     A
C1713  C1721   1.415   .     A
C1713  C1715   1.415   .     A
C1714  C1716   1.416   .     A
C1714  C1722   1.414   .     A
C1714  O1575   1.382   1_655 S
C1715  O1771   1.377   .     S
C1716  O1769   1.380   .     S
C1717  O1761   1.389   .     S
C1717  C1719   1.415   .     A
C1718  O1753   1.392   .     S
C1718  C1720   1.416   .     A
C1719  C1721   1.419   .     A
C1719  C1723   1.429   .     A
C1720  C1724   1.423   .     A
C1720  C1722   1.411   .     A
C1721  C805    1.412   1_556 S
C1723  C824    1.415   1_556 S
Cu1725 N1728   2.062   .     S
Cu1725 O1732   1.985   .     S
Cu1725 O1729   1.988   .     S
Cu1725 Cu1726  2.744   .     S
Cu1725 O1736   1.933   .     S
Cu1725 O1733   1.943   .     S
Cu1726 N1727   2.062   .     S
Cu1726 O1734   1.943   .     S
Cu1726 O1731   1.985   .     S
Cu1726 O1730   1.988   .     S
Cu1726 O1735   1.933   .     S
N1727  N1528   1.306   1_655 S
N1727  O1585   1.341   1_655 S
O1737  C1505   1.385   1_655 S
O1737  C1538   1.417   1_655 S
C1738  H1739   1.096   .     S
C1738  H1740   1.104   .     S
C1741  H1744   1.110   .     S
C1741  C1538   1.514   1_655 S
H1742  C1141   1.105   1_565 S
H1743  C1141   1.105   1_565 S
C1746  H1747   1.114   .     S
C1746  H1748   1.108   .     S
C1746  O1545   1.414   1_655 S
C1746  C1549   1.509   1_655 S
C1749  H1750   1.096   .     S
C1749  H1151   1.093   1_565 S
C1749  H1152   1.108   1_565 S
O1753  C1754   1.422   .     S
C1754  H1756   1.108   .     S
C1754  H1755   1.104   .     S
C1754  C1757   1.525   .     S
C1757  H1759   1.110   .     S
C1757  H1760   1.102   .     S
H1758  C1157   1.109   1_565 S
O1761  C1762   1.410   .     S
C1762  H1764   1.112   .     S
C1762  H1763   1.114   .     S
C1762  C1765   1.520   .     S
C1765  H1768   1.107   .     S
C1765  H1766   1.100   .     S
C1765  H1167   1.110   1_565 S
O1769  H1770   0.990   .     S
H1772  O1571   0.989   1_655 S
O1773  H1774   0.989   .     S
O1773  C1513   1.385   1_655 S
O1775  H1776   0.989   .     S
O1777  H1778   0.990   .     S
O1779  H1780   0.991   .     S
H1782  O1181   0.989   1_565 S
O1783  C1108   1.385   1_565 S
O1783  H1184   0.985   1_565 S
C1786  H1788   1.105   .     S
C1786  H1787   1.112   .     S
C1786  O1585   1.399   1_655 S
C1786  C1589   1.518   1_655 S
C1789  H1791   1.108   .     S
C1789  H1792   1.110   .     S
C1789  H1790   1.099   .     S
O1793  C1794   1.406   .     S
O1793  N1528   1.344   1_655 S
C1794  H1795   1.107   .     S
C1794  H1796   1.113   .     S
C1794  C1597   1.504   1_655 S
C1797  H1798   1.104   .     S
C1797  H1799   1.109   .     S
C1797  H1800   1.101   .     S
