data_str_m3_o2_o10_pcu_sym.78
_audit_creation_date              2020-01-03
_audit_creation_method            'Materials Studio'
_symmetry_space_group_name_H-M    'P1'
_symmetry_Int_Tables_number       1
_symmetry_cell_setting            triclinic
loop_
_symmetry_equiv_pos_as_xyz
  x,y,z
_cell_length_a                    25.9111
_cell_length_b                    29.8491
_cell_length_c                    28.5700
_cell_angle_alpha                 90.1626
_cell_angle_beta                  98.2623
_cell_angle_gamma                 91.5865
loop_
_atom_site_label
_atom_site_type_symbol
_atom_site_fract_x
_atom_site_fract_y
_atom_site_fract_z
_atom_site_U_iso_or_equiv
_atom_site_adp_type
_atom_site_occupancy
C1     C     0.16742   0.16413   0.25005   0.00000  Uiso   1.00
C2     C     0.14547   0.21483   0.44512   0.00000  Uiso   1.00
C3     C     0.16485   0.25096   0.02641   0.00000  Uiso   1.00
C4     C     0.16481   0.25197   0.47322   0.00000  Uiso   1.00
C5     C     0.06727   0.24888   0.23786   0.00000  Uiso   1.00
C6     C     0.26606   0.25115   0.26214   0.00000  Uiso   1.00
C7     C     0.01246   0.24225   0.23263   0.00000  Uiso   1.00
C8     C     0.32086   0.25783   0.26738   0.00000  Uiso   1.00
C9     C     0.20830   0.04719   0.23323   0.00000  Uiso   1.00
C10    C     0.12411   0.45247   0.22280   0.00000  Uiso   1.00
C11    C     0.21020   0.09361   0.23364   0.00000  Uiso   1.00
C12    C     0.16586   0.33586   0.24997   0.00000  Uiso   1.00
C13    C     0.12241   0.40605   0.22283   0.00000  Uiso   1.00
C14    C     0.16910   0.11632   0.25026   0.00000  Uiso   1.00
C15    C     0.16381   0.38364   0.24994   0.00000  Uiso   1.00
C16    C     0.12800   0.09288   0.26677   0.00000  Uiso   1.00
C17    C     0.20493   0.40735   0.27698   0.00000  Uiso   1.00
C18    C     0.12663   0.04665   0.26602   0.00000  Uiso   1.00
C19    C     0.20610   0.45358   0.27645   0.00000  Uiso   1.00
C20    C     0.16676   0.02404   0.24930   0.00000  Uiso   1.00
C21    C     0.16575   0.47591   0.24936   0.00000  Uiso   1.00
C22    C     0.12164   0.23416   0.04653   0.00000  Uiso   1.00
C23    C     0.18501   0.28888   0.44963   0.00000  Uiso   1.00
C24    C     0.12485   0.23123   0.09665   0.00000  Uiso   1.00
C25    C     0.18903   0.28564   0.40094   0.00000  Uiso   1.00
C26    C     0.20751   0.26892   0.10658   0.00000  Uiso   1.00
C27    C     0.14366   0.21536   0.39571   0.00000  Uiso   1.00
C28    C     0.20840   0.26689   0.05754   0.00000  Uiso   1.00
H29    H     0.09466   0.02846   0.27870   0.00000  Uiso   1.00
H30    H     0.23648   0.38998   0.29778   0.00000  Uiso   1.00
H31    H     0.04881   0.21269   0.03532   0.00000  Uiso   1.00
H32    H     0.18207   0.33247   0.49956   0.00000  Uiso   1.00
H33    H     0.10107   0.19403   0.14401   0.00000  Uiso   1.00
H34    H     0.23173   0.30679   0.35593   0.00000  Uiso   1.00
H35    H     0.23437   0.30509   0.16032   0.00000  Uiso   1.00
H36    H     0.10246   0.19205   0.33961   0.00000  Uiso   1.00
H37    H     0.24257   0.27988   0.04371   0.00000  Uiso   1.00
H38    H     0.13017   0.18545   0.46119   0.00000  Uiso   1.00
H39    H     0.23812   0.47199   0.29723   0.00000  Uiso   1.00
H40    H     0.01263   0.20450   0.17637   0.00000  Uiso   1.00
H41    H     0.32070   0.29507   0.32404   0.00000  Uiso   1.00
H42    H     0.23933   0.02908   0.22060   0.00000  Uiso   1.00
H43    H     0.09290   0.47037   0.20216   0.00000  Uiso   1.00
H44    H     0.25399   0.14700   0.22731   0.00000  Uiso   1.00
H45    H     0.07881   0.35241   0.20537   0.00000  Uiso   1.00
H46    H     0.09665   0.11046   0.27954   0.00000  Uiso   1.00
N47    N     0.16667   0.24999   0.12624   0.00000  Uiso   1.00
N48    N     0.16667   0.25001   0.37377   0.00000  Uiso   1.00
O49    O     0.16667   0.18453   0.28974   0.00000  Uiso   1.00
O50    O     0.01308   0.28360   0.30473   0.00000  Uiso   1.00
O51    O     0.25283   0.11490   0.21849   0.00000  Uiso   1.00
O52    O     0.07974   0.38447   0.19683   0.00000  Uiso   1.00
O53    O     0.07703   0.22075   0.01667   0.00000  Uiso   1.00
O54    O     0.20144   0.32869   0.47243   0.00000  Uiso   1.00
O55    O     0.08533   0.20866   0.11474   0.00000  Uiso   1.00
O56    O     0.21525   0.31990   0.38160   0.00000  Uiso   1.00
O57    O     0.24841   0.29114   0.13365   0.00000  Uiso   1.00
O58    O     0.11778   0.18024   0.37054   0.00000  Uiso   1.00
O59    O     0.16666   0.31546   0.21026   0.00000  Uiso   1.00
O60    O     0.16667   0.18453   0.21026   0.00000  Uiso   1.00
O61    O     0.16666   0.31547   0.28974   0.00000  Uiso   1.00
O62    O     0.09058   0.25000   0.28045   0.00000  Uiso   1.00
O63    O     0.24275   0.25000   0.21956   0.00000  Uiso   1.00
O64    O     0.09058   0.24999   0.20096   0.00000  Uiso   1.00
O65    O     0.24275   0.25000   0.29904   0.00000  Uiso   1.00
O66    O     0.32022   0.21645   0.19532   0.00000  Uiso   1.00
Zn67   Zn    0.16667   0.25000   0.30307   0.00000  Uiso   1.00
Zn68   Zn    0.16667   0.24999   0.19693   0.00000  Uiso   1.00
C69    C     0.50076   0.16413   0.25005   0.00000  Uiso   1.00
C70    C     0.47880   0.21483   0.44512   0.00000  Uiso   1.00
C71    C     0.49818   0.25096   0.02641   0.00000  Uiso   1.00
C72    C     0.49815   0.25197   0.47322   0.00000  Uiso   1.00
C73    C     0.40061   0.24888   0.23786   0.00000  Uiso   1.00
C74    C     0.59939   0.25115   0.26214   0.00000  Uiso   1.00
C75    C     0.34580   0.24225   0.23263   0.00000  Uiso   1.00
C76    C     0.65420   0.25783   0.26738   0.00000  Uiso   1.00
C77    C     0.54163   0.04719   0.23323   0.00000  Uiso   1.00
C78    C     0.45744   0.45247   0.22280   0.00000  Uiso   1.00
C79    C     0.54354   0.09361   0.23364   0.00000  Uiso   1.00
C80    C     0.49920   0.33586   0.24997   0.00000  Uiso   1.00
C81    C     0.45574   0.40605   0.22283   0.00000  Uiso   1.00
C82    C     0.50244   0.11632   0.25026   0.00000  Uiso   1.00
C83    C     0.49715   0.38364   0.24994   0.00000  Uiso   1.00
C84    C     0.46133   0.09288   0.26677   0.00000  Uiso   1.00
C85    C     0.53826   0.40735   0.27698   0.00000  Uiso   1.00
C86    C     0.45996   0.04665   0.26602   0.00000  Uiso   1.00
C87    C     0.53943   0.45358   0.27645   0.00000  Uiso   1.00
C88    C     0.50010   0.02404   0.24930   0.00000  Uiso   1.00
C89    C     0.49908   0.47591   0.24936   0.00000  Uiso   1.00
C90    C     0.45497   0.23416   0.04653   0.00000  Uiso   1.00
C91    C     0.51834   0.28888   0.44963   0.00000  Uiso   1.00
C92    C     0.45819   0.23123   0.09665   0.00000  Uiso   1.00
C93    C     0.52236   0.28564   0.40094   0.00000  Uiso   1.00
C94    C     0.54084   0.26892   0.10658   0.00000  Uiso   1.00
C95    C     0.47699   0.21536   0.39571   0.00000  Uiso   1.00
C96    C     0.54173   0.26689   0.05754   0.00000  Uiso   1.00
H97    H     0.42800   0.02846   0.27870   0.00000  Uiso   1.00
H98    H     0.56981   0.38998   0.29778   0.00000  Uiso   1.00
H99    H     0.38215   0.21269   0.03532   0.00000  Uiso   1.00
H100   H     0.51541   0.33247   0.49956   0.00000  Uiso   1.00
H101   H     0.43441   0.19403   0.14401   0.00000  Uiso   1.00
H102   H     0.56507   0.30679   0.35593   0.00000  Uiso   1.00
H103   H     0.56770   0.30509   0.16032   0.00000  Uiso   1.00
H104   H     0.43580   0.19205   0.33961   0.00000  Uiso   1.00
H105   H     0.57591   0.27988   0.04371   0.00000  Uiso   1.00
H106   H     0.46351   0.18545   0.46119   0.00000  Uiso   1.00
H107   H     0.57146   0.47199   0.29723   0.00000  Uiso   1.00
H108   H     0.34596   0.20450   0.17637   0.00000  Uiso   1.00
H109   H     0.65403   0.29507   0.32404   0.00000  Uiso   1.00
H110   H     0.57266   0.02908   0.22060   0.00000  Uiso   1.00
H111   H     0.42623   0.47037   0.20216   0.00000  Uiso   1.00
H112   H     0.58733   0.14700   0.22731   0.00000  Uiso   1.00
H113   H     0.41214   0.35241   0.20537   0.00000  Uiso   1.00
H114   H     0.42999   0.11046   0.27954   0.00000  Uiso   1.00
N115   N     0.50000   0.24999   0.12624   0.00000  Uiso   1.00
N116   N     0.50000   0.25001   0.37377   0.00000  Uiso   1.00
O117   O     0.50000   0.18453   0.28974   0.00000  Uiso   1.00
O118   O     0.34641   0.28360   0.30473   0.00000  Uiso   1.00
O119   O     0.58616   0.11490   0.21849   0.00000  Uiso   1.00
O120   O     0.41307   0.38447   0.19683   0.00000  Uiso   1.00
O121   O     0.41036   0.22075   0.01667   0.00000  Uiso   1.00
O122   O     0.53478   0.32869   0.47243   0.00000  Uiso   1.00
O123   O     0.41866   0.20866   0.11474   0.00000  Uiso   1.00
O124   O     0.54858   0.31990   0.38160   0.00000  Uiso   1.00
O125   O     0.58174   0.29114   0.13365   0.00000  Uiso   1.00
O126   O     0.45111   0.18024   0.37054   0.00000  Uiso   1.00
O127   O     0.50000   0.31546   0.21026   0.00000  Uiso   1.00
O128   O     0.50000   0.18453   0.21026   0.00000  Uiso   1.00
O129   O     0.50000   0.31547   0.28974   0.00000  Uiso   1.00
O130   O     0.42392   0.25000   0.28045   0.00000  Uiso   1.00
O131   O     0.57608   0.25000   0.21956   0.00000  Uiso   1.00
O132   O     0.42392   0.24999   0.20096   0.00000  Uiso   1.00
O133   O     0.57608   0.25000   0.29904   0.00000  Uiso   1.00
O134   O     0.65356   0.21645   0.19532   0.00000  Uiso   1.00
Zn135  Zn    0.50000   0.25000   0.30307   0.00000  Uiso   1.00
Zn136  Zn    0.50000   0.24999   0.19693   0.00000  Uiso   1.00
C137   C     0.83409   0.16413   0.25005   0.00000  Uiso   1.00
C138   C     0.81213   0.21483   0.44512   0.00000  Uiso   1.00
C139   C     0.83151   0.25096   0.02641   0.00000  Uiso   1.00
C140   C     0.83148   0.25197   0.47322   0.00000  Uiso   1.00
C141   C     0.73394   0.24888   0.23786   0.00000  Uiso   1.00
C142   C     0.93273   0.25115   0.26214   0.00000  Uiso   1.00
C143   C     0.67913   0.24225   0.23263   0.00000  Uiso   1.00
C144   C     0.98753   0.25783   0.26738   0.00000  Uiso   1.00
C145   C     0.87497   0.04719   0.23323   0.00000  Uiso   1.00
C146   C     0.79078   0.45247   0.22280   0.00000  Uiso   1.00
C147   C     0.87687   0.09361   0.23364   0.00000  Uiso   1.00
C148   C     0.83253   0.33586   0.24997   0.00000  Uiso   1.00
C149   C     0.78908   0.40605   0.22283   0.00000  Uiso   1.00
C150   C     0.83577   0.11632   0.25026   0.00000  Uiso   1.00
C151   C     0.83048   0.38364   0.24994   0.00000  Uiso   1.00
C152   C     0.79466   0.09288   0.26677   0.00000  Uiso   1.00
C153   C     0.87159   0.40735   0.27698   0.00000  Uiso   1.00
C154   C     0.79329   0.04665   0.26602   0.00000  Uiso   1.00
C155   C     0.87276   0.45358   0.27645   0.00000  Uiso   1.00
C156   C     0.83343   0.02404   0.24930   0.00000  Uiso   1.00
C157   C     0.83242   0.47591   0.24936   0.00000  Uiso   1.00
C158   C     0.78831   0.23416   0.04653   0.00000  Uiso   1.00
C159   C     0.85168   0.28888   0.44963   0.00000  Uiso   1.00
C160   C     0.79152   0.23123   0.09665   0.00000  Uiso   1.00
C161   C     0.85569   0.28564   0.40094   0.00000  Uiso   1.00
C162   C     0.87418   0.26892   0.10658   0.00000  Uiso   1.00
C163   C     0.81033   0.21536   0.39571   0.00000  Uiso   1.00
C164   C     0.87507   0.26689   0.05754   0.00000  Uiso   1.00
H165   H     0.76133   0.02846   0.27870   0.00000  Uiso   1.00
H166   H     0.90315   0.38998   0.29778   0.00000  Uiso   1.00
H167   H     0.71548   0.21269   0.03532   0.00000  Uiso   1.00
H168   H     0.84874   0.33247   0.49956   0.00000  Uiso   1.00
H169   H     0.76774   0.19403   0.14401   0.00000  Uiso   1.00
H170   H     0.89840   0.30679   0.35593   0.00000  Uiso   1.00
H171   H     0.90104   0.30509   0.16032   0.00000  Uiso   1.00
H172   H     0.76913   0.19205   0.33961   0.00000  Uiso   1.00
H173   H     0.90924   0.27988   0.04371   0.00000  Uiso   1.00
H174   H     0.79684   0.18545   0.46119   0.00000  Uiso   1.00
H175   H     0.90479   0.47199   0.29723   0.00000  Uiso   1.00
H176   H     0.67930   0.20450   0.17637   0.00000  Uiso   1.00
H177   H     0.98737   0.29507   0.32404   0.00000  Uiso   1.00
H178   H     0.90600   0.02908   0.22060   0.00000  Uiso   1.00
H179   H     0.75956   0.47037   0.20216   0.00000  Uiso   1.00
H180   H     0.92066   0.14700   0.22731   0.00000  Uiso   1.00
H181   H     0.74548   0.35241   0.20537   0.00000  Uiso   1.00
H182   H     0.76332   0.11046   0.27954   0.00000  Uiso   1.00
N183   N     0.83333   0.24999   0.12624   0.00000  Uiso   1.00
N184   N     0.83333   0.25001   0.37377   0.00000  Uiso   1.00
O185   O     0.83334   0.18453   0.28974   0.00000  Uiso   1.00
O186   O     0.67974   0.28360   0.30473   0.00000  Uiso   1.00
O187   O     0.91950   0.11490   0.21849   0.00000  Uiso   1.00
O188   O     0.74641   0.38447   0.19683   0.00000  Uiso   1.00
O189   O     0.74370   0.22075   0.01667   0.00000  Uiso   1.00
O190   O     0.86811   0.32869   0.47243   0.00000  Uiso   1.00
O191   O     0.75199   0.20866   0.11474   0.00000  Uiso   1.00
O192   O     0.88192   0.31990   0.38160   0.00000  Uiso   1.00
O193   O     0.91508   0.29114   0.13365   0.00000  Uiso   1.00
O194   O     0.78445   0.18024   0.37054   0.00000  Uiso   1.00
O195   O     0.83333   0.31546   0.21026   0.00000  Uiso   1.00
O196   O     0.83334   0.18453   0.21026   0.00000  Uiso   1.00
O197   O     0.83333   0.31547   0.28974   0.00000  Uiso   1.00
O198   O     0.75725   0.25000   0.28045   0.00000  Uiso   1.00
O199   O     0.90942   0.25000   0.21956   0.00000  Uiso   1.00
O200   O     0.75725   0.24999   0.20096   0.00000  Uiso   1.00
O201   O     0.90942   0.25000   0.29904   0.00000  Uiso   1.00
O202   O     0.98689   0.21645   0.19532   0.00000  Uiso   1.00
Zn203  Zn    0.83333   0.25000   0.30307   0.00000  Uiso   1.00
Zn204  Zn    0.83333   0.24999   0.19693   0.00000  Uiso   1.00
C205   C     0.16742   0.66413   0.25005   0.00000  Uiso   1.00
C206   C     0.14547   0.71483   0.44512   0.00000  Uiso   1.00
C207   C     0.16485   0.75096   0.02641   0.00000  Uiso   1.00
C208   C     0.16481   0.75197   0.47322   0.00000  Uiso   1.00
C209   C     0.06727   0.74888   0.23786   0.00000  Uiso   1.00
C210   C     0.26606   0.75115   0.26214   0.00000  Uiso   1.00
C211   C     0.01246   0.74225   0.23263   0.00000  Uiso   1.00
C212   C     0.32086   0.75783   0.26738   0.00000  Uiso   1.00
C213   C     0.20830   0.54719   0.23323   0.00000  Uiso   1.00
C214   C     0.12411   0.95247   0.22280   0.00000  Uiso   1.00
C215   C     0.21020   0.59361   0.23364   0.00000  Uiso   1.00
C216   C     0.16586   0.83586   0.24997   0.00000  Uiso   1.00
C217   C     0.12241   0.90605   0.22283   0.00000  Uiso   1.00
C218   C     0.16910   0.61632   0.25026   0.00000  Uiso   1.00
C219   C     0.16381   0.88364   0.24994   0.00000  Uiso   1.00
C220   C     0.12800   0.59288   0.26677   0.00000  Uiso   1.00
C221   C     0.20493   0.90735   0.27698   0.00000  Uiso   1.00
C222   C     0.12663   0.54665   0.26602   0.00000  Uiso   1.00
C223   C     0.20610   0.95358   0.27645   0.00000  Uiso   1.00
C224   C     0.16676   0.52404   0.24930   0.00000  Uiso   1.00
C225   C     0.16575   0.97591   0.24936   0.00000  Uiso   1.00
C226   C     0.12164   0.73416   0.04653   0.00000  Uiso   1.00
C227   C     0.18501   0.78888   0.44963   0.00000  Uiso   1.00
C228   C     0.12485   0.73123   0.09665   0.00000  Uiso   1.00
C229   C     0.18903   0.78564   0.40094   0.00000  Uiso   1.00
C230   C     0.20751   0.76892   0.10658   0.00000  Uiso   1.00
C231   C     0.14366   0.71536   0.39571   0.00000  Uiso   1.00
C232   C     0.20840   0.76689   0.05754   0.00000  Uiso   1.00
H233   H     0.09466   0.52846   0.27870   0.00000  Uiso   1.00
H234   H     0.23648   0.88998   0.29778   0.00000  Uiso   1.00
H235   H     0.04881   0.71269   0.03532   0.00000  Uiso   1.00
H236   H     0.18207   0.83247   0.49956   0.00000  Uiso   1.00
H237   H     0.10107   0.69403   0.14401   0.00000  Uiso   1.00
H238   H     0.23173   0.80679   0.35593   0.00000  Uiso   1.00
H239   H     0.23437   0.80509   0.16032   0.00000  Uiso   1.00
H240   H     0.10246   0.69205   0.33961   0.00000  Uiso   1.00
H241   H     0.24257   0.77988   0.04371   0.00000  Uiso   1.00
H242   H     0.13017   0.68545   0.46119   0.00000  Uiso   1.00
H243   H     0.23812   0.97199   0.29723   0.00000  Uiso   1.00
H244   H     0.01263   0.70450   0.17637   0.00000  Uiso   1.00
H245   H     0.32070   0.79507   0.32404   0.00000  Uiso   1.00
H246   H     0.23933   0.52908   0.22060   0.00000  Uiso   1.00
H247   H     0.09290   0.97037   0.20216   0.00000  Uiso   1.00
H248   H     0.25399   0.64700   0.22731   0.00000  Uiso   1.00
H249   H     0.07881   0.85241   0.20537   0.00000  Uiso   1.00
H250   H     0.09665   0.61046   0.27954   0.00000  Uiso   1.00
N251   N     0.16667   0.74999   0.12624   0.00000  Uiso   1.00
N252   N     0.16667   0.75001   0.37377   0.00000  Uiso   1.00
O253   O     0.16667   0.68453   0.28974   0.00000  Uiso   1.00
O254   O     0.01308   0.78360   0.30473   0.00000  Uiso   1.00
O255   O     0.25283   0.61490   0.21849   0.00000  Uiso   1.00
O256   O     0.07974   0.88447   0.19683   0.00000  Uiso   1.00
O257   O     0.07703   0.72075   0.01667   0.00000  Uiso   1.00
O258   O     0.20144   0.82869   0.47243   0.00000  Uiso   1.00
O259   O     0.08533   0.70866   0.11474   0.00000  Uiso   1.00
O260   O     0.21525   0.81990   0.38160   0.00000  Uiso   1.00
O261   O     0.24841   0.79114   0.13365   0.00000  Uiso   1.00
O262   O     0.11778   0.68024   0.37054   0.00000  Uiso   1.00
O263   O     0.16666   0.81546   0.21026   0.00000  Uiso   1.00
O264   O     0.16667   0.68453   0.21026   0.00000  Uiso   1.00
O265   O     0.16666   0.81547   0.28974   0.00000  Uiso   1.00
O266   O     0.09058   0.75000   0.28045   0.00000  Uiso   1.00
O267   O     0.24275   0.75000   0.21956   0.00000  Uiso   1.00
O268   O     0.09058   0.74999   0.20096   0.00000  Uiso   1.00
O269   O     0.24275   0.75000   0.29904   0.00000  Uiso   1.00
O270   O     0.32022   0.71645   0.19532   0.00000  Uiso   1.00
Zn271  Zn    0.16667   0.75000   0.30307   0.00000  Uiso   1.00
Zn272  Zn    0.16667   0.74999   0.19693   0.00000  Uiso   1.00
C273   C     0.50076   0.66413   0.25005   0.00000  Uiso   1.00
C274   C     0.47880   0.71483   0.44512   0.00000  Uiso   1.00
C275   C     0.49818   0.75096   0.02641   0.00000  Uiso   1.00
C276   C     0.49815   0.75197   0.47322   0.00000  Uiso   1.00
C277   C     0.40061   0.74888   0.23786   0.00000  Uiso   1.00
C278   C     0.59939   0.75115   0.26214   0.00000  Uiso   1.00
C279   C     0.34580   0.74225   0.23263   0.00000  Uiso   1.00
C280   C     0.65420   0.75783   0.26738   0.00000  Uiso   1.00
C281   C     0.54163   0.54719   0.23323   0.00000  Uiso   1.00
C282   C     0.45744   0.95247   0.22280   0.00000  Uiso   1.00
C283   C     0.54354   0.59361   0.23364   0.00000  Uiso   1.00
C284   C     0.49920   0.83586   0.24997   0.00000  Uiso   1.00
C285   C     0.45574   0.90605   0.22283   0.00000  Uiso   1.00
C286   C     0.50244   0.61632   0.25026   0.00000  Uiso   1.00
C287   C     0.49715   0.88364   0.24994   0.00000  Uiso   1.00
C288   C     0.46133   0.59288   0.26677   0.00000  Uiso   1.00
C289   C     0.53826   0.90735   0.27698   0.00000  Uiso   1.00
C290   C     0.45996   0.54665   0.26602   0.00000  Uiso   1.00
C291   C     0.53943   0.95358   0.27645   0.00000  Uiso   1.00
C292   C     0.50010   0.52404   0.24930   0.00000  Uiso   1.00
C293   C     0.49908   0.97591   0.24936   0.00000  Uiso   1.00
C294   C     0.45497   0.73416   0.04653   0.00000  Uiso   1.00
C295   C     0.51834   0.78888   0.44963   0.00000  Uiso   1.00
C296   C     0.45819   0.73123   0.09665   0.00000  Uiso   1.00
C297   C     0.52236   0.78564   0.40094   0.00000  Uiso   1.00
C298   C     0.54084   0.76892   0.10658   0.00000  Uiso   1.00
C299   C     0.47699   0.71536   0.39571   0.00000  Uiso   1.00
C300   C     0.54173   0.76689   0.05754   0.00000  Uiso   1.00
H301   H     0.42800   0.52846   0.27870   0.00000  Uiso   1.00
H302   H     0.56981   0.88998   0.29778   0.00000  Uiso   1.00
H303   H     0.38215   0.71269   0.03532   0.00000  Uiso   1.00
H304   H     0.51541   0.83247   0.49956   0.00000  Uiso   1.00
H305   H     0.43441   0.69403   0.14401   0.00000  Uiso   1.00
H306   H     0.56507   0.80679   0.35593   0.00000  Uiso   1.00
H307   H     0.56770   0.80509   0.16032   0.00000  Uiso   1.00
H308   H     0.43580   0.69205   0.33961   0.00000  Uiso   1.00
H309   H     0.57591   0.77988   0.04371   0.00000  Uiso   1.00
H310   H     0.46351   0.68545   0.46119   0.00000  Uiso   1.00
H311   H     0.57146   0.97199   0.29723   0.00000  Uiso   1.00
H312   H     0.34596   0.70450   0.17637   0.00000  Uiso   1.00
H313   H     0.65403   0.79507   0.32404   0.00000  Uiso   1.00
H314   H     0.57266   0.52908   0.22060   0.00000  Uiso   1.00
H315   H     0.42623   0.97037   0.20216   0.00000  Uiso   1.00
H316   H     0.58733   0.64700   0.22731   0.00000  Uiso   1.00
H317   H     0.41214   0.85241   0.20537   0.00000  Uiso   1.00
H318   H     0.42999   0.61046   0.27954   0.00000  Uiso   1.00
N319   N     0.50000   0.74999   0.12624   0.00000  Uiso   1.00
N320   N     0.50000   0.75001   0.37377   0.00000  Uiso   1.00
O321   O     0.50000   0.68453   0.28974   0.00000  Uiso   1.00
O322   O     0.34641   0.78360   0.30473   0.00000  Uiso   1.00
O323   O     0.58616   0.61490   0.21849   0.00000  Uiso   1.00
O324   O     0.41307   0.88447   0.19683   0.00000  Uiso   1.00
O325   O     0.41036   0.72075   0.01667   0.00000  Uiso   1.00
O326   O     0.53478   0.82869   0.47243   0.00000  Uiso   1.00
O327   O     0.41866   0.70866   0.11474   0.00000  Uiso   1.00
O328   O     0.54858   0.81990   0.38160   0.00000  Uiso   1.00
O329   O     0.58174   0.79114   0.13365   0.00000  Uiso   1.00
O330   O     0.45111   0.68024   0.37054   0.00000  Uiso   1.00
O331   O     0.50000   0.81546   0.21026   0.00000  Uiso   1.00
O332   O     0.50000   0.68453   0.21026   0.00000  Uiso   1.00
O333   O     0.50000   0.81547   0.28974   0.00000  Uiso   1.00
O334   O     0.42392   0.75000   0.28045   0.00000  Uiso   1.00
O335   O     0.57608   0.75000   0.21956   0.00000  Uiso   1.00
O336   O     0.42392   0.74999   0.20096   0.00000  Uiso   1.00
O337   O     0.57608   0.75000   0.29904   0.00000  Uiso   1.00
O338   O     0.65356   0.71645   0.19532   0.00000  Uiso   1.00
Zn339  Zn    0.50000   0.75000   0.30307   0.00000  Uiso   1.00
Zn340  Zn    0.50000   0.74999   0.19693   0.00000  Uiso   1.00
C341   C     0.83409   0.66413   0.25005   0.00000  Uiso   1.00
C342   C     0.81213   0.71483   0.44512   0.00000  Uiso   1.00
C343   C     0.83151   0.75096   0.02641   0.00000  Uiso   1.00
C344   C     0.83148   0.75197   0.47322   0.00000  Uiso   1.00
C345   C     0.73394   0.74888   0.23786   0.00000  Uiso   1.00
C346   C     0.93273   0.75115   0.26214   0.00000  Uiso   1.00
C347   C     0.67913   0.74225   0.23263   0.00000  Uiso   1.00
C348   C     0.98753   0.75783   0.26738   0.00000  Uiso   1.00
C349   C     0.87497   0.54719   0.23323   0.00000  Uiso   1.00
C350   C     0.79078   0.95247   0.22280   0.00000  Uiso   1.00
C351   C     0.87687   0.59361   0.23364   0.00000  Uiso   1.00
C352   C     0.83253   0.83586   0.24997   0.00000  Uiso   1.00
C353   C     0.78908   0.90605   0.22283   0.00000  Uiso   1.00
C354   C     0.83577   0.61632   0.25026   0.00000  Uiso   1.00
C355   C     0.83048   0.88364   0.24994   0.00000  Uiso   1.00
C356   C     0.79466   0.59288   0.26677   0.00000  Uiso   1.00
C357   C     0.87159   0.90735   0.27698   0.00000  Uiso   1.00
C358   C     0.79329   0.54665   0.26602   0.00000  Uiso   1.00
C359   C     0.87276   0.95358   0.27645   0.00000  Uiso   1.00
C360   C     0.83343   0.52404   0.24930   0.00000  Uiso   1.00
C361   C     0.83242   0.97591   0.24936   0.00000  Uiso   1.00
C362   C     0.78831   0.73416   0.04653   0.00000  Uiso   1.00
C363   C     0.85168   0.78888   0.44963   0.00000  Uiso   1.00
C364   C     0.79152   0.73123   0.09665   0.00000  Uiso   1.00
C365   C     0.85569   0.78564   0.40094   0.00000  Uiso   1.00
C366   C     0.87418   0.76892   0.10658   0.00000  Uiso   1.00
C367   C     0.81033   0.71536   0.39571   0.00000  Uiso   1.00
C368   C     0.87507   0.76689   0.05754   0.00000  Uiso   1.00
H369   H     0.76133   0.52846   0.27870   0.00000  Uiso   1.00
H370   H     0.90315   0.88998   0.29778   0.00000  Uiso   1.00
H371   H     0.71548   0.71269   0.03532   0.00000  Uiso   1.00
H372   H     0.84874   0.83247   0.49956   0.00000  Uiso   1.00
H373   H     0.76774   0.69403   0.14401   0.00000  Uiso   1.00
H374   H     0.89840   0.80679   0.35593   0.00000  Uiso   1.00
H375   H     0.90104   0.80509   0.16032   0.00000  Uiso   1.00
H376   H     0.76913   0.69205   0.33961   0.00000  Uiso   1.00
H377   H     0.90924   0.77988   0.04371   0.00000  Uiso   1.00
H378   H     0.79684   0.68545   0.46119   0.00000  Uiso   1.00
H379   H     0.90479   0.97199   0.29723   0.00000  Uiso   1.00
H380   H     0.67930   0.70450   0.17637   0.00000  Uiso   1.00
H381   H     0.98737   0.79507   0.32404   0.00000  Uiso   1.00
H382   H     0.90600   0.52908   0.22060   0.00000  Uiso   1.00
H383   H     0.75956   0.97037   0.20216   0.00000  Uiso   1.00
H384   H     0.92066   0.64700   0.22731   0.00000  Uiso   1.00
H385   H     0.74548   0.85241   0.20537   0.00000  Uiso   1.00
H386   H     0.76332   0.61046   0.27954   0.00000  Uiso   1.00
N387   N     0.83333   0.74999   0.12624   0.00000  Uiso   1.00
N388   N     0.83333   0.75001   0.37377   0.00000  Uiso   1.00
O389   O     0.83334   0.68453   0.28974   0.00000  Uiso   1.00
O390   O     0.67974   0.78360   0.30473   0.00000  Uiso   1.00
O391   O     0.91950   0.61490   0.21849   0.00000  Uiso   1.00
O392   O     0.74641   0.88447   0.19683   0.00000  Uiso   1.00
O393   O     0.74370   0.72075   0.01667   0.00000  Uiso   1.00
O394   O     0.86811   0.82869   0.47243   0.00000  Uiso   1.00
O395   O     0.75199   0.70866   0.11474   0.00000  Uiso   1.00
O396   O     0.88192   0.81990   0.38160   0.00000  Uiso   1.00
O397   O     0.91508   0.79114   0.13365   0.00000  Uiso   1.00
O398   O     0.78445   0.68024   0.37054   0.00000  Uiso   1.00
O399   O     0.83333   0.81546   0.21026   0.00000  Uiso   1.00
O400   O     0.83334   0.68453   0.21026   0.00000  Uiso   1.00
O401   O     0.83333   0.81547   0.28974   0.00000  Uiso   1.00
O402   O     0.75725   0.75000   0.28045   0.00000  Uiso   1.00
O403   O     0.90942   0.75000   0.21956   0.00000  Uiso   1.00
O404   O     0.75725   0.74999   0.20096   0.00000  Uiso   1.00
O405   O     0.90942   0.75000   0.29904   0.00000  Uiso   1.00
O406   O     0.98689   0.71645   0.19532   0.00000  Uiso   1.00
Zn407  Zn    0.83333   0.75000   0.30307   0.00000  Uiso   1.00
Zn408  Zn    0.83333   0.74999   0.19693   0.00000  Uiso   1.00
C409   C     0.16742   0.16413   0.75005   0.00000  Uiso   1.00
C410   C     0.14547   0.21483   0.94512   0.00000  Uiso   1.00
C411   C     0.16485   0.25096   0.52641   0.00000  Uiso   1.00
C412   C     0.16481   0.25197   0.97322   0.00000  Uiso   1.00
C413   C     0.06727   0.24888   0.73786   0.00000  Uiso   1.00
C414   C     0.26606   0.25115   0.76214   0.00000  Uiso   1.00
C415   C     0.01246   0.24225   0.73263   0.00000  Uiso   1.00
C416   C     0.32086   0.25783   0.76738   0.00000  Uiso   1.00
C417   C     0.20830   0.04719   0.73323   0.00000  Uiso   1.00
C418   C     0.12411   0.45247   0.72280   0.00000  Uiso   1.00
C419   C     0.21020   0.09361   0.73364   0.00000  Uiso   1.00
C420   C     0.16586   0.33586   0.74997   0.00000  Uiso   1.00
C421   C     0.12241   0.40605   0.72283   0.00000  Uiso   1.00
C422   C     0.16910   0.11632   0.75026   0.00000  Uiso   1.00
C423   C     0.16381   0.38364   0.74994   0.00000  Uiso   1.00
C424   C     0.12800   0.09288   0.76677   0.00000  Uiso   1.00
C425   C     0.20493   0.40735   0.77698   0.00000  Uiso   1.00
C426   C     0.12663   0.04665   0.76602   0.00000  Uiso   1.00
C427   C     0.20610   0.45358   0.77645   0.00000  Uiso   1.00
C428   C     0.16676   0.02404   0.74930   0.00000  Uiso   1.00
C429   C     0.16575   0.47591   0.74936   0.00000  Uiso   1.00
C430   C     0.12164   0.23416   0.54653   0.00000  Uiso   1.00
C431   C     0.18501   0.28888   0.94963   0.00000  Uiso   1.00
C432   C     0.12485   0.23123   0.59665   0.00000  Uiso   1.00
C433   C     0.18903   0.28564   0.90094   0.00000  Uiso   1.00
C434   C     0.20751   0.26892   0.60658   0.00000  Uiso   1.00
C435   C     0.14366   0.21536   0.89571   0.00000  Uiso   1.00
C436   C     0.20840   0.26689   0.55754   0.00000  Uiso   1.00
H437   H     0.09466   0.02846   0.77870   0.00000  Uiso   1.00
H438   H     0.23648   0.38998   0.79778   0.00000  Uiso   1.00
H439   H     0.04881   0.21269   0.53532   0.00000  Uiso   1.00
H440   H     0.18207   0.33247   0.99956   0.00000  Uiso   1.00
H441   H     0.10107   0.19403   0.64401   0.00000  Uiso   1.00
H442   H     0.23173   0.30679   0.85593   0.00000  Uiso   1.00
H443   H     0.23437   0.30509   0.66032   0.00000  Uiso   1.00
H444   H     0.10246   0.19205   0.83961   0.00000  Uiso   1.00
H445   H     0.24257   0.27988   0.54371   0.00000  Uiso   1.00
H446   H     0.13017   0.18545   0.96119   0.00000  Uiso   1.00
H447   H     0.23812   0.47199   0.79723   0.00000  Uiso   1.00
H448   H     0.01263   0.20450   0.67637   0.00000  Uiso   1.00
H449   H     0.32070   0.29507   0.82404   0.00000  Uiso   1.00
H450   H     0.23933   0.02908   0.72060   0.00000  Uiso   1.00
H451   H     0.09290   0.47037   0.70216   0.00000  Uiso   1.00
H452   H     0.25399   0.14700   0.72731   0.00000  Uiso   1.00
H453   H     0.07881   0.35241   0.70537   0.00000  Uiso   1.00
H454   H     0.09665   0.11046   0.77954   0.00000  Uiso   1.00
N455   N     0.16667   0.24999   0.62624   0.00000  Uiso   1.00
N456   N     0.16667   0.25001   0.87377   0.00000  Uiso   1.00
O457   O     0.16667   0.18453   0.78974   0.00000  Uiso   1.00
O458   O     0.01308   0.28360   0.80473   0.00000  Uiso   1.00
O459   O     0.25283   0.11490   0.71849   0.00000  Uiso   1.00
O460   O     0.07974   0.38447   0.69683   0.00000  Uiso   1.00
O461   O     0.07703   0.22075   0.51667   0.00000  Uiso   1.00
O462   O     0.20144   0.32869   0.97243   0.00000  Uiso   1.00
O463   O     0.08533   0.20866   0.61474   0.00000  Uiso   1.00
O464   O     0.21525   0.31990   0.88160   0.00000  Uiso   1.00
O465   O     0.24841   0.29114   0.63365   0.00000  Uiso   1.00
O466   O     0.11778   0.18024   0.87054   0.00000  Uiso   1.00
O467   O     0.16666   0.31546   0.71026   0.00000  Uiso   1.00
O468   O     0.16667   0.18453   0.71026   0.00000  Uiso   1.00
O469   O     0.16666   0.31547   0.78974   0.00000  Uiso   1.00
O470   O     0.09058   0.25000   0.78045   0.00000  Uiso   1.00
O471   O     0.24275   0.25000   0.71956   0.00000  Uiso   1.00
O472   O     0.09058   0.24999   0.70096   0.00000  Uiso   1.00
O473   O     0.24275   0.25000   0.79904   0.00000  Uiso   1.00
O474   O     0.32022   0.21645   0.69532   0.00000  Uiso   1.00
Zn475  Zn    0.16667   0.25000   0.80307   0.00000  Uiso   1.00
Zn476  Zn    0.16667   0.24999   0.69693   0.00000  Uiso   1.00
C477   C     0.50076   0.16413   0.75005   0.00000  Uiso   1.00
C478   C     0.47880   0.21483   0.94512   0.00000  Uiso   1.00
C479   C     0.49818   0.25096   0.52641   0.00000  Uiso   1.00
C480   C     0.49815   0.25197   0.97322   0.00000  Uiso   1.00
C481   C     0.40061   0.24888   0.73786   0.00000  Uiso   1.00
C482   C     0.59939   0.25115   0.76214   0.00000  Uiso   1.00
C483   C     0.34580   0.24225   0.73263   0.00000  Uiso   1.00
C484   C     0.65420   0.25783   0.76738   0.00000  Uiso   1.00
C485   C     0.54163   0.04719   0.73323   0.00000  Uiso   1.00
C486   C     0.45744   0.45247   0.72280   0.00000  Uiso   1.00
C487   C     0.54354   0.09361   0.73364   0.00000  Uiso   1.00
C488   C     0.49920   0.33586   0.74997   0.00000  Uiso   1.00
C489   C     0.45574   0.40605   0.72283   0.00000  Uiso   1.00
C490   C     0.50244   0.11632   0.75026   0.00000  Uiso   1.00
C491   C     0.49715   0.38364   0.74994   0.00000  Uiso   1.00
C492   C     0.46133   0.09288   0.76677   0.00000  Uiso   1.00
C493   C     0.53826   0.40735   0.77698   0.00000  Uiso   1.00
C494   C     0.45996   0.04665   0.76602   0.00000  Uiso   1.00
C495   C     0.53943   0.45358   0.77645   0.00000  Uiso   1.00
C496   C     0.50010   0.02404   0.74930   0.00000  Uiso   1.00
C497   C     0.49908   0.47591   0.74936   0.00000  Uiso   1.00
C498   C     0.45497   0.23416   0.54653   0.00000  Uiso   1.00
C499   C     0.51834   0.28888   0.94963   0.00000  Uiso   1.00
C500   C     0.45819   0.23123   0.59665   0.00000  Uiso   1.00
C501   C     0.52236   0.28564   0.90094   0.00000  Uiso   1.00
C502   C     0.54084   0.26892   0.60658   0.00000  Uiso   1.00
C503   C     0.47699   0.21536   0.89571   0.00000  Uiso   1.00
C504   C     0.54173   0.26689   0.55754   0.00000  Uiso   1.00
H505   H     0.42800   0.02846   0.77870   0.00000  Uiso   1.00
H506   H     0.56981   0.38998   0.79778   0.00000  Uiso   1.00
H507   H     0.38215   0.21269   0.53532   0.00000  Uiso   1.00
H508   H     0.51541   0.33247   0.99956   0.00000  Uiso   1.00
H509   H     0.43441   0.19403   0.64401   0.00000  Uiso   1.00
H510   H     0.56507   0.30679   0.85593   0.00000  Uiso   1.00
H511   H     0.56770   0.30509   0.66032   0.00000  Uiso   1.00
H512   H     0.43580   0.19205   0.83961   0.00000  Uiso   1.00
H513   H     0.57591   0.27988   0.54371   0.00000  Uiso   1.00
H514   H     0.46351   0.18545   0.96119   0.00000  Uiso   1.00
H515   H     0.57146   0.47199   0.79723   0.00000  Uiso   1.00
H516   H     0.34596   0.20450   0.67637   0.00000  Uiso   1.00
H517   H     0.65403   0.29507   0.82404   0.00000  Uiso   1.00
H518   H     0.57266   0.02908   0.72060   0.00000  Uiso   1.00
H519   H     0.42623   0.47037   0.70216   0.00000  Uiso   1.00
H520   H     0.58733   0.14700   0.72731   0.00000  Uiso   1.00
H521   H     0.41214   0.35241   0.70537   0.00000  Uiso   1.00
H522   H     0.42999   0.11046   0.77954   0.00000  Uiso   1.00
N523   N     0.50000   0.24999   0.62624   0.00000  Uiso   1.00
N524   N     0.50000   0.25001   0.87377   0.00000  Uiso   1.00
O525   O     0.50000   0.18453   0.78974   0.00000  Uiso   1.00
O526   O     0.34641   0.28360   0.80473   0.00000  Uiso   1.00
O527   O     0.58616   0.11490   0.71849   0.00000  Uiso   1.00
O528   O     0.41307   0.38447   0.69683   0.00000  Uiso   1.00
O529   O     0.41036   0.22075   0.51667   0.00000  Uiso   1.00
O530   O     0.53478   0.32869   0.97243   0.00000  Uiso   1.00
O531   O     0.41866   0.20866   0.61474   0.00000  Uiso   1.00
O532   O     0.54858   0.31990   0.88160   0.00000  Uiso   1.00
O533   O     0.58174   0.29114   0.63365   0.00000  Uiso   1.00
O534   O     0.45111   0.18024   0.87054   0.00000  Uiso   1.00
O535   O     0.50000   0.31546   0.71026   0.00000  Uiso   1.00
O536   O     0.50000   0.18453   0.71026   0.00000  Uiso   1.00
O537   O     0.50000   0.31547   0.78974   0.00000  Uiso   1.00
O538   O     0.42392   0.25000   0.78045   0.00000  Uiso   1.00
O539   O     0.57608   0.25000   0.71956   0.00000  Uiso   1.00
O540   O     0.42392   0.24999   0.70096   0.00000  Uiso   1.00
O541   O     0.57608   0.25000   0.79904   0.00000  Uiso   1.00
O542   O     0.65356   0.21645   0.69532   0.00000  Uiso   1.00
Zn543  Zn    0.50000   0.25000   0.80307   0.00000  Uiso   1.00
Zn544  Zn    0.50000   0.24999   0.69693   0.00000  Uiso   1.00
C545   C     0.83409   0.16413   0.75005   0.00000  Uiso   1.00
C546   C     0.81213   0.21483   0.94512   0.00000  Uiso   1.00
C547   C     0.83151   0.25096   0.52641   0.00000  Uiso   1.00
C548   C     0.83148   0.25197   0.97322   0.00000  Uiso   1.00
C549   C     0.73394   0.24888   0.73786   0.00000  Uiso   1.00
C550   C     0.93273   0.25115   0.76214   0.00000  Uiso   1.00
C551   C     0.67913   0.24225   0.73263   0.00000  Uiso   1.00
C552   C     0.98753   0.25783   0.76738   0.00000  Uiso   1.00
C553   C     0.87497   0.04719   0.73323   0.00000  Uiso   1.00
C554   C     0.79078   0.45247   0.72280   0.00000  Uiso   1.00
C555   C     0.87687   0.09361   0.73364   0.00000  Uiso   1.00
C556   C     0.83253   0.33586   0.74997   0.00000  Uiso   1.00
C557   C     0.78908   0.40605   0.72283   0.00000  Uiso   1.00
C558   C     0.83577   0.11632   0.75026   0.00000  Uiso   1.00
C559   C     0.83048   0.38364   0.74994   0.00000  Uiso   1.00
C560   C     0.79466   0.09288   0.76677   0.00000  Uiso   1.00
C561   C     0.87159   0.40735   0.77698   0.00000  Uiso   1.00
C562   C     0.79329   0.04665   0.76602   0.00000  Uiso   1.00
C563   C     0.87276   0.45358   0.77645   0.00000  Uiso   1.00
C564   C     0.83343   0.02404   0.74930   0.00000  Uiso   1.00
C565   C     0.83242   0.47591   0.74936   0.00000  Uiso   1.00
C566   C     0.78831   0.23416   0.54653   0.00000  Uiso   1.00
C567   C     0.85168   0.28888   0.94963   0.00000  Uiso   1.00
C568   C     0.79152   0.23123   0.59665   0.00000  Uiso   1.00
C569   C     0.85569   0.28564   0.90094   0.00000  Uiso   1.00
C570   C     0.87418   0.26892   0.60658   0.00000  Uiso   1.00
C571   C     0.81033   0.21536   0.89571   0.00000  Uiso   1.00
C572   C     0.87507   0.26689   0.55754   0.00000  Uiso   1.00
H573   H     0.76133   0.02846   0.77870   0.00000  Uiso   1.00
H574   H     0.90315   0.38998   0.79778   0.00000  Uiso   1.00
H575   H     0.71548   0.21269   0.53532   0.00000  Uiso   1.00
H576   H     0.84874   0.33247   0.99956   0.00000  Uiso   1.00
H577   H     0.76774   0.19403   0.64401   0.00000  Uiso   1.00
H578   H     0.89840   0.30679   0.85593   0.00000  Uiso   1.00
H579   H     0.90104   0.30509   0.66032   0.00000  Uiso   1.00
H580   H     0.76913   0.19205   0.83961   0.00000  Uiso   1.00
H581   H     0.90924   0.27988   0.54371   0.00000  Uiso   1.00
H582   H     0.79684   0.18545   0.96119   0.00000  Uiso   1.00
H583   H     0.90479   0.47199   0.79723   0.00000  Uiso   1.00
H584   H     0.67930   0.20450   0.67637   0.00000  Uiso   1.00
H585   H     0.98737   0.29507   0.82404   0.00000  Uiso   1.00
H586   H     0.90600   0.02908   0.72060   0.00000  Uiso   1.00
H587   H     0.75956   0.47037   0.70216   0.00000  Uiso   1.00
H588   H     0.92066   0.14700   0.72731   0.00000  Uiso   1.00
H589   H     0.74548   0.35241   0.70537   0.00000  Uiso   1.00
H590   H     0.76332   0.11046   0.77954   0.00000  Uiso   1.00
N591   N     0.83333   0.24999   0.62624   0.00000  Uiso   1.00
N592   N     0.83333   0.25001   0.87377   0.00000  Uiso   1.00
O593   O     0.83334   0.18453   0.78974   0.00000  Uiso   1.00
O594   O     0.67974   0.28360   0.80473   0.00000  Uiso   1.00
O595   O     0.91950   0.11490   0.71849   0.00000  Uiso   1.00
O596   O     0.74641   0.38447   0.69683   0.00000  Uiso   1.00
O597   O     0.74370   0.22075   0.51667   0.00000  Uiso   1.00
O598   O     0.86811   0.32869   0.97243   0.00000  Uiso   1.00
O599   O     0.75199   0.20866   0.61474   0.00000  Uiso   1.00
O600   O     0.88192   0.31990   0.88160   0.00000  Uiso   1.00
O601   O     0.91508   0.29114   0.63365   0.00000  Uiso   1.00
O602   O     0.78445   0.18024   0.87054   0.00000  Uiso   1.00
O603   O     0.83333   0.31546   0.71026   0.00000  Uiso   1.00
O604   O     0.83334   0.18453   0.71026   0.00000  Uiso   1.00
O605   O     0.83333   0.31547   0.78974   0.00000  Uiso   1.00
O606   O     0.75725   0.25000   0.78045   0.00000  Uiso   1.00
O607   O     0.90942   0.25000   0.71956   0.00000  Uiso   1.00
O608   O     0.75725   0.24999   0.70096   0.00000  Uiso   1.00
O609   O     0.90942   0.25000   0.79904   0.00000  Uiso   1.00
O610   O     0.98689   0.21645   0.69532   0.00000  Uiso   1.00
Zn611  Zn    0.83333   0.25000   0.80307   0.00000  Uiso   1.00
Zn612  Zn    0.83333   0.24999   0.69693   0.00000  Uiso   1.00
C613   C     0.16742   0.66413   0.75005   0.00000  Uiso   1.00
C614   C     0.14547   0.71483   0.94512   0.00000  Uiso   1.00
C615   C     0.16485   0.75096   0.52641   0.00000  Uiso   1.00
C616   C     0.16481   0.75197   0.97322   0.00000  Uiso   1.00
C617   C     0.06727   0.74888   0.73786   0.00000  Uiso   1.00
C618   C     0.26606   0.75115   0.76214   0.00000  Uiso   1.00
C619   C     0.01246   0.74225   0.73263   0.00000  Uiso   1.00
C620   C     0.32086   0.75783   0.76738   0.00000  Uiso   1.00
C621   C     0.20830   0.54719   0.73323   0.00000  Uiso   1.00
C622   C     0.12411   0.95247   0.72280   0.00000  Uiso   1.00
C623   C     0.21020   0.59361   0.73364   0.00000  Uiso   1.00
C624   C     0.16586   0.83586   0.74997   0.00000  Uiso   1.00
C625   C     0.12241   0.90605   0.72283   0.00000  Uiso   1.00
C626   C     0.16910   0.61632   0.75026   0.00000  Uiso   1.00
C627   C     0.16381   0.88364   0.74994   0.00000  Uiso   1.00
C628   C     0.12800   0.59288   0.76677   0.00000  Uiso   1.00
C629   C     0.20493   0.90735   0.77698   0.00000  Uiso   1.00
C630   C     0.12663   0.54665   0.76602   0.00000  Uiso   1.00
C631   C     0.20610   0.95358   0.77645   0.00000  Uiso   1.00
C632   C     0.16676   0.52404   0.74930   0.00000  Uiso   1.00
C633   C     0.16575   0.97591   0.74936   0.00000  Uiso   1.00
C634   C     0.12164   0.73416   0.54653   0.00000  Uiso   1.00
C635   C     0.18501   0.78888   0.94963   0.00000  Uiso   1.00
C636   C     0.12485   0.73123   0.59665   0.00000  Uiso   1.00
C637   C     0.18903   0.78564   0.90094   0.00000  Uiso   1.00
C638   C     0.20751   0.76892   0.60658   0.00000  Uiso   1.00
C639   C     0.14366   0.71536   0.89571   0.00000  Uiso   1.00
C640   C     0.20840   0.76689   0.55754   0.00000  Uiso   1.00
H641   H     0.09466   0.52846   0.77870   0.00000  Uiso   1.00
H642   H     0.23648   0.88998   0.79778   0.00000  Uiso   1.00
H643   H     0.04881   0.71269   0.53532   0.00000  Uiso   1.00
H644   H     0.18207   0.83247   0.99956   0.00000  Uiso   1.00
H645   H     0.10107   0.69403   0.64401   0.00000  Uiso   1.00
H646   H     0.23173   0.80679   0.85593   0.00000  Uiso   1.00
H647   H     0.23437   0.80509   0.66032   0.00000  Uiso   1.00
H648   H     0.10246   0.69205   0.83961   0.00000  Uiso   1.00
H649   H     0.24257   0.77988   0.54371   0.00000  Uiso   1.00
H650   H     0.13017   0.68545   0.96119   0.00000  Uiso   1.00
H651   H     0.23812   0.97199   0.79723   0.00000  Uiso   1.00
H652   H     0.01263   0.70450   0.67637   0.00000  Uiso   1.00
H653   H     0.32070   0.79507   0.82404   0.00000  Uiso   1.00
H654   H     0.23933   0.52908   0.72060   0.00000  Uiso   1.00
H655   H     0.09290   0.97037   0.70216   0.00000  Uiso   1.00
H656   H     0.25399   0.64700   0.72731   0.00000  Uiso   1.00
H657   H     0.07881   0.85241   0.70537   0.00000  Uiso   1.00
H658   H     0.09665   0.61046   0.77954   0.00000  Uiso   1.00
N659   N     0.16667   0.74999   0.62624   0.00000  Uiso   1.00
N660   N     0.16667   0.75001   0.87377   0.00000  Uiso   1.00
O661   O     0.16667   0.68453   0.78974   0.00000  Uiso   1.00
O662   O     0.01308   0.78360   0.80473   0.00000  Uiso   1.00
O663   O     0.25283   0.61490   0.71849   0.00000  Uiso   1.00
O664   O     0.07974   0.88447   0.69683   0.00000  Uiso   1.00
O665   O     0.07703   0.72075   0.51667   0.00000  Uiso   1.00
O666   O     0.20144   0.82869   0.97243   0.00000  Uiso   1.00
O667   O     0.08533   0.70866   0.61474   0.00000  Uiso   1.00
O668   O     0.21525   0.81990   0.88160   0.00000  Uiso   1.00
O669   O     0.24841   0.79114   0.63365   0.00000  Uiso   1.00
O670   O     0.11778   0.68024   0.87054   0.00000  Uiso   1.00
O671   O     0.16666   0.81546   0.71026   0.00000  Uiso   1.00
O672   O     0.16667   0.68453   0.71026   0.00000  Uiso   1.00
O673   O     0.16666   0.81547   0.78974   0.00000  Uiso   1.00
O674   O     0.09058   0.75000   0.78045   0.00000  Uiso   1.00
O675   O     0.24275   0.75000   0.71956   0.00000  Uiso   1.00
O676   O     0.09058   0.74999   0.70096   0.00000  Uiso   1.00
O677   O     0.24275   0.75000   0.79904   0.00000  Uiso   1.00
O678   O     0.32022   0.71645   0.69532   0.00000  Uiso   1.00
Zn679  Zn    0.16667   0.75000   0.80307   0.00000  Uiso   1.00
Zn680  Zn    0.16667   0.74999   0.69693   0.00000  Uiso   1.00
C681   C     0.50076   0.66413   0.75005   0.00000  Uiso   1.00
C682   C     0.47880   0.71483   0.94512   0.00000  Uiso   1.00
C683   C     0.49818   0.75096   0.52641   0.00000  Uiso   1.00
C684   C     0.49815   0.75197   0.97322   0.00000  Uiso   1.00
C685   C     0.40061   0.74888   0.73786   0.00000  Uiso   1.00
C686   C     0.59939   0.75115   0.76214   0.00000  Uiso   1.00
C687   C     0.34580   0.74225   0.73263   0.00000  Uiso   1.00
C688   C     0.65420   0.75783   0.76738   0.00000  Uiso   1.00
C689   C     0.54163   0.54719   0.73323   0.00000  Uiso   1.00
C690   C     0.45744   0.95247   0.72280   0.00000  Uiso   1.00
C691   C     0.54354   0.59361   0.73364   0.00000  Uiso   1.00
C692   C     0.49920   0.83586   0.74997   0.00000  Uiso   1.00
C693   C     0.45574   0.90605   0.72283   0.00000  Uiso   1.00
C694   C     0.50244   0.61632   0.75026   0.00000  Uiso   1.00
C695   C     0.49715   0.88364   0.74994   0.00000  Uiso   1.00
C696   C     0.46133   0.59288   0.76677   0.00000  Uiso   1.00
C697   C     0.53826   0.90735   0.77698   0.00000  Uiso   1.00
C698   C     0.45996   0.54665   0.76602   0.00000  Uiso   1.00
C699   C     0.53943   0.95358   0.77645   0.00000  Uiso   1.00
C700   C     0.50010   0.52404   0.74930   0.00000  Uiso   1.00
C701   C     0.49908   0.97591   0.74936   0.00000  Uiso   1.00
C702   C     0.45497   0.73416   0.54653   0.00000  Uiso   1.00
C703   C     0.51834   0.78888   0.94963   0.00000  Uiso   1.00
C704   C     0.45819   0.73123   0.59665   0.00000  Uiso   1.00
C705   C     0.52236   0.78564   0.90094   0.00000  Uiso   1.00
C706   C     0.54084   0.76892   0.60658   0.00000  Uiso   1.00
C707   C     0.47699   0.71536   0.89571   0.00000  Uiso   1.00
C708   C     0.54173   0.76689   0.55754   0.00000  Uiso   1.00
H709   H     0.42800   0.52846   0.77870   0.00000  Uiso   1.00
H710   H     0.56981   0.88998   0.79778   0.00000  Uiso   1.00
H711   H     0.38215   0.71269   0.53532   0.00000  Uiso   1.00
H712   H     0.51541   0.83247   0.99956   0.00000  Uiso   1.00
H713   H     0.43441   0.69403   0.64401   0.00000  Uiso   1.00
H714   H     0.56507   0.80679   0.85593   0.00000  Uiso   1.00
H715   H     0.56770   0.80509   0.66032   0.00000  Uiso   1.00
H716   H     0.43580   0.69205   0.83961   0.00000  Uiso   1.00
H717   H     0.57591   0.77988   0.54371   0.00000  Uiso   1.00
H718   H     0.46351   0.68545   0.96119   0.00000  Uiso   1.00
H719   H     0.57146   0.97199   0.79723   0.00000  Uiso   1.00
H720   H     0.34596   0.70450   0.67637   0.00000  Uiso   1.00
H721   H     0.65403   0.79507   0.82404   0.00000  Uiso   1.00
H722   H     0.57266   0.52908   0.72060   0.00000  Uiso   1.00
H723   H     0.42623   0.97037   0.70216   0.00000  Uiso   1.00
H724   H     0.58733   0.64700   0.72731   0.00000  Uiso   1.00
H725   H     0.41214   0.85241   0.70537   0.00000  Uiso   1.00
H726   H     0.42999   0.61046   0.77954   0.00000  Uiso   1.00
N727   N     0.50000   0.74999   0.62624   0.00000  Uiso   1.00
N728   N     0.50000   0.75001   0.87377   0.00000  Uiso   1.00
O729   O     0.50000   0.68453   0.78974   0.00000  Uiso   1.00
O730   O     0.34641   0.78360   0.80473   0.00000  Uiso   1.00
O731   O     0.58616   0.61490   0.71849   0.00000  Uiso   1.00
O732   O     0.41307   0.88447   0.69683   0.00000  Uiso   1.00
O733   O     0.41036   0.72075   0.51667   0.00000  Uiso   1.00
O734   O     0.53478   0.82869   0.97243   0.00000  Uiso   1.00
O735   O     0.41866   0.70866   0.61474   0.00000  Uiso   1.00
O736   O     0.54858   0.81990   0.88160   0.00000  Uiso   1.00
O737   O     0.58174   0.79114   0.63365   0.00000  Uiso   1.00
O738   O     0.45111   0.68024   0.87054   0.00000  Uiso   1.00
O739   O     0.50000   0.81546   0.71026   0.00000  Uiso   1.00
O740   O     0.50000   0.68453   0.71026   0.00000  Uiso   1.00
O741   O     0.50000   0.81547   0.78974   0.00000  Uiso   1.00
O742   O     0.42392   0.75000   0.78045   0.00000  Uiso   1.00
O743   O     0.57608   0.75000   0.71956   0.00000  Uiso   1.00
O744   O     0.42392   0.74999   0.70096   0.00000  Uiso   1.00
O745   O     0.57608   0.75000   0.79904   0.00000  Uiso   1.00
O746   O     0.65356   0.71645   0.69532   0.00000  Uiso   1.00
Zn747  Zn    0.50000   0.75000   0.80307   0.00000  Uiso   1.00
Zn748  Zn    0.50000   0.74999   0.69693   0.00000  Uiso   1.00
C749   C     0.83409   0.66413   0.75005   0.00000  Uiso   1.00
C750   C     0.81213   0.71483   0.94512   0.00000  Uiso   1.00
C751   C     0.83151   0.75096   0.52641   0.00000  Uiso   1.00
C752   C     0.83148   0.75197   0.97322   0.00000  Uiso   1.00
C753   C     0.73394   0.74888   0.73786   0.00000  Uiso   1.00
C754   C     0.93273   0.75115   0.76214   0.00000  Uiso   1.00
C755   C     0.67913   0.74225   0.73263   0.00000  Uiso   1.00
C756   C     0.98753   0.75783   0.76738   0.00000  Uiso   1.00
C757   C     0.87497   0.54719   0.73323   0.00000  Uiso   1.00
C758   C     0.79078   0.95247   0.72280   0.00000  Uiso   1.00
C759   C     0.87687   0.59361   0.73364   0.00000  Uiso   1.00
C760   C     0.83253   0.83586   0.74997   0.00000  Uiso   1.00
C761   C     0.78908   0.90605   0.72283   0.00000  Uiso   1.00
C762   C     0.83577   0.61632   0.75026   0.00000  Uiso   1.00
C763   C     0.83048   0.88364   0.74994   0.00000  Uiso   1.00
C764   C     0.79466   0.59288   0.76677   0.00000  Uiso   1.00
C765   C     0.87159   0.90735   0.77698   0.00000  Uiso   1.00
C766   C     0.79329   0.54665   0.76602   0.00000  Uiso   1.00
C767   C     0.87276   0.95358   0.77645   0.00000  Uiso   1.00
C768   C     0.83343   0.52404   0.74930   0.00000  Uiso   1.00
C769   C     0.83242   0.97591   0.74936   0.00000  Uiso   1.00
C770   C     0.78831   0.73416   0.54653   0.00000  Uiso   1.00
C771   C     0.85168   0.78888   0.94963   0.00000  Uiso   1.00
C772   C     0.79152   0.73123   0.59665   0.00000  Uiso   1.00
C773   C     0.85569   0.78564   0.90094   0.00000  Uiso   1.00
C774   C     0.87418   0.76892   0.60658   0.00000  Uiso   1.00
C775   C     0.81033   0.71536   0.89571   0.00000  Uiso   1.00
C776   C     0.87507   0.76689   0.55754   0.00000  Uiso   1.00
H777   H     0.76133   0.52846   0.77870   0.00000  Uiso   1.00
H778   H     0.90315   0.88998   0.79778   0.00000  Uiso   1.00
H779   H     0.71548   0.71269   0.53532   0.00000  Uiso   1.00
H780   H     0.84874   0.83247   0.99956   0.00000  Uiso   1.00
H781   H     0.76774   0.69403   0.64401   0.00000  Uiso   1.00
H782   H     0.89840   0.80679   0.85593   0.00000  Uiso   1.00
H783   H     0.90104   0.80509   0.66032   0.00000  Uiso   1.00
H784   H     0.76913   0.69205   0.83961   0.00000  Uiso   1.00
H785   H     0.90924   0.77988   0.54371   0.00000  Uiso   1.00
H786   H     0.79684   0.68545   0.96119   0.00000  Uiso   1.00
H787   H     0.90479   0.97199   0.79723   0.00000  Uiso   1.00
H788   H     0.67930   0.70450   0.67637   0.00000  Uiso   1.00
H789   H     0.98737   0.79507   0.82404   0.00000  Uiso   1.00
H790   H     0.90600   0.52908   0.72060   0.00000  Uiso   1.00
H791   H     0.75956   0.97037   0.70216   0.00000  Uiso   1.00
H792   H     0.92066   0.64700   0.72731   0.00000  Uiso   1.00
H793   H     0.74548   0.85241   0.70537   0.00000  Uiso   1.00
H794   H     0.76332   0.61046   0.77954   0.00000  Uiso   1.00
N795   N     0.83333   0.74999   0.62624   0.00000  Uiso   1.00
N796   N     0.83333   0.75001   0.87377   0.00000  Uiso   1.00
O797   O     0.83334   0.68453   0.78974   0.00000  Uiso   1.00
O798   O     0.67974   0.78360   0.80473   0.00000  Uiso   1.00
O799   O     0.91950   0.61490   0.71849   0.00000  Uiso   1.00
O800   O     0.74641   0.88447   0.69683   0.00000  Uiso   1.00
O801   O     0.74370   0.72075   0.51667   0.00000  Uiso   1.00
O802   O     0.86811   0.82869   0.97243   0.00000  Uiso   1.00
O803   O     0.75199   0.70866   0.61474   0.00000  Uiso   1.00
O804   O     0.88192   0.81990   0.88160   0.00000  Uiso   1.00
O805   O     0.91508   0.79114   0.63365   0.00000  Uiso   1.00
O806   O     0.78445   0.68024   0.87054   0.00000  Uiso   1.00
O807   O     0.83333   0.81546   0.71026   0.00000  Uiso   1.00
O808   O     0.83334   0.68453   0.71026   0.00000  Uiso   1.00
O809   O     0.83333   0.81547   0.78974   0.00000  Uiso   1.00
O810   O     0.75725   0.75000   0.78045   0.00000  Uiso   1.00
O811   O     0.90942   0.75000   0.71956   0.00000  Uiso   1.00
O812   O     0.75725   0.74999   0.70096   0.00000  Uiso   1.00
O813   O     0.90942   0.75000   0.79904   0.00000  Uiso   1.00
O814   O     0.98689   0.71645   0.69532   0.00000  Uiso   1.00
Zn815  Zn    0.83333   0.75000   0.80307   0.00000  Uiso   1.00
Zn816  Zn    0.83333   0.74999   0.69693   0.00000  Uiso   1.00
loop_
_geom_bond_atom_site_label_1
_geom_bond_atom_site_label_2
_geom_bond_distance
_geom_bond_site_symmetry_2
_ccdc_geom_bond_type
C1     O60     1.289   .     A
C1     C14     1.429   .     S
C1     O49     1.289   .     A
C2     C4      1.405   .     A
C2     C27     1.406   .     A
C2     H38     1.083   .     S
C3     C28     1.404   .     A
C3     C22     1.411   .     A
C3     C412    1.520   1_554 S
C4     C23     1.420   .     A
C4     C411    1.520   .     S
C5     O62     1.278   .     A
C5     C7      1.415   .     S
C5     O64     1.288   .     A
C6     O63     1.278   .     A
C6     C8      1.415   .     S
C6     O65     1.288   .     A
C7     C144    1.348   1_455 S
C7     O202    1.390   1_455 S
C8     C75     1.348   .     S
C8     O118    1.390   .     S
C9     C20     1.396   .     A
C9     C11     1.385   .     A
C9     H42     1.084   .     S
C10    C21     1.396   .     A
C10    H43     1.084   .     S
C10    C13     1.385   .     A
C11    O51     1.382   .     S
C11    C14     1.415   .     A
C12    C15     1.429   .     S
C12    O61     1.288   .     A
C12    O59     1.289   .     A
C13    O52     1.382   .     S
C13    C15     1.415   .     A
C14    C16     1.397   .     A
C15    C17     1.397   .     A
C16    C18     1.380   .     A
C16    H46     1.084   .     S
C17    H30     1.084   .     S
C17    C19     1.380   .     A
C18    C20     1.395   .     A
C18    H29     1.084   .     S
C19    H39     1.084   .     S
C19    C21     1.395   .     A
C20    C225    1.436   1_545 S
C21    C224    1.436   .     S
C22    O53     1.383   .     S
C22    C24     1.426   .     A
C23    C25     1.413   .     A
C23    O54     1.380   .     S
C24    N47     1.379   .     A
C24    O55     1.373   .     S
C25    O56     1.373   .     S
C25    N48     1.379   .     A
C26    C28     1.406   .     A
C26    N47     1.376   .     A
C26    O57     1.372   .     S
C27    N48     1.377   .     A
C27    O58     1.373   .     S
C28    H37     1.083   .     S
H31    O53     0.990   .     S
H32    O54     0.990   .     S
H33    O55     0.985   .     S
H34    O56     0.985   .     S
H35    O57     0.986   .     S
H36    O58     0.986   .     S
H40    O202    0.990   1_455 S
H41    O118    0.991   .     S
H44    O51     0.989   .     S
H45    O52     0.989   .     S
N47    Zn68    2.020   .     S
N48    Zn67    2.020   .     S
O49    Zn67    1.990   .     S
O50    H177    0.991   1_455 S
O50    C144    1.390   1_455 S
O59    Zn68    1.990   .     S
O60    Zn68    1.992   .     S
O61    Zn67    1.992   .     S
O62    Zn67    1.984   .     S
O63    Zn68    1.984   .     S
O64    Zn68    1.991   .     S
O65    Zn67    1.991   .     S
O66    C75     1.390   .     S
O66    H108    0.990   .     S
C69    O128    1.289   .     A
C69    C82     1.429   .     S
C69    O117    1.289   .     A
C70    C72     1.405   .     A
C70    C95     1.406   .     A
C70    H106    1.083   .     S
C71    C96     1.404   .     A
C71    C90     1.411   .     A
C71    C480    1.520   1_554 S
C72    C91     1.420   .     A
C72    C479    1.520   .     S
C73    O130    1.278   .     A
C73    C75     1.415   .     S
C73    O132    1.288   .     A
C74    O131    1.278   .     A
C74    C76     1.415   .     S
C74    O133    1.288   .     A
C76    C143    1.348   .     S
C76    O186    1.390   .     S
C77    C88     1.396   .     A
C77    C79     1.385   .     A
C77    H110    1.084   .     S
C78    C89     1.396   .     A
C78    H111    1.084   .     S
C78    C81     1.385   .     A
C79    O119    1.382   .     S
C79    C82     1.415   .     A
C80    C83     1.429   .     S
C80    O129    1.288   .     A
C80    O127    1.289   .     A
C81    O120    1.382   .     S
C81    C83     1.415   .     A
C82    C84     1.397   .     A
C83    C85     1.397   .     A
C84    C86     1.380   .     A
C84    H114    1.084   .     S
C85    H98     1.084   .     S
C85    C87     1.380   .     A
C86    C88     1.395   .     A
C86    H97     1.084   .     S
C87    H107    1.084   .     S
C87    C89     1.395   .     A
C88    C293    1.436   1_545 S
C89    C292    1.436   .     S
C90    O121    1.383   .     S
C90    C92     1.426   .     A
C91    C93     1.413   .     A
C91    O122    1.380   .     S
C92    N115    1.379   .     A
C92    O123    1.373   .     S
C93    O124    1.373   .     S
C93    N116    1.379   .     A
C94    C96     1.406   .     A
C94    N115    1.376   .     A
C94    O125    1.372   .     S
C95    N116    1.377   .     A
C95    O126    1.373   .     S
C96    H105    1.083   .     S
H99    O121    0.990   .     S
H100   O122    0.990   .     S
H101   O123    0.985   .     S
H102   O124    0.985   .     S
H103   O125    0.986   .     S
H104   O126    0.986   .     S
H109   O186    0.991   .     S
H112   O119    0.989   .     S
H113   O120    0.989   .     S
N115   Zn136   2.020   .     S
N116   Zn135   2.020   .     S
O117   Zn135   1.990   .     S
O127   Zn136   1.990   .     S
O128   Zn136   1.992   .     S
O129   Zn135   1.992   .     S
O130   Zn135   1.984   .     S
O131   Zn136   1.984   .     S
O132   Zn136   1.991   .     S
O133   Zn135   1.991   .     S
O134   C143    1.390   .     S
O134   H176    0.990   .     S
C137   O196    1.289   .     A
C137   C150    1.429   .     S
C137   O185    1.289   .     A
C138   C140    1.405   .     A
C138   C163    1.406   .     A
C138   H174    1.083   .     S
C139   C164    1.404   .     A
C139   C158    1.411   .     A
C139   C548    1.520   1_554 S
C140   C159    1.420   .     A
C140   C547    1.520   .     S
C141   O198    1.278   .     A
C141   C143    1.415   .     S
C141   O200    1.288   .     A
C142   O199    1.278   .     A
C142   C144    1.415   .     S
C142   O201    1.288   .     A
C144   C7      1.348   1_655 S
C144   O50     1.390   1_655 S
C145   C156    1.396   .     A
C145   C147    1.385   .     A
C145   H178    1.084   .     S
C146   C157    1.396   .     A
C146   H179    1.084   .     S
C146   C149    1.385   .     A
C147   O187    1.382   .     S
C147   C150    1.415   .     A
C148   C151    1.429   .     S
C148   O197    1.288   .     A
C148   O195    1.289   .     A
C149   O188    1.382   .     S
C149   C151    1.415   .     A
C150   C152    1.397   .     A
C151   C153    1.397   .     A
C152   C154    1.380   .     A
C152   H182    1.084   .     S
C153   H166    1.084   .     S
C153   C155    1.380   .     A
C154   C156    1.395   .     A
C154   H165    1.084   .     S
C155   H175    1.084   .     S
C155   C157    1.395   .     A
C156   C361    1.436   1_545 S
C157   C360    1.436   .     S
C158   O189    1.383   .     S
C158   C160    1.426   .     A
C159   C161    1.413   .     A
C159   O190    1.380   .     S
C160   N183    1.379   .     A
C160   O191    1.373   .     S
C161   O192    1.373   .     S
C161   N184    1.379   .     A
C162   C164    1.406   .     A
C162   N183    1.376   .     A
C162   O193    1.372   .     S
C163   N184    1.377   .     A
C163   O194    1.373   .     S
C164   H173    1.083   .     S
H167   O189    0.990   .     S
H168   O190    0.990   .     S
H169   O191    0.985   .     S
H170   O192    0.985   .     S
H171   O193    0.986   .     S
H172   O194    0.986   .     S
H177   O50     0.991   1_655 S
H180   O187    0.989   .     S
H181   O188    0.989   .     S
N183   Zn204   2.020   .     S
N184   Zn203   2.020   .     S
O185   Zn203   1.990   .     S
O195   Zn204   1.990   .     S
O196   Zn204   1.992   .     S
O197   Zn203   1.992   .     S
O198   Zn203   1.984   .     S
O199   Zn204   1.984   .     S
O200   Zn204   1.991   .     S
O201   Zn203   1.991   .     S
O202   C7      1.390   1_655 S
O202   H40     0.990   1_655 S
C205   O264    1.289   .     A
C205   C218    1.429   .     S
C205   O253    1.289   .     A
C206   C208    1.405   .     A
C206   C231    1.406   .     A
C206   H242    1.083   .     S
C207   C232    1.404   .     A
C207   C226    1.411   .     A
C207   C616    1.520   1_554 S
C208   C227    1.420   .     A
C208   C615    1.520   .     S
C209   O266    1.278   .     A
C209   C211    1.415   .     S
C209   O268    1.288   .     A
C210   O267    1.278   .     A
C210   C212    1.415   .     S
C210   O269    1.288   .     A
C211   C348    1.348   1_455 S
C211   O406    1.390   1_455 S
C212   C279    1.348   .     S
C212   O322    1.390   .     S
C213   C224    1.396   .     A
C213   C215    1.385   .     A
C213   H246    1.084   .     S
C214   C225    1.396   .     A
C214   H247    1.084   .     S
C214   C217    1.385   .     A
C215   O255    1.382   .     S
C215   C218    1.415   .     A
C216   C219    1.429   .     S
C216   O265    1.288   .     A
C216   O263    1.289   .     A
C217   O256    1.382   .     S
C217   C219    1.415   .     A
C218   C220    1.397   .     A
C219   C221    1.397   .     A
C220   C222    1.380   .     A
C220   H250    1.084   .     S
C221   H234    1.084   .     S
C221   C223    1.380   .     A
C222   C224    1.395   .     A
C222   H233    1.084   .     S
C223   H243    1.084   .     S
C223   C225    1.395   .     A
C225   C20     1.436   1_565 S
C226   O257    1.383   .     S
C226   C228    1.426   .     A
C227   C229    1.413   .     A
C227   O258    1.380   .     S
C228   N251    1.379   .     A
C228   O259    1.373   .     S
C229   O260    1.373   .     S
C229   N252    1.379   .     A
C230   C232    1.406   .     A
C230   N251    1.376   .     A
C230   O261    1.372   .     S
C231   N252    1.377   .     A
C231   O262    1.373   .     S
C232   H241    1.083   .     S
H235   O257    0.990   .     S
H236   O258    0.990   .     S
H237   O259    0.985   .     S
H238   O260    0.985   .     S
H239   O261    0.986   .     S
H240   O262    0.986   .     S
H244   O406    0.990   1_455 S
H245   O322    0.991   .     S
H248   O255    0.989   .     S
H249   O256    0.989   .     S
N251   Zn272   2.020   .     S
N252   Zn271   2.020   .     S
O253   Zn271   1.990   .     S
O254   H381    0.991   1_455 S
O254   C348    1.390   1_455 S
O263   Zn272   1.990   .     S
O264   Zn272   1.992   .     S
O265   Zn271   1.992   .     S
O266   Zn271   1.984   .     S
O267   Zn272   1.984   .     S
O268   Zn272   1.991   .     S
O269   Zn271   1.991   .     S
O270   C279    1.390   .     S
O270   H312    0.990   .     S
C273   O332    1.289   .     A
C273   C286    1.429   .     S
C273   O321    1.289   .     A
C274   C276    1.405   .     A
C274   C299    1.406   .     A
C274   H310    1.083   .     S
C275   C300    1.404   .     A
C275   C294    1.411   .     A
C275   C684    1.520   1_554 S
C276   C295    1.420   .     A
C276   C683    1.520   .     S
C277   O334    1.278   .     A
C277   C279    1.415   .     S
C277   O336    1.288   .     A
C278   O335    1.278   .     A
C278   C280    1.415   .     S
C278   O337    1.288   .     A
C280   C347    1.348   .     S
C280   O390    1.390   .     S
C281   C292    1.396   .     A
C281   C283    1.385   .     A
C281   H314    1.084   .     S
C282   C293    1.396   .     A
C282   H315    1.084   .     S
C282   C285    1.385   .     A
C283   O323    1.382   .     S
C283   C286    1.415   .     A
C284   C287    1.429   .     S
C284   O333    1.288   .     A
C284   O331    1.289   .     A
C285   O324    1.382   .     S
C285   C287    1.415   .     A
C286   C288    1.397   .     A
C287   C289    1.397   .     A
C288   C290    1.380   .     A
C288   H318    1.084   .     S
C289   H302    1.084   .     S
C289   C291    1.380   .     A
C290   C292    1.395   .     A
C290   H301    1.084   .     S
C291   H311    1.084   .     S
C291   C293    1.395   .     A
C293   C88     1.436   1_565 S
C294   O325    1.383   .     S
C294   C296    1.426   .     A
C295   C297    1.413   .     A
C295   O326    1.380   .     S
C296   N319    1.379   .     A
C296   O327    1.373   .     S
C297   O328    1.373   .     S
C297   N320    1.379   .     A
C298   C300    1.406   .     A
C298   N319    1.376   .     A
C298   O329    1.372   .     S
C299   N320    1.377   .     A
C299   O330    1.373   .     S
C300   H309    1.083   .     S
H303   O325    0.990   .     S
H304   O326    0.990   .     S
H305   O327    0.985   .     S
H306   O328    0.985   .     S
H307   O329    0.986   .     S
H308   O330    0.986   .     S
H313   O390    0.991   .     S
H316   O323    0.989   .     S
H317   O324    0.989   .     S
N319   Zn340   2.020   .     S
N320   Zn339   2.020   .     S
O321   Zn339   1.990   .     S
O331   Zn340   1.990   .     S
O332   Zn340   1.992   .     S
O333   Zn339   1.992   .     S
O334   Zn339   1.984   .     S
O335   Zn340   1.984   .     S
O336   Zn340   1.991   .     S
O337   Zn339   1.991   .     S
O338   C347    1.390   .     S
O338   H380    0.990   .     S
C341   O400    1.289   .     A
C341   C354    1.429   .     S
C341   O389    1.289   .     A
C342   C344    1.405   .     A
C342   C367    1.406   .     A
C342   H378    1.083   .     S
C343   C368    1.404   .     A
C343   C362    1.411   .     A
C343   C752    1.520   1_554 S
C344   C363    1.420   .     A
C344   C751    1.520   .     S
C345   O402    1.278   .     A
C345   C347    1.415   .     S
C345   O404    1.288   .     A
C346   O403    1.278   .     A
C346   C348    1.415   .     S
C346   O405    1.288   .     A
C348   C211    1.348   1_655 S
C348   O254    1.390   1_655 S
C349   C360    1.396   .     A
C349   C351    1.385   .     A
C349   H382    1.084   .     S
C350   C361    1.396   .     A
C350   H383    1.084   .     S
C350   C353    1.385   .     A
C351   O391    1.382   .     S
C351   C354    1.415   .     A
C352   C355    1.429   .     S
C352   O401    1.288   .     A
C352   O399    1.289   .     A
C353   O392    1.382   .     S
C353   C355    1.415   .     A
C354   C356    1.397   .     A
C355   C357    1.397   .     A
C356   C358    1.380   .     A
C356   H386    1.084   .     S
C357   H370    1.084   .     S
C357   C359    1.380   .     A
C358   C360    1.395   .     A
C358   H369    1.084   .     S
C359   H379    1.084   .     S
C359   C361    1.395   .     A
C361   C156    1.436   1_565 S
C362   O393    1.383   .     S
C362   C364    1.426   .     A
C363   C365    1.413   .     A
C363   O394    1.380   .     S
C364   N387    1.379   .     A
C364   O395    1.373   .     S
C365   O396    1.373   .     S
C365   N388    1.379   .     A
C366   C368    1.406   .     A
C366   N387    1.376   .     A
C366   O397    1.372   .     S
C367   N388    1.377   .     A
C367   O398    1.373   .     S
C368   H377    1.083   .     S
H371   O393    0.990   .     S
H372   O394    0.990   .     S
H373   O395    0.985   .     S
H374   O396    0.985   .     S
H375   O397    0.986   .     S
H376   O398    0.986   .     S
H381   O254    0.991   1_655 S
H384   O391    0.989   .     S
H385   O392    0.989   .     S
N387   Zn408   2.020   .     S
N388   Zn407   2.020   .     S
O389   Zn407   1.990   .     S
O399   Zn408   1.990   .     S
O400   Zn408   1.992   .     S
O401   Zn407   1.992   .     S
O402   Zn407   1.984   .     S
O403   Zn408   1.984   .     S
O404   Zn408   1.991   .     S
O405   Zn407   1.991   .     S
O406   C211    1.390   1_655 S
O406   H244    0.990   1_655 S
C409   O468    1.289   .     A
C409   C422    1.429   .     S
C409   O457    1.289   .     A
C410   C412    1.405   .     A
C410   C435    1.406   .     A
C410   H446    1.083   .     S
C411   C436    1.404   .     A
C411   C430    1.411   .     A
C412   C431    1.420   .     A
C412   C3      1.520   1_556 S
C413   O470    1.278   .     A
C413   C415    1.415   .     S
C413   O472    1.288   .     A
C414   O471    1.278   .     A
C414   C416    1.415   .     S
C414   O473    1.288   .     A
C415   C552    1.348   1_455 S
C415   O610    1.390   1_455 S
C416   C483    1.348   .     S
C416   O526    1.390   .     S
C417   C428    1.396   .     A
C417   C419    1.385   .     A
C417   H450    1.084   .     S
C418   C429    1.396   .     A
C418   H451    1.084   .     S
C418   C421    1.385   .     A
C419   O459    1.382   .     S
C419   C422    1.415   .     A
C420   C423    1.429   .     S
C420   O469    1.288   .     A
C420   O467    1.289   .     A
C421   O460    1.382   .     S
C421   C423    1.415   .     A
C422   C424    1.397   .     A
C423   C425    1.397   .     A
C424   C426    1.380   .     A
C424   H454    1.084   .     S
C425   H438    1.084   .     S
C425   C427    1.380   .     A
C426   C428    1.395   .     A
C426   H437    1.084   .     S
C427   H447    1.084   .     S
C427   C429    1.395   .     A
C428   C633    1.436   1_545 S
C429   C632    1.436   .     S
C430   O461    1.383   .     S
C430   C432    1.426   .     A
C431   C433    1.413   .     A
C431   O462    1.380   .     S
C432   N455    1.379   .     A
C432   O463    1.373   .     S
C433   O464    1.373   .     S
C433   N456    1.379   .     A
C434   C436    1.406   .     A
C434   N455    1.376   .     A
C434   O465    1.372   .     S
C435   N456    1.377   .     A
C435   O466    1.373   .     S
C436   H445    1.083   .     S
H439   O461    0.990   .     S
H440   O462    0.990   .     S
H441   O463    0.985   .     S
H442   O464    0.985   .     S
H443   O465    0.986   .     S
H444   O466    0.986   .     S
H448   O610    0.990   1_455 S
H449   O526    0.991   .     S
H452   O459    0.989   .     S
H453   O460    0.989   .     S
N455   Zn476   2.020   .     S
N456   Zn475   2.020   .     S
O457   Zn475   1.990   .     S
O458   H585    0.991   1_455 S
O458   C552    1.390   1_455 S
O467   Zn476   1.990   .     S
O468   Zn476   1.992   .     S
O469   Zn475   1.992   .     S
O470   Zn475   1.984   .     S
O471   Zn476   1.984   .     S
O472   Zn476   1.991   .     S
O473   Zn475   1.991   .     S
O474   C483    1.390   .     S
O474   H516    0.990   .     S
C477   O536    1.289   .     A
C477   C490    1.429   .     S
C477   O525    1.289   .     A
C478   C480    1.405   .     A
C478   C503    1.406   .     A
C478   H514    1.083   .     S
C479   C504    1.404   .     A
C479   C498    1.411   .     A
C480   C499    1.420   .     A
C480   C71     1.520   1_556 S
C481   O538    1.278   .     A
C481   C483    1.415   .     S
C481   O540    1.288   .     A
C482   O539    1.278   .     A
C482   C484    1.415   .     S
C482   O541    1.288   .     A
C484   C551    1.348   .     S
C484   O594    1.390   .     S
C485   C496    1.396   .     A
C485   C487    1.385   .     A
C485   H518    1.084   .     S
C486   C497    1.396   .     A
C486   H519    1.084   .     S
C486   C489    1.385   .     A
C487   O527    1.382   .     S
C487   C490    1.415   .     A
C488   C491    1.429   .     S
C488   O537    1.288   .     A
C488   O535    1.289   .     A
C489   O528    1.382   .     S
C489   C491    1.415   .     A
C490   C492    1.397   .     A
C491   C493    1.397   .     A
C492   C494    1.380   .     A
C492   H522    1.084   .     S
C493   H506    1.084   .     S
C493   C495    1.380   .     A
C494   C496    1.395   .     A
C494   H505    1.084   .     S
C495   H515    1.084   .     S
C495   C497    1.395   .     A
C496   C701    1.436   1_545 S
C497   C700    1.436   .     S
C498   O529    1.383   .     S
C498   C500    1.426   .     A
C499   C501    1.413   .     A
C499   O530    1.380   .     S
C500   N523    1.379   .     A
C500   O531    1.373   .     S
C501   O532    1.373   .     S
C501   N524    1.379   .     A
C502   C504    1.406   .     A
C502   N523    1.376   .     A
C502   O533    1.372   .     S
C503   N524    1.377   .     A
C503   O534    1.373   .     S
C504   H513    1.083   .     S
H507   O529    0.990   .     S
H508   O530    0.990   .     S
H509   O531    0.985   .     S
H510   O532    0.985   .     S
H511   O533    0.986   .     S
H512   O534    0.986   .     S
H517   O594    0.991   .     S
H520   O527    0.989   .     S
H521   O528    0.989   .     S
N523   Zn544   2.020   .     S
N524   Zn543   2.020   .     S
O525   Zn543   1.990   .     S
O535   Zn544   1.990   .     S
O536   Zn544   1.992   .     S
O537   Zn543   1.992   .     S
O538   Zn543   1.984   .     S
O539   Zn544   1.984   .     S
O540   Zn544   1.991   .     S
O541   Zn543   1.991   .     S
O542   C551    1.390   .     S
O542   H584    0.990   .     S
C545   O604    1.289   .     A
C545   C558    1.429   .     S
C545   O593    1.289   .     A
C546   C548    1.405   .     A
C546   C571    1.406   .     A
C546   H582    1.083   .     S
C547   C572    1.404   .     A
C547   C566    1.411   .     A
C548   C567    1.420   .     A
C548   C139    1.520   1_556 S
C549   O606    1.278   .     A
C549   C551    1.415   .     S
C549   O608    1.288   .     A
C550   O607    1.278   .     A
C550   C552    1.415   .     S
C550   O609    1.288   .     A
C552   C415    1.348   1_655 S
C552   O458    1.390   1_655 S
C553   C564    1.396   .     A
C553   C555    1.385   .     A
C553   H586    1.084   .     S
C554   C565    1.396   .     A
C554   H587    1.084   .     S
C554   C557    1.385   .     A
C555   O595    1.382   .     S
C555   C558    1.415   .     A
C556   C559    1.429   .     S
C556   O605    1.288   .     A
C556   O603    1.289   .     A
C557   O596    1.382   .     S
C557   C559    1.415   .     A
C558   C560    1.397   .     A
C559   C561    1.397   .     A
C560   C562    1.380   .     A
C560   H590    1.084   .     S
C561   H574    1.084   .     S
C561   C563    1.380   .     A
C562   C564    1.395   .     A
C562   H573    1.084   .     S
C563   H583    1.084   .     S
C563   C565    1.395   .     A
C564   C769    1.436   1_545 S
C565   C768    1.436   .     S
C566   O597    1.383   .     S
C566   C568    1.426   .     A
C567   C569    1.413   .     A
C567   O598    1.380   .     S
C568   N591    1.379   .     A
C568   O599    1.373   .     S
C569   O600    1.373   .     S
C569   N592    1.379   .     A
C570   C572    1.406   .     A
C570   N591    1.376   .     A
C570   O601    1.372   .     S
C571   N592    1.377   .     A
C571   O602    1.373   .     S
C572   H581    1.083   .     S
H575   O597    0.990   .     S
H576   O598    0.990   .     S
H577   O599    0.985   .     S
H578   O600    0.985   .     S
H579   O601    0.986   .     S
H580   O602    0.986   .     S
H585   O458    0.991   1_655 S
H588   O595    0.989   .     S
H589   O596    0.989   .     S
N591   Zn612   2.020   .     S
N592   Zn611   2.020   .     S
O593   Zn611   1.990   .     S
O603   Zn612   1.990   .     S
O604   Zn612   1.992   .     S
O605   Zn611   1.992   .     S
O606   Zn611   1.984   .     S
O607   Zn612   1.984   .     S
O608   Zn612   1.991   .     S
O609   Zn611   1.991   .     S
O610   C415    1.390   1_655 S
O610   H448    0.990   1_655 S
C613   O672    1.289   .     A
C613   C626    1.429   .     S
C613   O661    1.289   .     A
C614   C616    1.405   .     A
C614   C639    1.406   .     A
C614   H650    1.083   .     S
C615   C640    1.404   .     A
C615   C634    1.411   .     A
C616   C635    1.420   .     A
C616   C207    1.520   1_556 S
C617   O674    1.278   .     A
C617   C619    1.415   .     S
C617   O676    1.288   .     A
C618   O675    1.278   .     A
C618   C620    1.415   .     S
C618   O677    1.288   .     A
C619   C756    1.348   1_455 S
C619   O814    1.390   1_455 S
C620   C687    1.348   .     S
C620   O730    1.390   .     S
C621   C632    1.396   .     A
C621   C623    1.385   .     A
C621   H654    1.084   .     S
C622   C633    1.396   .     A
C622   H655    1.084   .     S
C622   C625    1.385   .     A
C623   O663    1.382   .     S
C623   C626    1.415   .     A
C624   C627    1.429   .     S
C624   O673    1.288   .     A
C624   O671    1.289   .     A
C625   O664    1.382   .     S
C625   C627    1.415   .     A
C626   C628    1.397   .     A
C627   C629    1.397   .     A
C628   C630    1.380   .     A
C628   H658    1.084   .     S
C629   H642    1.084   .     S
C629   C631    1.380   .     A
C630   C632    1.395   .     A
C630   H641    1.084   .     S
C631   H651    1.084   .     S
C631   C633    1.395   .     A
C633   C428    1.436   1_565 S
C634   O665    1.383   .     S
C634   C636    1.426   .     A
C635   C637    1.413   .     A
C635   O666    1.380   .     S
C636   N659    1.379   .     A
C636   O667    1.373   .     S
C637   O668    1.373   .     S
C637   N660    1.379   .     A
C638   C640    1.406   .     A
C638   N659    1.376   .     A
C638   O669    1.372   .     S
C639   N660    1.377   .     A
C639   O670    1.373   .     S
C640   H649    1.083   .     S
H643   O665    0.990   .     S
H644   O666    0.990   .     S
H645   O667    0.985   .     S
H646   O668    0.985   .     S
H647   O669    0.986   .     S
H648   O670    0.986   .     S
H652   O814    0.990   1_455 S
H653   O730    0.991   .     S
H656   O663    0.989   .     S
H657   O664    0.989   .     S
N659   Zn680   2.020   .     S
N660   Zn679   2.020   .     S
O661   Zn679   1.990   .     S
O662   H789    0.991   1_455 S
O662   C756    1.390   1_455 S
O671   Zn680   1.990   .     S
O672   Zn680   1.992   .     S
O673   Zn679   1.992   .     S
O674   Zn679   1.984   .     S
O675   Zn680   1.984   .     S
O676   Zn680   1.991   .     S
O677   Zn679   1.991   .     S
O678   C687    1.390   .     S
O678   H720    0.990   .     S
C681   O740    1.289   .     A
C681   C694    1.429   .     S
C681   O729    1.289   .     A
C682   C684    1.405   .     A
C682   C707    1.406   .     A
C682   H718    1.083   .     S
C683   C708    1.404   .     A
C683   C702    1.411   .     A
C684   C703    1.420   .     A
C684   C275    1.520   1_556 S
C685   O742    1.278   .     A
C685   C687    1.415   .     S
C685   O744    1.288   .     A
C686   O743    1.278   .     A
C686   C688    1.415   .     S
C686   O745    1.288   .     A
C688   C755    1.348   .     S
C688   O798    1.390   .     S
C689   C700    1.396   .     A
C689   C691    1.385   .     A
C689   H722    1.084   .     S
C690   C701    1.396   .     A
C690   H723    1.084   .     S
C690   C693    1.385   .     A
C691   O731    1.382   .     S
C691   C694    1.415   .     A
C692   C695    1.429   .     S
C692   O741    1.288   .     A
C692   O739    1.289   .     A
C693   O732    1.382   .     S
C693   C695    1.415   .     A
C694   C696    1.397   .     A
C695   C697    1.397   .     A
C696   C698    1.380   .     A
C696   H726    1.084   .     S
C697   H710    1.084   .     S
C697   C699    1.380   .     A
C698   C700    1.395   .     A
C698   H709    1.084   .     S
C699   H719    1.084   .     S
C699   C701    1.395   .     A
C701   C496    1.436   1_565 S
C702   O733    1.383   .     S
C702   C704    1.426   .     A
C703   C705    1.413   .     A
C703   O734    1.380   .     S
C704   N727    1.379   .     A
C704   O735    1.373   .     S
C705   O736    1.373   .     S
C705   N728    1.379   .     A
C706   C708    1.406   .     A
C706   N727    1.376   .     A
C706   O737    1.372   .     S
C707   N728    1.377   .     A
C707   O738    1.373   .     S
C708   H717    1.083   .     S
H711   O733    0.990   .     S
H712   O734    0.990   .     S
H713   O735    0.985   .     S
H714   O736    0.985   .     S
H715   O737    0.986   .     S
H716   O738    0.986   .     S
H721   O798    0.991   .     S
H724   O731    0.989   .     S
H725   O732    0.989   .     S
N727   Zn748   2.020   .     S
N728   Zn747   2.020   .     S
O729   Zn747   1.990   .     S
O739   Zn748   1.990   .     S
O740   Zn748   1.992   .     S
O741   Zn747   1.992   .     S
O742   Zn747   1.984   .     S
O743   Zn748   1.984   .     S
O744   Zn748   1.991   .     S
O745   Zn747   1.991   .     S
O746   C755    1.390   .     S
O746   H788    0.990   .     S
C749   O808    1.289   .     A
C749   C762    1.429   .     S
C749   O797    1.289   .     A
C750   C752    1.405   .     A
C750   C775    1.406   .     A
C750   H786    1.083   .     S
C751   C776    1.404   .     A
C751   C770    1.411   .     A
C752   C771    1.420   .     A
C752   C343    1.520   1_556 S
C753   O810    1.278   .     A
C753   C755    1.415   .     S
C753   O812    1.288   .     A
C754   O811    1.278   .     A
C754   C756    1.415   .     S
C754   O813    1.288   .     A
C756   C619    1.348   1_655 S
C756   O662    1.390   1_655 S
C757   C768    1.396   .     A
C757   C759    1.385   .     A
C757   H790    1.084   .     S
C758   C769    1.396   .     A
C758   H791    1.084   .     S
C758   C761    1.385   .     A
C759   O799    1.382   .     S
C759   C762    1.415   .     A
C760   C763    1.429   .     S
C760   O809    1.288   .     A
C760   O807    1.289   .     A
C761   O800    1.382   .     S
C761   C763    1.415   .     A
C762   C764    1.397   .     A
C763   C765    1.397   .     A
C764   C766    1.380   .     A
C764   H794    1.084   .     S
C765   H778    1.084   .     S
C765   C767    1.380   .     A
C766   C768    1.395   .     A
C766   H777    1.084   .     S
C767   H787    1.084   .     S
C767   C769    1.395   .     A
C769   C564    1.436   1_565 S
C770   O801    1.383   .     S
C770   C772    1.426   .     A
C771   C773    1.413   .     A
C771   O802    1.380   .     S
C772   N795    1.379   .     A
C772   O803    1.373   .     S
C773   O804    1.373   .     S
C773   N796    1.379   .     A
C774   C776    1.406   .     A
C774   N795    1.376   .     A
C774   O805    1.372   .     S
C775   N796    1.377   .     A
C775   O806    1.373   .     S
C776   H785    1.083   .     S
H779   O801    0.990   .     S
H780   O802    0.990   .     S
H781   O803    0.985   .     S
H782   O804    0.985   .     S
H783   O805    0.986   .     S
H784   O806    0.986   .     S
H789   O662    0.991   1_655 S
H792   O799    0.989   .     S
H793   O800    0.989   .     S
N795   Zn816   2.020   .     S
N796   Zn815   2.020   .     S
O797   Zn815   1.990   .     S
O807   Zn816   1.990   .     S
O808   Zn816   1.992   .     S
O809   Zn815   1.992   .     S
O810   Zn815   1.984   .     S
O811   Zn816   1.984   .     S
O812   Zn816   1.991   .     S
O813   Zn815   1.991   .     S
O814   C619    1.390   1_655 S
O814   H652    0.990   1_655 S
