data_str_m1_o5_o17_pcu_sym.21
_audit_creation_date              2020-01-03
_audit_creation_method            'Materials Studio'
_symmetry_space_group_name_H-M    'P1'
_symmetry_Int_Tables_number       1
_symmetry_cell_setting            triclinic
loop_
_symmetry_equiv_pos_as_xyz
  x,y,z
_cell_length_a                    31.7608
_cell_length_b                    31.7608
_cell_length_c                    34.4652
_cell_angle_alpha                 90.0004
_cell_angle_beta                  90.0004
_cell_angle_gamma                 90.0028
loop_
_atom_site_label
_atom_site_type_symbol
_atom_site_fract_x
_atom_site_fract_y
_atom_site_fract_z
_atom_site_U_iso_or_equiv
_atom_site_adp_type
_atom_site_occupancy
C1     C     0.25000  -0.00000   0.35586   0.00000  Uiso   1.00
C2     C     0.33002   0.41998   0.75000   0.00000  Uiso   1.00
C3     C     0.42283   0.24904   0.02042   0.00000  Uiso   1.00
C4     C     0.25096   0.07717   0.97958   0.00000  Uiso   1.00
C5     C     0.24993   0.42282   0.02039   0.00000  Uiso   1.00
C6     C     0.42282   0.24993   0.97961   0.00000  Uiso   1.00
C7     C     0.07717   0.25095   0.02042   0.00000  Uiso   1.00
C8     C     0.44809   0.12417   0.45339   0.00000  Uiso   1.00
C9     C     0.44981   0.37660   0.54649   0.00000  Uiso   1.00
C10    C     0.37659   0.44980   0.45350   0.00000  Uiso   1.00
C11    C     0.12418   0.44806   0.54660   0.00000  Uiso   1.00
C12    C     0.05194   0.37583   0.45340   0.00000  Uiso   1.00
C13    C     0.41998   0.16998   0.25000   0.00000  Uiso   1.00
C14    C     0.05020   0.12341   0.54650   0.00000  Uiso   1.00
C15    C     0.12340   0.05019   0.45351   0.00000  Uiso   1.00
C16    C     0.37583   0.05191   0.54661   0.00000  Uiso   1.00
C17    C     0.19810   0.37416   0.95340   0.00000  Uiso   1.00
C18    C     0.19979   0.12659   0.04649   0.00000  Uiso   1.00
C19    C     0.12658   0.19978   0.95350   0.00000  Uiso   1.00
C20    C     0.37417   0.19808   0.04660   0.00000  Uiso   1.00
C21    C     0.30192   0.12583   0.95340   0.00000  Uiso   1.00
C22    C     0.30022   0.37342   0.04650   0.00000  Uiso   1.00
C23    C     0.37341   0.30021   0.95351   0.00000  Uiso   1.00
C24    C     0.08002   0.33002   0.75000   0.00000  Uiso   1.00
C25    C     0.12584   0.30190   0.04660   0.00000  Uiso   1.00
C26    C     0.33002   0.41998   0.25000   0.00000  Uiso   1.00
C27    C     0.16998   0.08002   0.75000   0.00000  Uiso   1.00
C28    C     0.08002   0.33002   0.25000   0.00000  Uiso   1.00
C29    C     0.41998   0.16998   0.75000   0.00000  Uiso   1.00
C30    C     0.16998   0.41998   0.75000   0.00000  Uiso   1.00
C31    C     0.33002   0.08002   0.25000   0.00000  Uiso   1.00
C32    C     0.41998   0.33002   0.75000   0.00000  Uiso   1.00
C33    C     0.25000   0.00000   0.64415   0.00000  Uiso   1.00
C34    C     0.08002   0.16998   0.25000   0.00000  Uiso   1.00
C35    C     0.33002   0.08002   0.75000   0.00000  Uiso   1.00
C36    C     0.16998   0.41998   0.25000   0.00000  Uiso   1.00
C37    C     0.08002   0.16998   0.75000   0.00000  Uiso   1.00
C38    C     0.41998   0.33002   0.25000   0.00000  Uiso   1.00
C39    C     0.13833   0.38833   0.25000   0.00000  Uiso   1.00
C40    C     0.36167   0.11167   0.75000   0.00000  Uiso   1.00
C41    C     0.11167   0.13833   0.25000   0.00000  Uiso   1.00
C42    C     0.38833   0.36167   0.75000   0.00000  Uiso   1.00
C43    C     0.36167   0.11167   0.25000   0.00000  Uiso   1.00
C44    C     0.00000   0.25000   0.35585   0.00000  Uiso   1.00
C45    C     0.13833   0.38833   0.75000   0.00000  Uiso   1.00
C46    C     0.38833   0.36167   0.25000   0.00000  Uiso   1.00
C47    C     0.11167   0.13833   0.75000   0.00000  Uiso   1.00
C48    C     0.13833   0.11167   0.75000   0.00000  Uiso   1.00
C49    C     0.36167   0.38833   0.25000   0.00000  Uiso   1.00
C50    C     0.11167   0.36167   0.75000   0.00000  Uiso   1.00
C51    C     0.38833   0.13833   0.25000   0.00000  Uiso   1.00
C52    C     0.36167   0.38833   0.75000   0.00000  Uiso   1.00
C53    C     0.13833   0.11167   0.25000   0.00000  Uiso   1.00
C54    C     0.38833   0.13833   0.75000   0.00000  Uiso   1.00
C55    C     0.00000   0.25000   0.64414   0.00000  Uiso   1.00
C56    C     0.11167   0.36167   0.25000   0.00000  Uiso   1.00
C57    C     0.49297   0.28781   0.41799   0.00000  Uiso   1.00
C58    C     0.49246   0.21228   0.58199   0.00000  Uiso   1.00
C59    C     0.21228   0.49247   0.41801   0.00000  Uiso   1.00
C60    C     0.28781   0.49297   0.58201   0.00000  Uiso   1.00
C61    C     0.00703   0.21219   0.41799   0.00000  Uiso   1.00
C62    C     0.00753   0.28772   0.58199   0.00000  Uiso   1.00
C63    C     0.28772   0.00754   0.41801   0.00000  Uiso   1.00
C64    C     0.21219   0.00703   0.58201   0.00000  Uiso   1.00
C65    C     0.24297   0.03781   0.91799   0.00000  Uiso   1.00
C66    C     0.00000   0.25000   0.85586   0.00000  Uiso   1.00
C67    C     0.24247   0.46228   0.08199   0.00000  Uiso   1.00
C68    C     0.46228   0.24247   0.91801   0.00000  Uiso   1.00
C69    C     0.03781   0.24296   0.08201   0.00000  Uiso   1.00
C70    C     0.25704   0.46219   0.91799   0.00000  Uiso   1.00
C71    C     0.25753   0.03772   0.08199   0.00000  Uiso   1.00
C72    C     0.03772   0.25753   0.91801   0.00000  Uiso   1.00
C73    C     0.46219   0.25703   0.08201   0.00000  Uiso   1.00
C74    C     0.00000   0.25000   0.39809   0.00000  Uiso   1.00
C75    C    -0.00000   0.25000   0.60189   0.00000  Uiso   1.00
C76    C     0.25000   0.00000   0.39810   0.00000  Uiso   1.00
C77    C     0.00000   0.25000   0.14415   0.00000  Uiso   1.00
C78    C     0.25000  -0.00000   0.60191   0.00000  Uiso   1.00
C79    C     0.25000   0.00000   0.89809   0.00000  Uiso   1.00
C80    C     0.25000   0.00000   0.10189   0.00000  Uiso   1.00
C81    C    -0.00000   0.25000   0.89810   0.00000  Uiso   1.00
C82    C    -0.00000   0.25000   0.10191   0.00000  Uiso   1.00
C83    C     0.00169   0.21119   0.45881   0.00000  Uiso   1.00
C84    C     0.00220   0.28879   0.54116   0.00000  Uiso   1.00
C85    C     0.28879   0.00220   0.45884   0.00000  Uiso   1.00
C86    C     0.21119   0.00168   0.54119   0.00000  Uiso   1.00
C87    C     0.49832   0.28881   0.45881   0.00000  Uiso   1.00
C88    C     0.25000  -0.00000   0.85585   0.00000  Uiso   1.00
C89    C     0.49780   0.21121   0.54116   0.00000  Uiso   1.00
C90    C     0.21121   0.49780   0.45884   0.00000  Uiso   1.00
C91    C     0.28881   0.49831   0.54119   0.00000  Uiso   1.00
C92    C     0.25169   0.46119   0.95881   0.00000  Uiso   1.00
C93    C     0.25220   0.03879   0.04116   0.00000  Uiso   1.00
C94    C     0.03879   0.25220   0.95884   0.00000  Uiso   1.00
C95    C     0.46119   0.25168   0.04119   0.00000  Uiso   1.00
C96    C     0.24832   0.03881   0.95881   0.00000  Uiso   1.00
C97    C     0.24780   0.46121   0.04116   0.00000  Uiso   1.00
C98    C     0.46121   0.24780   0.95884   0.00000  Uiso   1.00
C99    C     0.25000   0.00000   0.14414   0.00000  Uiso   1.00
C100   C     0.03881   0.24831   0.04119   0.00000  Uiso   1.00
C101   C     0.00000   0.25000   0.47942   0.00000  Uiso   1.00
C102   C     0.00000   0.25000   0.52056   0.00000  Uiso   1.00
C103   C     0.25000  -0.00000   0.47944   0.00000  Uiso   1.00
C104   C     0.25000  -0.00000   0.52058   0.00000  Uiso   1.00
C105   C     0.25000   0.00000   0.97942   0.00000  Uiso   1.00
C106   C     0.25000   0.00000   0.02056   0.00000  Uiso   1.00
C107   C    -0.00000   0.25000   0.97944   0.00000  Uiso   1.00
C108   C    -0.00000   0.25000   0.02058   0.00000  Uiso   1.00
C109   C     0.49904   0.17283   0.47958   0.00000  Uiso   1.00
C110   C     0.16998   0.08002   0.25000   0.00000  Uiso   1.00
C111   C     0.00008   0.32718   0.52039   0.00000  Uiso   1.00
C112   C     0.32718   0.00008   0.47961   0.00000  Uiso   1.00
C113   C     0.17283   0.49903   0.52042   0.00000  Uiso   1.00
C114   C     0.00097   0.32717   0.47958   0.00000  Uiso   1.00
C115   C     0.49992   0.17282   0.52039   0.00000  Uiso   1.00
C116   C     0.17282   0.49992   0.47961   0.00000  Uiso   1.00
C117   C     0.32717   0.00096   0.52042   0.00000  Uiso   1.00
C118   C     0.24905   0.42283   0.97958   0.00000  Uiso   1.00
C119   C     0.25007   0.07718   0.02039   0.00000  Uiso   1.00
C120   C     0.07718   0.25007   0.97961   0.00000  Uiso   1.00
H121   H     0.00968   0.10891   0.46899   0.00000  Uiso   1.00
H122   H     0.40589   0.44769   0.43603   0.00000  Uiso   1.00
H123   H     0.35096   0.43364   0.43736   0.00000  Uiso   1.00
H124   H     0.38177   0.43365   0.48169   0.00000  Uiso   1.00
H125   H     0.10891   0.00966   0.53101   0.00000  Uiso   1.00
H126   H     0.09487   0.44553   0.56401   0.00000  Uiso   1.00
H127   H     0.15001   0.43234   0.56281   0.00000  Uiso   1.00
H128   H     0.11931   0.43178   0.51842   0.00000  Uiso   1.00
H129   H     0.49034   0.39109   0.46898   0.00000  Uiso   1.00
H130   H     0.05447   0.40513   0.43599   0.00000  Uiso   1.00
H131   H     0.06766   0.34999   0.43719   0.00000  Uiso   1.00
H132   H     0.44556   0.09486   0.43598   0.00000  Uiso   1.00
H133   H     0.06822   0.38069   0.48158   0.00000  Uiso   1.00
H134   H     0.48835   0.10907   0.53100   0.00000  Uiso   1.00
H135   H     0.05231   0.09411   0.56397   0.00000  Uiso   1.00
H136   H     0.06636   0.14904   0.56264   0.00000  Uiso   1.00
H137   H     0.06635   0.11823   0.51831   0.00000  Uiso   1.00
H138   H     0.10907   0.48834   0.46900   0.00000  Uiso   1.00
H139   H     0.09410   0.05230   0.43604   0.00000  Uiso   1.00
H140   H     0.14902   0.06636   0.43739   0.00000  Uiso   1.00
H141   H     0.11821   0.06633   0.48171   0.00000  Uiso   1.00
H142   H     0.39109   0.49032   0.53101   0.00000  Uiso   1.00
H143   H     0.43236   0.14999   0.43718   0.00000  Uiso   1.00
H144   H     0.40514   0.05444   0.56402   0.00000  Uiso   1.00
H145   H     0.35001   0.06764   0.56282   0.00000  Uiso   1.00
H146   H     0.38070   0.06820   0.51843   0.00000  Uiso   1.00
H147   H     0.25970   0.35891   0.96899   0.00000  Uiso   1.00
H148   H     0.19559   0.34485   0.93598   0.00000  Uiso   1.00
H149   H     0.18237   0.39998   0.93718   0.00000  Uiso   1.00
H150   H     0.18181   0.36929   0.98157   0.00000  Uiso   1.00
H151   H     0.26164   0.14093   0.03100   0.00000  Uiso   1.00
H152   H     0.19768   0.15589   0.06396   0.00000  Uiso   1.00
H153   H     0.18363   0.10097   0.06262   0.00000  Uiso   1.00
H154   H     0.43180   0.11930   0.48156   0.00000  Uiso   1.00
H155   H     0.18365   0.13178   0.01829   0.00000  Uiso   1.00
H156   H     0.14093   0.26163   0.96900   0.00000  Uiso   1.00
H157   H     0.15588   0.19767   0.93603   0.00000  Uiso   1.00
H158   H     0.10095   0.18363   0.93736   0.00000  Uiso   1.00
H159   H     0.13176   0.18363   0.98169   0.00000  Uiso   1.00
H160   H     0.35891   0.25968   0.03101   0.00000  Uiso   1.00
H161   H     0.34486   0.19555   0.06401   0.00000  Uiso   1.00
H162   H     0.40000   0.18235   0.06281   0.00000  Uiso   1.00
H163   H     0.36930   0.18180   0.01842   0.00000  Uiso   1.00
H164   H     0.24032   0.14109   0.96899   0.00000  Uiso   1.00
H165   H     0.01166   0.39093   0.53100   0.00000  Uiso   1.00
H166   H     0.30445   0.15514   0.93599   0.00000  Uiso   1.00
H167   H     0.31765   0.10000   0.93719   0.00000  Uiso   1.00
H168   H     0.31820   0.13070   0.98158   0.00000  Uiso   1.00
H169   H     0.23837   0.35907   0.03100   0.00000  Uiso   1.00
H170   H     0.30233   0.34412   0.06397   0.00000  Uiso   1.00
H171   H     0.31637   0.39905   0.06264   0.00000  Uiso   1.00
H172   H     0.31637   0.36824   0.01831   0.00000  Uiso   1.00
H173   H     0.35907   0.23836   0.96900   0.00000  Uiso   1.00
H174   H     0.34411   0.30232   0.93604   0.00000  Uiso   1.00
H175   H     0.39903   0.31637   0.93738   0.00000  Uiso   1.00
H176   H     0.44770   0.40590   0.56396   0.00000  Uiso   1.00
H177   H     0.36822   0.31635   0.98170   0.00000  Uiso   1.00
H178   H     0.14109   0.24030   0.03101   0.00000  Uiso   1.00
H179   H     0.15515   0.30442   0.06402   0.00000  Uiso   1.00
H180   H     0.10002   0.31763   0.06282   0.00000  Uiso   1.00
H181   H     0.13071   0.31819   0.01843   0.00000  Uiso   1.00
H182   H     0.43364   0.35098   0.56261   0.00000  Uiso   1.00
H183   H     0.43367   0.38179   0.51829   0.00000  Uiso   1.00
H184   H     0.39093   0.01165   0.46900   0.00000  Uiso   1.00
I185   I     0.46922   0.34027   0.38445   0.00000  Uiso   1.00
I186   I     0.21806   0.41011   0.11553   0.00000  Uiso   1.00
I187   I     0.41011   0.21807   0.88447   0.00000  Uiso   1.00
I188   I     0.09026   0.21920   0.11556   0.00000  Uiso   1.00
I189   I     0.28080   0.40974   0.88444   0.00000  Uiso   1.00
I190   I     0.28193   0.08989   0.11553   0.00000  Uiso   1.00
I191   I     0.08989   0.28194   0.88447   0.00000  Uiso   1.00
I192   I     0.40973   0.28079   0.11555   0.00000  Uiso   1.00
I193   I     0.46806   0.16011   0.61553   0.00000  Uiso   1.00
I194   I     0.16011   0.46806   0.38447   0.00000  Uiso   1.00
I195   I     0.34027   0.46921   0.61556   0.00000  Uiso   1.00
I196   I     0.03079   0.15973   0.38444   0.00000  Uiso   1.00
I197   I     0.03194   0.33989   0.61553   0.00000  Uiso   1.00
I198   I     0.33989   0.03194   0.38447   0.00000  Uiso   1.00
I199   I     0.15973   0.03078   0.61555   0.00000  Uiso   1.00
I200   I     0.21921   0.09027   0.88445   0.00000  Uiso   1.00
N201   N     0.49200   0.13417   0.45969   0.00000  Uiso   1.00
N202   N     0.24357   0.11593   0.04027   0.00000  Uiso   1.00
N203   N     0.11593   0.24356   0.95973   0.00000  Uiso   1.00
N204   N     0.38417   0.24199   0.04031   0.00000  Uiso   1.00
N205   N     0.25801   0.11583   0.95969   0.00000  Uiso   1.00
N206   N     0.25644   0.38407   0.04027   0.00000  Uiso   1.00
N207   N     0.38407   0.25643   0.95973   0.00000  Uiso   1.00
N208   N     0.11583   0.25799   0.04031   0.00000  Uiso   1.00
N209   N     0.49358   0.36594   0.54027   0.00000  Uiso   1.00
N210   N     0.36593   0.49357   0.45973   0.00000  Uiso   1.00
N211   N     0.13417   0.49198   0.54031   0.00000  Uiso   1.00
N212   N     0.00802   0.36583   0.45969   0.00000  Uiso   1.00
N213   N     0.00643   0.13407   0.54027   0.00000  Uiso   1.00
N214   N     0.13406   0.00642   0.45973   0.00000  Uiso   1.00
N215   N     0.36583   0.00800   0.54031   0.00000  Uiso   1.00
N216   N     0.24202   0.38417   0.95969   0.00000  Uiso   1.00
O217   O     0.25000  -0.00000   0.25000   0.00000  Uiso   1.00
O218   O     0.25000   0.46539   0.66251   0.00000  Uiso   1.00
O219   O     0.46539   0.25000   0.33749   0.00000  Uiso   1.00
O220   O     0.03462   0.25000   0.66251   0.00000  Uiso   1.00
O221   O     0.00000   0.21538   0.83749   0.00000  Uiso   1.00
O222   O     0.00000   0.28461   0.16251   0.00000  Uiso   1.00
O223   O     0.28462  -0.00000   0.83749   0.00000  Uiso   1.00
O224   O     0.21539  -0.00000   0.16251   0.00000  Uiso   1.00
O225   O     0.00000   0.28461   0.83749   0.00000  Uiso   1.00
O226   O     0.00000   0.21539   0.16251   0.00000  Uiso   1.00
O227   O     0.21539  -0.00000   0.83749   0.00000  Uiso   1.00
O228   O     0.25000   0.00000   0.75000   0.00000  Uiso   1.00
O229   O     0.28462  -0.00000   0.16251   0.00000  Uiso   1.00
O230   O     0.20127   0.08332   0.27298   0.00000  Uiso   1.00
O231   O     0.29874   0.41668   0.72702   0.00000  Uiso   1.00
O232   O     0.41668   0.20126   0.27298   0.00000  Uiso   1.00
O233   O     0.08332   0.29874   0.72702   0.00000  Uiso   1.00
O234   O     0.29874   0.41668   0.27298   0.00000  Uiso   1.00
O235   O     0.20127   0.08332   0.72702   0.00000  Uiso   1.00
O236   O     0.08332   0.29874   0.27298   0.00000  Uiso   1.00
O237   O     0.41668   0.20126   0.72702   0.00000  Uiso   1.00
O238   O     0.20127   0.41668   0.72702   0.00000  Uiso   1.00
O239   O     0.00000   0.25000   0.25000   0.00000  Uiso   1.00
O240   O     0.29874   0.08332   0.27298   0.00000  Uiso   1.00
O241   O     0.41668   0.29873   0.72702   0.00000  Uiso   1.00
O242   O     0.08332   0.20127   0.27298   0.00000  Uiso   1.00
O243   O     0.29874   0.08332   0.72702   0.00000  Uiso   1.00
O244   O     0.20127   0.41668   0.27298   0.00000  Uiso   1.00
O245   O     0.08332   0.20127   0.72702   0.00000  Uiso   1.00
O246   O     0.41668   0.29873   0.27298   0.00000  Uiso   1.00
O247   O     0.45127   0.33332   0.77298   0.00000  Uiso   1.00
O248   O     0.04874   0.16668   0.22702   0.00000  Uiso   1.00
O249   O     0.16668   0.45127   0.77298   0.00000  Uiso   1.00
O250   O     0.00000   0.25000   0.75000   0.00000  Uiso   1.00
O251   O     0.33332   0.04873   0.22702   0.00000  Uiso   1.00
O252   O     0.04874   0.16668   0.77298   0.00000  Uiso   1.00
O253   O     0.45127   0.33332   0.22702   0.00000  Uiso   1.00
O254   O     0.33332   0.04873   0.77298   0.00000  Uiso   1.00
O255   O     0.16668   0.45127   0.22702   0.00000  Uiso   1.00
O256   O     0.45127   0.16668   0.22702   0.00000  Uiso   1.00
O257   O     0.04874   0.33332   0.77298   0.00000  Uiso   1.00
O258   O     0.16668   0.04873   0.22702   0.00000  Uiso   1.00
O259   O     0.33332   0.45126   0.77298   0.00000  Uiso   1.00
O260   O     0.04874   0.33332   0.22702   0.00000  Uiso   1.00
O261   O     0.25000   0.46539   0.33749   0.00000  Uiso   1.00
O262   O     0.45127   0.16668   0.77298   0.00000  Uiso   1.00
O263   O     0.33332   0.45126   0.22702   0.00000  Uiso   1.00
O264   O     0.16668   0.04873   0.77298   0.00000  Uiso   1.00
O265   O     0.25000   0.03461   0.66251   0.00000  Uiso   1.00
O266   O     0.03462   0.25000   0.33749   0.00000  Uiso   1.00
O267   O     0.46539   0.25000   0.66251   0.00000  Uiso   1.00
O268   O     0.25000   0.03461   0.33749   0.00000  Uiso   1.00
Zn269  Zn    0.20053  -0.00000   0.21730   0.00000  Uiso   1.00
Zn270  Zn    0.04948   0.25000   0.28270   0.00000  Uiso   1.00
Zn271  Zn    0.25000   0.45053   0.71730   0.00000  Uiso   1.00
Zn272  Zn    0.25000   0.04947   0.28270   0.00000  Uiso   1.00
Zn273  Zn    0.04948   0.25000   0.71730   0.00000  Uiso   1.00
Zn274  Zn    0.45053   0.25000   0.28270   0.00000  Uiso   1.00
Zn275  Zn    0.25000   0.04947   0.71730   0.00000  Uiso   1.00
Zn276  Zn    0.25000   0.45053   0.28270   0.00000  Uiso   1.00
Zn277  Zn    0.29948  -0.00000   0.78270   0.00000  Uiso   1.00
Zn278  Zn    0.00000   0.20053   0.21730   0.00000  Uiso   1.00
Zn279  Zn    0.00000   0.29947   0.78270   0.00000  Uiso   1.00
Zn280  Zn    0.29948  -0.00000   0.21730   0.00000  Uiso   1.00
Zn281  Zn    0.20053  -0.00000   0.78270   0.00000  Uiso   1.00
Zn282  Zn    0.00000   0.29948   0.21730   0.00000  Uiso   1.00
Zn283  Zn    0.00000   0.20052   0.78270   0.00000  Uiso   1.00
Zn284  Zn    0.45053   0.25000   0.71730   0.00000  Uiso   1.00
C285   C     0.75000  -0.00000   0.35586   0.00000  Uiso   1.00
C286   C     0.83002   0.41998   0.75000   0.00000  Uiso   1.00
C287   C     0.92283   0.24904   0.02042   0.00000  Uiso   1.00
C288   C     0.75096   0.07717   0.97958   0.00000  Uiso   1.00
C289   C     0.74993   0.42282   0.02039   0.00000  Uiso   1.00
C290   C     0.92282   0.24993   0.97961   0.00000  Uiso   1.00
C291   C     0.57717   0.25095   0.02042   0.00000  Uiso   1.00
C292   C     0.94809   0.12417   0.45339   0.00000  Uiso   1.00
C293   C     0.94981   0.37660   0.54649   0.00000  Uiso   1.00
C294   C     0.87659   0.44980   0.45350   0.00000  Uiso   1.00
C295   C     0.62418   0.44806   0.54660   0.00000  Uiso   1.00
C296   C     0.55194   0.37583   0.45340   0.00000  Uiso   1.00
C297   C     0.91998   0.16998   0.25000   0.00000  Uiso   1.00
C298   C     0.55020   0.12341   0.54650   0.00000  Uiso   1.00
C299   C     0.62340   0.05019   0.45351   0.00000  Uiso   1.00
C300   C     0.87583   0.05191   0.54661   0.00000  Uiso   1.00
C301   C     0.69810   0.37416   0.95340   0.00000  Uiso   1.00
C302   C     0.69979   0.12659   0.04649   0.00000  Uiso   1.00
C303   C     0.62658   0.19978   0.95350   0.00000  Uiso   1.00
C304   C     0.87417   0.19808   0.04660   0.00000  Uiso   1.00
C305   C     0.80192   0.12583   0.95340   0.00000  Uiso   1.00
C306   C     0.80022   0.37342   0.04650   0.00000  Uiso   1.00
C307   C     0.87341   0.30021   0.95351   0.00000  Uiso   1.00
C308   C     0.58002   0.33002   0.75000   0.00000  Uiso   1.00
C309   C     0.62584   0.30190   0.04660   0.00000  Uiso   1.00
C310   C     0.83002   0.41998   0.25000   0.00000  Uiso   1.00
C311   C     0.66998   0.08002   0.75000   0.00000  Uiso   1.00
C312   C     0.58002   0.33002   0.25000   0.00000  Uiso   1.00
C313   C     0.91998   0.16998   0.75000   0.00000  Uiso   1.00
C314   C     0.66998   0.41998   0.75000   0.00000  Uiso   1.00
C315   C     0.83002   0.08002   0.25000   0.00000  Uiso   1.00
C316   C     0.91998   0.33002   0.75000   0.00000  Uiso   1.00
C317   C     0.75000   0.00000   0.64415   0.00000  Uiso   1.00
C318   C     0.58002   0.16998   0.25000   0.00000  Uiso   1.00
C319   C     0.83002   0.08002   0.75000   0.00000  Uiso   1.00
C320   C     0.66998   0.41998   0.25000   0.00000  Uiso   1.00
C321   C     0.58002   0.16998   0.75000   0.00000  Uiso   1.00
C322   C     0.91998   0.33002   0.25000   0.00000  Uiso   1.00
C323   C     0.63833   0.38833   0.25000   0.00000  Uiso   1.00
C324   C     0.86167   0.11167   0.75000   0.00000  Uiso   1.00
C325   C     0.61167   0.13833   0.25000   0.00000  Uiso   1.00
C326   C     0.88833   0.36167   0.75000   0.00000  Uiso   1.00
C327   C     0.86167   0.11167   0.25000   0.00000  Uiso   1.00
C328   C     0.50000   0.25000   0.35585   0.00000  Uiso   1.00
C329   C     0.63833   0.38833   0.75000   0.00000  Uiso   1.00
C330   C     0.88833   0.36167   0.25000   0.00000  Uiso   1.00
C331   C     0.61167   0.13833   0.75000   0.00000  Uiso   1.00
C332   C     0.63833   0.11167   0.75000   0.00000  Uiso   1.00
C333   C     0.86167   0.38833   0.25000   0.00000  Uiso   1.00
C334   C     0.61167   0.36167   0.75000   0.00000  Uiso   1.00
C335   C     0.88833   0.13833   0.25000   0.00000  Uiso   1.00
C336   C     0.86167   0.38833   0.75000   0.00000  Uiso   1.00
C337   C     0.63833   0.11167   0.25000   0.00000  Uiso   1.00
C338   C     0.88833   0.13833   0.75000   0.00000  Uiso   1.00
C339   C     0.50000   0.25000   0.64414   0.00000  Uiso   1.00
C340   C     0.61167   0.36167   0.25000   0.00000  Uiso   1.00
C341   C     0.99297   0.28781   0.41799   0.00000  Uiso   1.00
C342   C     0.99246   0.21228   0.58199   0.00000  Uiso   1.00
C343   C     0.71228   0.49247   0.41801   0.00000  Uiso   1.00
C344   C     0.78781   0.49297   0.58201   0.00000  Uiso   1.00
C345   C     0.50703   0.21219   0.41799   0.00000  Uiso   1.00
C346   C     0.50753   0.28772   0.58199   0.00000  Uiso   1.00
C347   C     0.78772   0.00754   0.41801   0.00000  Uiso   1.00
C348   C     0.71219   0.00703   0.58201   0.00000  Uiso   1.00
C349   C     0.74297   0.03781   0.91799   0.00000  Uiso   1.00
C350   C     0.50000   0.25000   0.85586   0.00000  Uiso   1.00
C351   C     0.74247   0.46228   0.08199   0.00000  Uiso   1.00
C352   C     0.96228   0.24247   0.91801   0.00000  Uiso   1.00
C353   C     0.53781   0.24296   0.08201   0.00000  Uiso   1.00
C354   C     0.75704   0.46219   0.91799   0.00000  Uiso   1.00
C355   C     0.75753   0.03772   0.08199   0.00000  Uiso   1.00
C356   C     0.53772   0.25753   0.91801   0.00000  Uiso   1.00
C357   C     0.96219   0.25703   0.08201   0.00000  Uiso   1.00
C358   C     0.50000   0.25000   0.39809   0.00000  Uiso   1.00
C359   C     0.50000   0.25000   0.60189   0.00000  Uiso   1.00
C360   C     0.75000   0.00000   0.39810   0.00000  Uiso   1.00
C361   C     0.50000   0.25000   0.14415   0.00000  Uiso   1.00
C362   C     0.75000  -0.00000   0.60191   0.00000  Uiso   1.00
C363   C     0.75000   0.00000   0.89809   0.00000  Uiso   1.00
C364   C     0.75000   0.00000   0.10189   0.00000  Uiso   1.00
C365   C     0.50000   0.25000   0.89810   0.00000  Uiso   1.00
C366   C     0.50000   0.25000   0.10191   0.00000  Uiso   1.00
C367   C     0.50169   0.21119   0.45881   0.00000  Uiso   1.00
C368   C     0.50220   0.28879   0.54116   0.00000  Uiso   1.00
C369   C     0.78879   0.00220   0.45884   0.00000  Uiso   1.00
C370   C     0.71119   0.00168   0.54119   0.00000  Uiso   1.00
C371   C     0.99832   0.28881   0.45881   0.00000  Uiso   1.00
C372   C     0.75000  -0.00000   0.85585   0.00000  Uiso   1.00
C373   C     0.99780   0.21121   0.54116   0.00000  Uiso   1.00
C374   C     0.71121   0.49780   0.45884   0.00000  Uiso   1.00
C375   C     0.78881   0.49831   0.54119   0.00000  Uiso   1.00
C376   C     0.75169   0.46119   0.95881   0.00000  Uiso   1.00
C377   C     0.75220   0.03879   0.04116   0.00000  Uiso   1.00
C378   C     0.53879   0.25220   0.95884   0.00000  Uiso   1.00
C379   C     0.96119   0.25168   0.04119   0.00000  Uiso   1.00
C380   C     0.74832   0.03881   0.95881   0.00000  Uiso   1.00
C381   C     0.74780   0.46121   0.04116   0.00000  Uiso   1.00
C382   C     0.96121   0.24780   0.95884   0.00000  Uiso   1.00
C383   C     0.75000   0.00000   0.14414   0.00000  Uiso   1.00
C384   C     0.53881   0.24831   0.04119   0.00000  Uiso   1.00
C385   C     0.50000   0.25000   0.47942   0.00000  Uiso   1.00
C386   C     0.50000   0.25000   0.52056   0.00000  Uiso   1.00
C387   C     0.75000  -0.00000   0.47944   0.00000  Uiso   1.00
C388   C     0.75000  -0.00000   0.52058   0.00000  Uiso   1.00
C389   C     0.75000   0.00000   0.97942   0.00000  Uiso   1.00
C390   C     0.75000   0.00000   0.02056   0.00000  Uiso   1.00
C391   C     0.50000   0.25000   0.97944   0.00000  Uiso   1.00
C392   C     0.50000   0.25000   0.02058   0.00000  Uiso   1.00
C393   C     0.99904   0.17283   0.47958   0.00000  Uiso   1.00
C394   C     0.66998   0.08002   0.25000   0.00000  Uiso   1.00
C395   C     0.50008   0.32718   0.52039   0.00000  Uiso   1.00
C396   C     0.82718   0.00008   0.47961   0.00000  Uiso   1.00
C397   C     0.67283   0.49903   0.52042   0.00000  Uiso   1.00
C398   C     0.50097   0.32717   0.47958   0.00000  Uiso   1.00
C399   C     0.99992   0.17282   0.52039   0.00000  Uiso   1.00
C400   C     0.67282   0.49992   0.47961   0.00000  Uiso   1.00
C401   C     0.82717   0.00096   0.52042   0.00000  Uiso   1.00
C402   C     0.74905   0.42283   0.97958   0.00000  Uiso   1.00
C403   C     0.75007   0.07718   0.02039   0.00000  Uiso   1.00
C404   C     0.57718   0.25007   0.97961   0.00000  Uiso   1.00
H405   H     0.50968   0.10891   0.46899   0.00000  Uiso   1.00
H406   H     0.90589   0.44769   0.43603   0.00000  Uiso   1.00
H407   H     0.85096   0.43364   0.43736   0.00000  Uiso   1.00
H408   H     0.88177   0.43365   0.48169   0.00000  Uiso   1.00
H409   H     0.60891   0.00966   0.53101   0.00000  Uiso   1.00
H410   H     0.59487   0.44553   0.56401   0.00000  Uiso   1.00
H411   H     0.65001   0.43234   0.56281   0.00000  Uiso   1.00
H412   H     0.61931   0.43178   0.51842   0.00000  Uiso   1.00
H413   H     0.99034   0.39109   0.46898   0.00000  Uiso   1.00
H414   H     0.55447   0.40513   0.43599   0.00000  Uiso   1.00
H415   H     0.56766   0.34999   0.43719   0.00000  Uiso   1.00
H416   H     0.94556   0.09486   0.43598   0.00000  Uiso   1.00
H417   H     0.56822   0.38069   0.48158   0.00000  Uiso   1.00
H418   H     0.98835   0.10907   0.53100   0.00000  Uiso   1.00
H419   H     0.55231   0.09411   0.56397   0.00000  Uiso   1.00
H420   H     0.56636   0.14904   0.56264   0.00000  Uiso   1.00
H421   H     0.56635   0.11823   0.51831   0.00000  Uiso   1.00
H422   H     0.60907   0.48834   0.46900   0.00000  Uiso   1.00
H423   H     0.59410   0.05230   0.43604   0.00000  Uiso   1.00
H424   H     0.64902   0.06636   0.43739   0.00000  Uiso   1.00
H425   H     0.61821   0.06633   0.48171   0.00000  Uiso   1.00
H426   H     0.89109   0.49032   0.53101   0.00000  Uiso   1.00
H427   H     0.93236   0.14999   0.43718   0.00000  Uiso   1.00
H428   H     0.90514   0.05444   0.56402   0.00000  Uiso   1.00
H429   H     0.85001   0.06764   0.56282   0.00000  Uiso   1.00
H430   H     0.88070   0.06820   0.51843   0.00000  Uiso   1.00
H431   H     0.75970   0.35891   0.96899   0.00000  Uiso   1.00
H432   H     0.69559   0.34485   0.93598   0.00000  Uiso   1.00
H433   H     0.68237   0.39998   0.93718   0.00000  Uiso   1.00
H434   H     0.68181   0.36929   0.98157   0.00000  Uiso   1.00
H435   H     0.76164   0.14093   0.03100   0.00000  Uiso   1.00
H436   H     0.69768   0.15589   0.06396   0.00000  Uiso   1.00
H437   H     0.68363   0.10097   0.06262   0.00000  Uiso   1.00
H438   H     0.93180   0.11930   0.48156   0.00000  Uiso   1.00
H439   H     0.68365   0.13178   0.01829   0.00000  Uiso   1.00
H440   H     0.64093   0.26163   0.96900   0.00000  Uiso   1.00
H441   H     0.65588   0.19767   0.93603   0.00000  Uiso   1.00
H442   H     0.60095   0.18363   0.93736   0.00000  Uiso   1.00
H443   H     0.63176   0.18363   0.98169   0.00000  Uiso   1.00
H444   H     0.85891   0.25968   0.03101   0.00000  Uiso   1.00
H445   H     0.84486   0.19555   0.06401   0.00000  Uiso   1.00
H446   H     0.90000   0.18235   0.06281   0.00000  Uiso   1.00
H447   H     0.86930   0.18180   0.01842   0.00000  Uiso   1.00
H448   H     0.74032   0.14109   0.96899   0.00000  Uiso   1.00
H449   H     0.51166   0.39093   0.53100   0.00000  Uiso   1.00
H450   H     0.80445   0.15514   0.93599   0.00000  Uiso   1.00
H451   H     0.81765   0.10000   0.93719   0.00000  Uiso   1.00
H452   H     0.81820   0.13070   0.98158   0.00000  Uiso   1.00
H453   H     0.73837   0.35907   0.03100   0.00000  Uiso   1.00
H454   H     0.80233   0.34412   0.06397   0.00000  Uiso   1.00
H455   H     0.81637   0.39905   0.06264   0.00000  Uiso   1.00
H456   H     0.81637   0.36824   0.01831   0.00000  Uiso   1.00
H457   H     0.85907   0.23836   0.96900   0.00000  Uiso   1.00
H458   H     0.84411   0.30232   0.93604   0.00000  Uiso   1.00
H459   H     0.89903   0.31637   0.93738   0.00000  Uiso   1.00
H460   H     0.94770   0.40590   0.56396   0.00000  Uiso   1.00
H461   H     0.86822   0.31635   0.98170   0.00000  Uiso   1.00
H462   H     0.64109   0.24030   0.03101   0.00000  Uiso   1.00
H463   H     0.65515   0.30442   0.06402   0.00000  Uiso   1.00
H464   H     0.60002   0.31763   0.06282   0.00000  Uiso   1.00
H465   H     0.63071   0.31819   0.01843   0.00000  Uiso   1.00
H466   H     0.93364   0.35098   0.56261   0.00000  Uiso   1.00
H467   H     0.93367   0.38179   0.51829   0.00000  Uiso   1.00
H468   H     0.89093   0.01165   0.46900   0.00000  Uiso   1.00
I469   I     0.96922   0.34027   0.38445   0.00000  Uiso   1.00
I470   I     0.71806   0.41011   0.11553   0.00000  Uiso   1.00
I471   I     0.91011   0.21807   0.88447   0.00000  Uiso   1.00
I472   I     0.59026   0.21920   0.11556   0.00000  Uiso   1.00
I473   I     0.78080   0.40974   0.88444   0.00000  Uiso   1.00
I474   I     0.78193   0.08989   0.11553   0.00000  Uiso   1.00
I475   I     0.58989   0.28194   0.88447   0.00000  Uiso   1.00
I476   I     0.90973   0.28079   0.11555   0.00000  Uiso   1.00
I477   I     0.96806   0.16011   0.61553   0.00000  Uiso   1.00
I478   I     0.66011   0.46806   0.38447   0.00000  Uiso   1.00
I479   I     0.84027   0.46921   0.61556   0.00000  Uiso   1.00
I480   I     0.53079   0.15973   0.38444   0.00000  Uiso   1.00
I481   I     0.53194   0.33989   0.61553   0.00000  Uiso   1.00
I482   I     0.83989   0.03194   0.38447   0.00000  Uiso   1.00
I483   I     0.65973   0.03078   0.61555   0.00000  Uiso   1.00
I484   I     0.71921   0.09027   0.88445   0.00000  Uiso   1.00
N485   N     0.99200   0.13417   0.45969   0.00000  Uiso   1.00
N486   N     0.74357   0.11593   0.04027   0.00000  Uiso   1.00
N487   N     0.61593   0.24356   0.95973   0.00000  Uiso   1.00
N488   N     0.88417   0.24199   0.04031   0.00000  Uiso   1.00
N489   N     0.75801   0.11583   0.95969   0.00000  Uiso   1.00
N490   N     0.75644   0.38407   0.04027   0.00000  Uiso   1.00
N491   N     0.88407   0.25643   0.95973   0.00000  Uiso   1.00
N492   N     0.61583   0.25799   0.04031   0.00000  Uiso   1.00
N493   N     0.99358   0.36594   0.54027   0.00000  Uiso   1.00
N494   N     0.86593   0.49357   0.45973   0.00000  Uiso   1.00
N495   N     0.63417   0.49198   0.54031   0.00000  Uiso   1.00
N496   N     0.50802   0.36583   0.45969   0.00000  Uiso   1.00
N497   N     0.50643   0.13407   0.54027   0.00000  Uiso   1.00
N498   N     0.63406   0.00642   0.45973   0.00000  Uiso   1.00
N499   N     0.86583   0.00800   0.54031   0.00000  Uiso   1.00
N500   N     0.74202   0.38417   0.95969   0.00000  Uiso   1.00
O501   O     0.75000  -0.00000   0.25000   0.00000  Uiso   1.00
O502   O     0.75000   0.46539   0.66251   0.00000  Uiso   1.00
O503   O     0.96539   0.25000   0.33749   0.00000  Uiso   1.00
O504   O     0.53462   0.25000   0.66251   0.00000  Uiso   1.00
O505   O     0.50000   0.21538   0.83749   0.00000  Uiso   1.00
O506   O     0.50000   0.28461   0.16251   0.00000  Uiso   1.00
O507   O     0.78462  -0.00000   0.83749   0.00000  Uiso   1.00
O508   O     0.71539  -0.00000   0.16251   0.00000  Uiso   1.00
O509   O     0.50000   0.28461   0.83749   0.00000  Uiso   1.00
O510   O     0.50000   0.21539   0.16251   0.00000  Uiso   1.00
O511   O     0.71539  -0.00000   0.83749   0.00000  Uiso   1.00
O512   O     0.75000   0.00000   0.75000   0.00000  Uiso   1.00
O513   O     0.78462  -0.00000   0.16251   0.00000  Uiso   1.00
O514   O     0.70127   0.08332   0.27298   0.00000  Uiso   1.00
O515   O     0.79874   0.41668   0.72702   0.00000  Uiso   1.00
O516   O     0.91668   0.20126   0.27298   0.00000  Uiso   1.00
O517   O     0.58332   0.29874   0.72702   0.00000  Uiso   1.00
O518   O     0.79874   0.41668   0.27298   0.00000  Uiso   1.00
O519   O     0.70127   0.08332   0.72702   0.00000  Uiso   1.00
O520   O     0.58332   0.29874   0.27298   0.00000  Uiso   1.00
O521   O     0.91668   0.20126   0.72702   0.00000  Uiso   1.00
O522   O     0.70127   0.41668   0.72702   0.00000  Uiso   1.00
O523   O     0.50000   0.25000   0.25000   0.00000  Uiso   1.00
O524   O     0.79874   0.08332   0.27298   0.00000  Uiso   1.00
O525   O     0.91668   0.29873   0.72702   0.00000  Uiso   1.00
O526   O     0.58332   0.20127   0.27298   0.00000  Uiso   1.00
O527   O     0.79874   0.08332   0.72702   0.00000  Uiso   1.00
O528   O     0.70127   0.41668   0.27298   0.00000  Uiso   1.00
O529   O     0.58332   0.20127   0.72702   0.00000  Uiso   1.00
O530   O     0.91668   0.29873   0.27298   0.00000  Uiso   1.00
O531   O     0.95127   0.33332   0.77298   0.00000  Uiso   1.00
O532   O     0.54874   0.16668   0.22702   0.00000  Uiso   1.00
O533   O     0.66668   0.45127   0.77298   0.00000  Uiso   1.00
O534   O     0.50000   0.25000   0.75000   0.00000  Uiso   1.00
O535   O     0.83332   0.04873   0.22702   0.00000  Uiso   1.00
O536   O     0.54874   0.16668   0.77298   0.00000  Uiso   1.00
O537   O     0.95127   0.33332   0.22702   0.00000  Uiso   1.00
O538   O     0.83332   0.04873   0.77298   0.00000  Uiso   1.00
O539   O     0.66668   0.45127   0.22702   0.00000  Uiso   1.00
O540   O     0.95127   0.16668   0.22702   0.00000  Uiso   1.00
O541   O     0.54874   0.33332   0.77298   0.00000  Uiso   1.00
O542   O     0.66668   0.04873   0.22702   0.00000  Uiso   1.00
O543   O     0.83332   0.45126   0.77298   0.00000  Uiso   1.00
O544   O     0.54874   0.33332   0.22702   0.00000  Uiso   1.00
O545   O     0.75000   0.46539   0.33749   0.00000  Uiso   1.00
O546   O     0.95127   0.16668   0.77298   0.00000  Uiso   1.00
O547   O     0.83332   0.45126   0.22702   0.00000  Uiso   1.00
O548   O     0.66668   0.04873   0.77298   0.00000  Uiso   1.00
O549   O     0.75000   0.03461   0.66251   0.00000  Uiso   1.00
O550   O     0.53462   0.25000   0.33749   0.00000  Uiso   1.00
O551   O     0.96539   0.25000   0.66251   0.00000  Uiso   1.00
O552   O     0.75000   0.03461   0.33749   0.00000  Uiso   1.00
Zn553  Zn    0.70053  -0.00000   0.21730   0.00000  Uiso   1.00
Zn554  Zn    0.54948   0.25000   0.28270   0.00000  Uiso   1.00
Zn555  Zn    0.75000   0.45053   0.71730   0.00000  Uiso   1.00
Zn556  Zn    0.75000   0.04947   0.28270   0.00000  Uiso   1.00
Zn557  Zn    0.54948   0.25000   0.71730   0.00000  Uiso   1.00
Zn558  Zn    0.95053   0.25000   0.28270   0.00000  Uiso   1.00
Zn559  Zn    0.75000   0.04947   0.71730   0.00000  Uiso   1.00
Zn560  Zn    0.75000   0.45053   0.28270   0.00000  Uiso   1.00
Zn561  Zn    0.79948  -0.00000   0.78270   0.00000  Uiso   1.00
Zn562  Zn    0.50000   0.20053   0.21730   0.00000  Uiso   1.00
Zn563  Zn    0.50000   0.29947   0.78270   0.00000  Uiso   1.00
Zn564  Zn    0.79948  -0.00000   0.21730   0.00000  Uiso   1.00
Zn565  Zn    0.70053  -0.00000   0.78270   0.00000  Uiso   1.00
Zn566  Zn    0.50000   0.29948   0.21730   0.00000  Uiso   1.00
Zn567  Zn    0.50000   0.20052   0.78270   0.00000  Uiso   1.00
Zn568  Zn    0.95053   0.25000   0.71730   0.00000  Uiso   1.00
C569   C     0.25000   0.50000   0.35586   0.00000  Uiso   1.00
C570   C     0.33002   0.91998   0.75000   0.00000  Uiso   1.00
C571   C     0.42283   0.74904   0.02042   0.00000  Uiso   1.00
C572   C     0.25096   0.57717   0.97958   0.00000  Uiso   1.00
C573   C     0.24993   0.92282   0.02039   0.00000  Uiso   1.00
C574   C     0.42282   0.74993   0.97961   0.00000  Uiso   1.00
C575   C     0.07717   0.75095   0.02042   0.00000  Uiso   1.00
C576   C     0.44809   0.62417   0.45339   0.00000  Uiso   1.00
C577   C     0.44981   0.87660   0.54649   0.00000  Uiso   1.00
C578   C     0.37659   0.94980   0.45350   0.00000  Uiso   1.00
C579   C     0.12418   0.94806   0.54660   0.00000  Uiso   1.00
C580   C     0.05194   0.87583   0.45340   0.00000  Uiso   1.00
C581   C     0.41998   0.66998   0.25000   0.00000  Uiso   1.00
C582   C     0.05020   0.62341   0.54650   0.00000  Uiso   1.00
C583   C     0.12340   0.55019   0.45351   0.00000  Uiso   1.00
C584   C     0.37583   0.55191   0.54661   0.00000  Uiso   1.00
C585   C     0.19810   0.87416   0.95340   0.00000  Uiso   1.00
C586   C     0.19979   0.62659   0.04649   0.00000  Uiso   1.00
C587   C     0.12658   0.69978   0.95350   0.00000  Uiso   1.00
C588   C     0.37417   0.69808   0.04660   0.00000  Uiso   1.00
C589   C     0.30192   0.62583   0.95340   0.00000  Uiso   1.00
C590   C     0.30022   0.87342   0.04650   0.00000  Uiso   1.00
C591   C     0.37341   0.80021   0.95351   0.00000  Uiso   1.00
C592   C     0.08002   0.83002   0.75000   0.00000  Uiso   1.00
C593   C     0.12584   0.80190   0.04660   0.00000  Uiso   1.00
C594   C     0.33002   0.91998   0.25000   0.00000  Uiso   1.00
C595   C     0.16998   0.58002   0.75000   0.00000  Uiso   1.00
C596   C     0.08002   0.83002   0.25000   0.00000  Uiso   1.00
C597   C     0.41998   0.66998   0.75000   0.00000  Uiso   1.00
C598   C     0.16998   0.91998   0.75000   0.00000  Uiso   1.00
C599   C     0.33002   0.58002   0.25000   0.00000  Uiso   1.00
C600   C     0.41998   0.83002   0.75000   0.00000  Uiso   1.00
C601   C     0.25000   0.50000   0.64415   0.00000  Uiso   1.00
C602   C     0.08002   0.66998   0.25000   0.00000  Uiso   1.00
C603   C     0.33002   0.58002   0.75000   0.00000  Uiso   1.00
C604   C     0.16998   0.91998   0.25000   0.00000  Uiso   1.00
C605   C     0.08002   0.66998   0.75000   0.00000  Uiso   1.00
C606   C     0.41998   0.83002   0.25000   0.00000  Uiso   1.00
C607   C     0.13833   0.88833   0.25000   0.00000  Uiso   1.00
C608   C     0.36167   0.61167   0.75000   0.00000  Uiso   1.00
C609   C     0.11167   0.63833   0.25000   0.00000  Uiso   1.00
C610   C     0.38833   0.86167   0.75000   0.00000  Uiso   1.00
C611   C     0.36167   0.61167   0.25000   0.00000  Uiso   1.00
C612   C     0.00000   0.75000   0.35585   0.00000  Uiso   1.00
C613   C     0.13833   0.88833   0.75000   0.00000  Uiso   1.00
C614   C     0.38833   0.86167   0.25000   0.00000  Uiso   1.00
C615   C     0.11167   0.63833   0.75000   0.00000  Uiso   1.00
C616   C     0.13833   0.61167   0.75000   0.00000  Uiso   1.00
C617   C     0.36167   0.88833   0.25000   0.00000  Uiso   1.00
C618   C     0.11167   0.86167   0.75000   0.00000  Uiso   1.00
C619   C     0.38833   0.63833   0.25000   0.00000  Uiso   1.00
C620   C     0.36167   0.88833   0.75000   0.00000  Uiso   1.00
C621   C     0.13833   0.61167   0.25000   0.00000  Uiso   1.00
C622   C     0.38833   0.63833   0.75000   0.00000  Uiso   1.00
C623   C     0.00000   0.75000   0.64414   0.00000  Uiso   1.00
C624   C     0.11167   0.86167   0.25000   0.00000  Uiso   1.00
C625   C     0.49297   0.78781   0.41799   0.00000  Uiso   1.00
C626   C     0.49246   0.71228   0.58199   0.00000  Uiso   1.00
C627   C     0.21228   0.99247   0.41801   0.00000  Uiso   1.00
C628   C     0.28781   0.99297   0.58201   0.00000  Uiso   1.00
C629   C     0.00703   0.71219   0.41799   0.00000  Uiso   1.00
C630   C     0.00753   0.78772   0.58199   0.00000  Uiso   1.00
C631   C     0.28772   0.50754   0.41801   0.00000  Uiso   1.00
C632   C     0.21219   0.50703   0.58201   0.00000  Uiso   1.00
C633   C     0.24297   0.53781   0.91799   0.00000  Uiso   1.00
C634   C     0.00000   0.75000   0.85586   0.00000  Uiso   1.00
C635   C     0.24247   0.96228   0.08199   0.00000  Uiso   1.00
C636   C     0.46228   0.74247   0.91801   0.00000  Uiso   1.00
C637   C     0.03781   0.74296   0.08201   0.00000  Uiso   1.00
C638   C     0.25704   0.96219   0.91799   0.00000  Uiso   1.00
C639   C     0.25753   0.53772   0.08199   0.00000  Uiso   1.00
C640   C     0.03772   0.75753   0.91801   0.00000  Uiso   1.00
C641   C     0.46219   0.75703   0.08201   0.00000  Uiso   1.00
C642   C     0.00000   0.75000   0.39809   0.00000  Uiso   1.00
C643   C    -0.00000   0.75000   0.60189   0.00000  Uiso   1.00
C644   C     0.25000   0.50000   0.39810   0.00000  Uiso   1.00
C645   C     0.00000   0.75000   0.14415   0.00000  Uiso   1.00
C646   C     0.25000   0.50000   0.60191   0.00000  Uiso   1.00
C647   C     0.25000   0.50000   0.89809   0.00000  Uiso   1.00
C648   C     0.25000   0.50000   0.10189   0.00000  Uiso   1.00
C649   C    -0.00000   0.75000   0.89810   0.00000  Uiso   1.00
C650   C    -0.00000   0.75000   0.10191   0.00000  Uiso   1.00
C651   C     0.00169   0.71119   0.45881   0.00000  Uiso   1.00
C652   C     0.00220   0.78879   0.54116   0.00000  Uiso   1.00
C653   C     0.28879   0.50220   0.45884   0.00000  Uiso   1.00
C654   C     0.21119   0.50168   0.54119   0.00000  Uiso   1.00
C655   C     0.49832   0.78881   0.45881   0.00000  Uiso   1.00
C656   C     0.25000   0.50000   0.85585   0.00000  Uiso   1.00
C657   C     0.49780   0.71121   0.54116   0.00000  Uiso   1.00
C658   C     0.21121   0.99780   0.45884   0.00000  Uiso   1.00
C659   C     0.28881   0.99831   0.54119   0.00000  Uiso   1.00
C660   C     0.25169   0.96119   0.95881   0.00000  Uiso   1.00
C661   C     0.25220   0.53879   0.04116   0.00000  Uiso   1.00
C662   C     0.03879   0.75220   0.95884   0.00000  Uiso   1.00
C663   C     0.46119   0.75168   0.04119   0.00000  Uiso   1.00
C664   C     0.24832   0.53881   0.95881   0.00000  Uiso   1.00
C665   C     0.24780   0.96121   0.04116   0.00000  Uiso   1.00
C666   C     0.46121   0.74780   0.95884   0.00000  Uiso   1.00
C667   C     0.25000   0.50000   0.14414   0.00000  Uiso   1.00
C668   C     0.03881   0.74831   0.04119   0.00000  Uiso   1.00
C669   C     0.00000   0.75000   0.47942   0.00000  Uiso   1.00
C670   C     0.00000   0.75000   0.52056   0.00000  Uiso   1.00
C671   C     0.25000   0.50000   0.47944   0.00000  Uiso   1.00
C672   C     0.25000   0.50000   0.52058   0.00000  Uiso   1.00
C673   C     0.25000   0.50000   0.97942   0.00000  Uiso   1.00
C674   C     0.25000   0.50000   0.02056   0.00000  Uiso   1.00
C675   C    -0.00000   0.75000   0.97944   0.00000  Uiso   1.00
C676   C    -0.00000   0.75000   0.02058   0.00000  Uiso   1.00
C677   C     0.49904   0.67283   0.47958   0.00000  Uiso   1.00
C678   C     0.16998   0.58002   0.25000   0.00000  Uiso   1.00
C679   C     0.00008   0.82718   0.52039   0.00000  Uiso   1.00
C680   C     0.32718   0.50008   0.47961   0.00000  Uiso   1.00
C681   C     0.17283   0.99903   0.52042   0.00000  Uiso   1.00
C682   C     0.00097   0.82717   0.47958   0.00000  Uiso   1.00
C683   C     0.49992   0.67282   0.52039   0.00000  Uiso   1.00
C684   C     0.17282   0.99992   0.47961   0.00000  Uiso   1.00
C685   C     0.32717   0.50096   0.52042   0.00000  Uiso   1.00
C686   C     0.24905   0.92283   0.97958   0.00000  Uiso   1.00
C687   C     0.25007   0.57718   0.02039   0.00000  Uiso   1.00
C688   C     0.07718   0.75007   0.97961   0.00000  Uiso   1.00
H689   H     0.00968   0.60891   0.46899   0.00000  Uiso   1.00
H690   H     0.40589   0.94769   0.43603   0.00000  Uiso   1.00
H691   H     0.35096   0.93364   0.43736   0.00000  Uiso   1.00
H692   H     0.38177   0.93365   0.48169   0.00000  Uiso   1.00
H693   H     0.10891   0.50966   0.53101   0.00000  Uiso   1.00
H694   H     0.09487   0.94553   0.56401   0.00000  Uiso   1.00
H695   H     0.15001   0.93234   0.56281   0.00000  Uiso   1.00
H696   H     0.11931   0.93178   0.51842   0.00000  Uiso   1.00
H697   H     0.49034   0.89109   0.46898   0.00000  Uiso   1.00
H698   H     0.05447   0.90513   0.43599   0.00000  Uiso   1.00
H699   H     0.06766   0.84999   0.43719   0.00000  Uiso   1.00
H700   H     0.44556   0.59486   0.43598   0.00000  Uiso   1.00
H701   H     0.06822   0.88069   0.48158   0.00000  Uiso   1.00
H702   H     0.48835   0.60907   0.53100   0.00000  Uiso   1.00
H703   H     0.05231   0.59411   0.56397   0.00000  Uiso   1.00
H704   H     0.06636   0.64904   0.56264   0.00000  Uiso   1.00
H705   H     0.06635   0.61823   0.51831   0.00000  Uiso   1.00
H706   H     0.10907   0.98834   0.46900   0.00000  Uiso   1.00
H707   H     0.09410   0.55230   0.43604   0.00000  Uiso   1.00
H708   H     0.14902   0.56636   0.43739   0.00000  Uiso   1.00
H709   H     0.11821   0.56633   0.48171   0.00000  Uiso   1.00
H710   H     0.39109   0.99032   0.53101   0.00000  Uiso   1.00
H711   H     0.43236   0.64999   0.43718   0.00000  Uiso   1.00
H712   H     0.40514   0.55444   0.56402   0.00000  Uiso   1.00
H713   H     0.35001   0.56764   0.56282   0.00000  Uiso   1.00
H714   H     0.38070   0.56820   0.51843   0.00000  Uiso   1.00
H715   H     0.25970   0.85891   0.96899   0.00000  Uiso   1.00
H716   H     0.19559   0.84485   0.93598   0.00000  Uiso   1.00
H717   H     0.18237   0.89998   0.93718   0.00000  Uiso   1.00
H718   H     0.18181   0.86929   0.98157   0.00000  Uiso   1.00
H719   H     0.26164   0.64093   0.03100   0.00000  Uiso   1.00
H720   H     0.19768   0.65589   0.06396   0.00000  Uiso   1.00
H721   H     0.18363   0.60097   0.06262   0.00000  Uiso   1.00
H722   H     0.43180   0.61930   0.48156   0.00000  Uiso   1.00
H723   H     0.18365   0.63178   0.01829   0.00000  Uiso   1.00
H724   H     0.14093   0.76163   0.96900   0.00000  Uiso   1.00
H725   H     0.15588   0.69767   0.93603   0.00000  Uiso   1.00
H726   H     0.10095   0.68363   0.93736   0.00000  Uiso   1.00
H727   H     0.13176   0.68363   0.98169   0.00000  Uiso   1.00
H728   H     0.35891   0.75968   0.03101   0.00000  Uiso   1.00
H729   H     0.34486   0.69555   0.06401   0.00000  Uiso   1.00
H730   H     0.40000   0.68235   0.06281   0.00000  Uiso   1.00
H731   H     0.36930   0.68180   0.01842   0.00000  Uiso   1.00
H732   H     0.24032   0.64109   0.96899   0.00000  Uiso   1.00
H733   H     0.01166   0.89093   0.53100   0.00000  Uiso   1.00
H734   H     0.30445   0.65514   0.93599   0.00000  Uiso   1.00
H735   H     0.31765   0.60000   0.93719   0.00000  Uiso   1.00
H736   H     0.31820   0.63070   0.98158   0.00000  Uiso   1.00
H737   H     0.23837   0.85907   0.03100   0.00000  Uiso   1.00
H738   H     0.30233   0.84412   0.06397   0.00000  Uiso   1.00
H739   H     0.31637   0.89905   0.06264   0.00000  Uiso   1.00
H740   H     0.31637   0.86824   0.01831   0.00000  Uiso   1.00
H741   H     0.35907   0.73836   0.96900   0.00000  Uiso   1.00
H742   H     0.34411   0.80232   0.93604   0.00000  Uiso   1.00
H743   H     0.39903   0.81637   0.93738   0.00000  Uiso   1.00
H744   H     0.44770   0.90590   0.56396   0.00000  Uiso   1.00
H745   H     0.36822   0.81635   0.98170   0.00000  Uiso   1.00
H746   H     0.14109   0.74030   0.03101   0.00000  Uiso   1.00
H747   H     0.15515   0.80442   0.06402   0.00000  Uiso   1.00
H748   H     0.10002   0.81763   0.06282   0.00000  Uiso   1.00
H749   H     0.13071   0.81819   0.01843   0.00000  Uiso   1.00
H750   H     0.43364   0.85098   0.56261   0.00000  Uiso   1.00
H751   H     0.43367   0.88179   0.51829   0.00000  Uiso   1.00
H752   H     0.39093   0.51165   0.46900   0.00000  Uiso   1.00
I753   I     0.46922   0.84027   0.38445   0.00000  Uiso   1.00
I754   I     0.21806   0.91011   0.11553   0.00000  Uiso   1.00
I755   I     0.41011   0.71807   0.88447   0.00000  Uiso   1.00
I756   I     0.09026   0.71920   0.11556   0.00000  Uiso   1.00
I757   I     0.28080   0.90974   0.88444   0.00000  Uiso   1.00
I758   I     0.28193   0.58989   0.11553   0.00000  Uiso   1.00
I759   I     0.08989   0.78194   0.88447   0.00000  Uiso   1.00
I760   I     0.40973   0.78079   0.11555   0.00000  Uiso   1.00
I761   I     0.46806   0.66011   0.61553   0.00000  Uiso   1.00
I762   I     0.16011   0.96806   0.38447   0.00000  Uiso   1.00
I763   I     0.34027   0.96921   0.61556   0.00000  Uiso   1.00
I764   I     0.03079   0.65973   0.38444   0.00000  Uiso   1.00
I765   I     0.03194   0.83989   0.61553   0.00000  Uiso   1.00
I766   I     0.33989   0.53194   0.38447   0.00000  Uiso   1.00
I767   I     0.15973   0.53078   0.61555   0.00000  Uiso   1.00
I768   I     0.21921   0.59027   0.88445   0.00000  Uiso   1.00
N769   N     0.49200   0.63417   0.45969   0.00000  Uiso   1.00
N770   N     0.24357   0.61593   0.04027   0.00000  Uiso   1.00
N771   N     0.11593   0.74356   0.95973   0.00000  Uiso   1.00
N772   N     0.38417   0.74199   0.04031   0.00000  Uiso   1.00
N773   N     0.25801   0.61583   0.95969   0.00000  Uiso   1.00
N774   N     0.25644   0.88407   0.04027   0.00000  Uiso   1.00
N775   N     0.38407   0.75643   0.95973   0.00000  Uiso   1.00
N776   N     0.11583   0.75799   0.04031   0.00000  Uiso   1.00
N777   N     0.49358   0.86594   0.54027   0.00000  Uiso   1.00
N778   N     0.36593   0.99357   0.45973   0.00000  Uiso   1.00
N779   N     0.13417   0.99198   0.54031   0.00000  Uiso   1.00
N780   N     0.00802   0.86583   0.45969   0.00000  Uiso   1.00
N781   N     0.00643   0.63407   0.54027   0.00000  Uiso   1.00
N782   N     0.13406   0.50642   0.45973   0.00000  Uiso   1.00
N783   N     0.36583   0.50800   0.54031   0.00000  Uiso   1.00
N784   N     0.24202   0.88417   0.95969   0.00000  Uiso   1.00
O785   O     0.25000   0.50000   0.25000   0.00000  Uiso   1.00
O786   O     0.25000   0.96539   0.66251   0.00000  Uiso   1.00
O787   O     0.46539   0.75000   0.33749   0.00000  Uiso   1.00
O788   O     0.03462   0.75000   0.66251   0.00000  Uiso   1.00
O789   O     0.00000   0.71538   0.83749   0.00000  Uiso   1.00
O790   O     0.00000   0.78461   0.16251   0.00000  Uiso   1.00
O791   O     0.28462   0.50000   0.83749   0.00000  Uiso   1.00
O792   O     0.21539   0.50000   0.16251   0.00000  Uiso   1.00
O793   O     0.00000   0.78461   0.83749   0.00000  Uiso   1.00
O794   O     0.00000   0.71539   0.16251   0.00000  Uiso   1.00
O795   O     0.21539   0.50000   0.83749   0.00000  Uiso   1.00
O796   O     0.25000   0.50000   0.75000   0.00000  Uiso   1.00
O797   O     0.28462   0.50000   0.16251   0.00000  Uiso   1.00
O798   O     0.20127   0.58332   0.27298   0.00000  Uiso   1.00
O799   O     0.29874   0.91668   0.72702   0.00000  Uiso   1.00
O800   O     0.41668   0.70126   0.27298   0.00000  Uiso   1.00
O801   O     0.08332   0.79874   0.72702   0.00000  Uiso   1.00
O802   O     0.29874   0.91668   0.27298   0.00000  Uiso   1.00
O803   O     0.20127   0.58332   0.72702   0.00000  Uiso   1.00
O804   O     0.08332   0.79874   0.27298   0.00000  Uiso   1.00
O805   O     0.41668   0.70126   0.72702   0.00000  Uiso   1.00
O806   O     0.20127   0.91668   0.72702   0.00000  Uiso   1.00
O807   O     0.00000   0.75000   0.25000   0.00000  Uiso   1.00
O808   O     0.29874   0.58332   0.27298   0.00000  Uiso   1.00
O809   O     0.41668   0.79873   0.72702   0.00000  Uiso   1.00
O810   O     0.08332   0.70127   0.27298   0.00000  Uiso   1.00
O811   O     0.29874   0.58332   0.72702   0.00000  Uiso   1.00
O812   O     0.20127   0.91668   0.27298   0.00000  Uiso   1.00
O813   O     0.08332   0.70127   0.72702   0.00000  Uiso   1.00
O814   O     0.41668   0.79873   0.27298   0.00000  Uiso   1.00
O815   O     0.45127   0.83332   0.77298   0.00000  Uiso   1.00
O816   O     0.04874   0.66668   0.22702   0.00000  Uiso   1.00
O817   O     0.16668   0.95127   0.77298   0.00000  Uiso   1.00
O818   O     0.00000   0.75000   0.75000   0.00000  Uiso   1.00
O819   O     0.33332   0.54873   0.22702   0.00000  Uiso   1.00
O820   O     0.04874   0.66668   0.77298   0.00000  Uiso   1.00
O821   O     0.45127   0.83332   0.22702   0.00000  Uiso   1.00
O822   O     0.33332   0.54873   0.77298   0.00000  Uiso   1.00
O823   O     0.16668   0.95127   0.22702   0.00000  Uiso   1.00
O824   O     0.45127   0.66668   0.22702   0.00000  Uiso   1.00
O825   O     0.04874   0.83332   0.77298   0.00000  Uiso   1.00
O826   O     0.16668   0.54873   0.22702   0.00000  Uiso   1.00
O827   O     0.33332   0.95126   0.77298   0.00000  Uiso   1.00
O828   O     0.04874   0.83332   0.22702   0.00000  Uiso   1.00
O829   O     0.25000   0.96539   0.33749   0.00000  Uiso   1.00
O830   O     0.45127   0.66668   0.77298   0.00000  Uiso   1.00
O831   O     0.33332   0.95126   0.22702   0.00000  Uiso   1.00
O832   O     0.16668   0.54873   0.77298   0.00000  Uiso   1.00
O833   O     0.25000   0.53461   0.66251   0.00000  Uiso   1.00
O834   O     0.03462   0.75000   0.33749   0.00000  Uiso   1.00
O835   O     0.46539   0.75000   0.66251   0.00000  Uiso   1.00
O836   O     0.25000   0.53461   0.33749   0.00000  Uiso   1.00
Zn837  Zn    0.20053   0.50000   0.21730   0.00000  Uiso   1.00
Zn838  Zn    0.04948   0.75000   0.28270   0.00000  Uiso   1.00
Zn839  Zn    0.25000   0.95053   0.71730   0.00000  Uiso   1.00
Zn840  Zn    0.25000   0.54947   0.28270   0.00000  Uiso   1.00
Zn841  Zn    0.04948   0.75000   0.71730   0.00000  Uiso   1.00
Zn842  Zn    0.45053   0.75000   0.28270   0.00000  Uiso   1.00
Zn843  Zn    0.25000   0.54947   0.71730   0.00000  Uiso   1.00
Zn844  Zn    0.25000   0.95053   0.28270   0.00000  Uiso   1.00
Zn845  Zn    0.29948   0.50000   0.78270   0.00000  Uiso   1.00
Zn846  Zn    0.00000   0.70053   0.21730   0.00000  Uiso   1.00
Zn847  Zn    0.00000   0.79947   0.78270   0.00000  Uiso   1.00
Zn848  Zn    0.29948   0.50000   0.21730   0.00000  Uiso   1.00
Zn849  Zn    0.20053   0.50000   0.78270   0.00000  Uiso   1.00
Zn850  Zn    0.00000   0.79948   0.21730   0.00000  Uiso   1.00
Zn851  Zn    0.00000   0.70052   0.78270   0.00000  Uiso   1.00
Zn852  Zn    0.45053   0.75000   0.71730   0.00000  Uiso   1.00
C853   C     0.75000   0.50000   0.35586   0.00000  Uiso   1.00
C854   C     0.83002   0.91998   0.75000   0.00000  Uiso   1.00
C855   C     0.92283   0.74904   0.02042   0.00000  Uiso   1.00
C856   C     0.75096   0.57717   0.97958   0.00000  Uiso   1.00
C857   C     0.74993   0.92282   0.02039   0.00000  Uiso   1.00
C858   C     0.92282   0.74993   0.97961   0.00000  Uiso   1.00
C859   C     0.57717   0.75095   0.02042   0.00000  Uiso   1.00
C860   C     0.94809   0.62417   0.45339   0.00000  Uiso   1.00
C861   C     0.94981   0.87660   0.54649   0.00000  Uiso   1.00
C862   C     0.87659   0.94980   0.45350   0.00000  Uiso   1.00
C863   C     0.62418   0.94806   0.54660   0.00000  Uiso   1.00
C864   C     0.55194   0.87583   0.45340   0.00000  Uiso   1.00
C865   C     0.91998   0.66998   0.25000   0.00000  Uiso   1.00
C866   C     0.55020   0.62341   0.54650   0.00000  Uiso   1.00
C867   C     0.62340   0.55019   0.45351   0.00000  Uiso   1.00
C868   C     0.87583   0.55191   0.54661   0.00000  Uiso   1.00
C869   C     0.69810   0.87416   0.95340   0.00000  Uiso   1.00
C870   C     0.69979   0.62659   0.04649   0.00000  Uiso   1.00
C871   C     0.62658   0.69978   0.95350   0.00000  Uiso   1.00
C872   C     0.87417   0.69808   0.04660   0.00000  Uiso   1.00
C873   C     0.80192   0.62583   0.95340   0.00000  Uiso   1.00
C874   C     0.80022   0.87342   0.04650   0.00000  Uiso   1.00
C875   C     0.87341   0.80021   0.95351   0.00000  Uiso   1.00
C876   C     0.58002   0.83002   0.75000   0.00000  Uiso   1.00
C877   C     0.62584   0.80190   0.04660   0.00000  Uiso   1.00
C878   C     0.83002   0.91998   0.25000   0.00000  Uiso   1.00
C879   C     0.66998   0.58002   0.75000   0.00000  Uiso   1.00
C880   C     0.58002   0.83002   0.25000   0.00000  Uiso   1.00
C881   C     0.91998   0.66998   0.75000   0.00000  Uiso   1.00
C882   C     0.66998   0.91998   0.75000   0.00000  Uiso   1.00
C883   C     0.83002   0.58002   0.25000   0.00000  Uiso   1.00
C884   C     0.91998   0.83002   0.75000   0.00000  Uiso   1.00
C885   C     0.75000   0.50000   0.64415   0.00000  Uiso   1.00
C886   C     0.58002   0.66998   0.25000   0.00000  Uiso   1.00
C887   C     0.83002   0.58002   0.75000   0.00000  Uiso   1.00
C888   C     0.66998   0.91998   0.25000   0.00000  Uiso   1.00
C889   C     0.58002   0.66998   0.75000   0.00000  Uiso   1.00
C890   C     0.91998   0.83002   0.25000   0.00000  Uiso   1.00
C891   C     0.63833   0.88833   0.25000   0.00000  Uiso   1.00
C892   C     0.86167   0.61167   0.75000   0.00000  Uiso   1.00
C893   C     0.61167   0.63833   0.25000   0.00000  Uiso   1.00
C894   C     0.88833   0.86167   0.75000   0.00000  Uiso   1.00
C895   C     0.86167   0.61167   0.25000   0.00000  Uiso   1.00
C896   C     0.50000   0.75000   0.35585   0.00000  Uiso   1.00
C897   C     0.63833   0.88833   0.75000   0.00000  Uiso   1.00
C898   C     0.88833   0.86167   0.25000   0.00000  Uiso   1.00
C899   C     0.61167   0.63833   0.75000   0.00000  Uiso   1.00
C900   C     0.63833   0.61167   0.75000   0.00000  Uiso   1.00
C901   C     0.86167   0.88833   0.25000   0.00000  Uiso   1.00
C902   C     0.61167   0.86167   0.75000   0.00000  Uiso   1.00
C903   C     0.88833   0.63833   0.25000   0.00000  Uiso   1.00
C904   C     0.86167   0.88833   0.75000   0.00000  Uiso   1.00
C905   C     0.63833   0.61167   0.25000   0.00000  Uiso   1.00
C906   C     0.88833   0.63833   0.75000   0.00000  Uiso   1.00
C907   C     0.50000   0.75000   0.64414   0.00000  Uiso   1.00
C908   C     0.61167   0.86167   0.25000   0.00000  Uiso   1.00
C909   C     0.99297   0.78781   0.41799   0.00000  Uiso   1.00
C910   C     0.99246   0.71228   0.58199   0.00000  Uiso   1.00
C911   C     0.71228   0.99247   0.41801   0.00000  Uiso   1.00
C912   C     0.78781   0.99297   0.58201   0.00000  Uiso   1.00
C913   C     0.50703   0.71219   0.41799   0.00000  Uiso   1.00
C914   C     0.50753   0.78772   0.58199   0.00000  Uiso   1.00
C915   C     0.78772   0.50754   0.41801   0.00000  Uiso   1.00
C916   C     0.71219   0.50703   0.58201   0.00000  Uiso   1.00
C917   C     0.74297   0.53781   0.91799   0.00000  Uiso   1.00
C918   C     0.50000   0.75000   0.85586   0.00000  Uiso   1.00
C919   C     0.74247   0.96228   0.08199   0.00000  Uiso   1.00
C920   C     0.96228   0.74247   0.91801   0.00000  Uiso   1.00
C921   C     0.53781   0.74296   0.08201   0.00000  Uiso   1.00
C922   C     0.75704   0.96219   0.91799   0.00000  Uiso   1.00
C923   C     0.75753   0.53772   0.08199   0.00000  Uiso   1.00
C924   C     0.53772   0.75753   0.91801   0.00000  Uiso   1.00
C925   C     0.96219   0.75703   0.08201   0.00000  Uiso   1.00
C926   C     0.50000   0.75000   0.39809   0.00000  Uiso   1.00
C927   C     0.50000   0.75000   0.60189   0.00000  Uiso   1.00
C928   C     0.75000   0.50000   0.39810   0.00000  Uiso   1.00
C929   C     0.50000   0.75000   0.14415   0.00000  Uiso   1.00
C930   C     0.75000   0.50000   0.60191   0.00000  Uiso   1.00
C931   C     0.75000   0.50000   0.89809   0.00000  Uiso   1.00
C932   C     0.75000   0.50000   0.10189   0.00000  Uiso   1.00
C933   C     0.50000   0.75000   0.89810   0.00000  Uiso   1.00
C934   C     0.50000   0.75000   0.10191   0.00000  Uiso   1.00
C935   C     0.50169   0.71119   0.45881   0.00000  Uiso   1.00
C936   C     0.50220   0.78879   0.54116   0.00000  Uiso   1.00
C937   C     0.78879   0.50220   0.45884   0.00000  Uiso   1.00
C938   C     0.71119   0.50168   0.54119   0.00000  Uiso   1.00
C939   C     0.99832   0.78881   0.45881   0.00000  Uiso   1.00
C940   C     0.75000   0.50000   0.85585   0.00000  Uiso   1.00
C941   C     0.99780   0.71121   0.54116   0.00000  Uiso   1.00
C942   C     0.71121   0.99780   0.45884   0.00000  Uiso   1.00
C943   C     0.78881   0.99831   0.54119   0.00000  Uiso   1.00
C944   C     0.75169   0.96119   0.95881   0.00000  Uiso   1.00
C945   C     0.75220   0.53879   0.04116   0.00000  Uiso   1.00
C946   C     0.53879   0.75220   0.95884   0.00000  Uiso   1.00
C947   C     0.96119   0.75168   0.04119   0.00000  Uiso   1.00
C948   C     0.74832   0.53881   0.95881   0.00000  Uiso   1.00
C949   C     0.74780   0.96121   0.04116   0.00000  Uiso   1.00
C950   C     0.96121   0.74780   0.95884   0.00000  Uiso   1.00
C951   C     0.75000   0.50000   0.14414   0.00000  Uiso   1.00
C952   C     0.53881   0.74831   0.04119   0.00000  Uiso   1.00
C953   C     0.50000   0.75000   0.47942   0.00000  Uiso   1.00
C954   C     0.50000   0.75000   0.52056   0.00000  Uiso   1.00
C955   C     0.75000   0.50000   0.47944   0.00000  Uiso   1.00
C956   C     0.75000   0.50000   0.52058   0.00000  Uiso   1.00
C957   C     0.75000   0.50000   0.97942   0.00000  Uiso   1.00
C958   C     0.75000   0.50000   0.02056   0.00000  Uiso   1.00
C959   C     0.50000   0.75000   0.97944   0.00000  Uiso   1.00
C960   C     0.50000   0.75000   0.02058   0.00000  Uiso   1.00
C961   C     0.99904   0.67283   0.47958   0.00000  Uiso   1.00
C962   C     0.66998   0.58002   0.25000   0.00000  Uiso   1.00
C963   C     0.50008   0.82718   0.52039   0.00000  Uiso   1.00
C964   C     0.82718   0.50008   0.47961   0.00000  Uiso   1.00
C965   C     0.67283   0.99903   0.52042   0.00000  Uiso   1.00
C966   C     0.50097   0.82717   0.47958   0.00000  Uiso   1.00
C967   C     0.99992   0.67282   0.52039   0.00000  Uiso   1.00
C968   C     0.67282   0.99992   0.47961   0.00000  Uiso   1.00
C969   C     0.82717   0.50096   0.52042   0.00000  Uiso   1.00
C970   C     0.74905   0.92283   0.97958   0.00000  Uiso   1.00
C971   C     0.75007   0.57718   0.02039   0.00000  Uiso   1.00
C972   C     0.57718   0.75007   0.97961   0.00000  Uiso   1.00
H973   H     0.50968   0.60891   0.46899   0.00000  Uiso   1.00
H974   H     0.90589   0.94769   0.43603   0.00000  Uiso   1.00
H975   H     0.85096   0.93364   0.43736   0.00000  Uiso   1.00
H976   H     0.88177   0.93365   0.48169   0.00000  Uiso   1.00
H977   H     0.60891   0.50966   0.53101   0.00000  Uiso   1.00
H978   H     0.59487   0.94553   0.56401   0.00000  Uiso   1.00
H979   H     0.65001   0.93234   0.56281   0.00000  Uiso   1.00
H980   H     0.61931   0.93178   0.51842   0.00000  Uiso   1.00
H981   H     0.99034   0.89109   0.46898   0.00000  Uiso   1.00
H982   H     0.55447   0.90513   0.43599   0.00000  Uiso   1.00
H983   H     0.56766   0.84999   0.43719   0.00000  Uiso   1.00
H984   H     0.94556   0.59486   0.43598   0.00000  Uiso   1.00
H985   H     0.56822   0.88069   0.48158   0.00000  Uiso   1.00
H986   H     0.98835   0.60907   0.53100   0.00000  Uiso   1.00
H987   H     0.55231   0.59411   0.56397   0.00000  Uiso   1.00
H988   H     0.56636   0.64904   0.56264   0.00000  Uiso   1.00
H989   H     0.56635   0.61823   0.51831   0.00000  Uiso   1.00
H990   H     0.60907   0.98834   0.46900   0.00000  Uiso   1.00
H991   H     0.59410   0.55230   0.43604   0.00000  Uiso   1.00
H992   H     0.64902   0.56636   0.43739   0.00000  Uiso   1.00
H993   H     0.61821   0.56633   0.48171   0.00000  Uiso   1.00
H994   H     0.89109   0.99032   0.53101   0.00000  Uiso   1.00
H995   H     0.93236   0.64999   0.43718   0.00000  Uiso   1.00
H996   H     0.90514   0.55444   0.56402   0.00000  Uiso   1.00
H997   H     0.85001   0.56764   0.56282   0.00000  Uiso   1.00
H998   H     0.88070   0.56820   0.51843   0.00000  Uiso   1.00
H999   H     0.75970   0.85891   0.96899   0.00000  Uiso   1.00
H1000  H     0.69559   0.84485   0.93598   0.00000  Uiso   1.00
H1001  H     0.68237   0.89998   0.93718   0.00000  Uiso   1.00
H1002  H     0.68181   0.86929   0.98157   0.00000  Uiso   1.00
H1003  H     0.76164   0.64093   0.03100   0.00000  Uiso   1.00
H1004  H     0.69768   0.65589   0.06396   0.00000  Uiso   1.00
H1005  H     0.68363   0.60097   0.06262   0.00000  Uiso   1.00
H1006  H     0.93180   0.61930   0.48156   0.00000  Uiso   1.00
H1007  H     0.68365   0.63178   0.01829   0.00000  Uiso   1.00
H1008  H     0.64093   0.76163   0.96900   0.00000  Uiso   1.00
H1009  H     0.65588   0.69767   0.93603   0.00000  Uiso   1.00
H1010  H     0.60095   0.68363   0.93736   0.00000  Uiso   1.00
H1011  H     0.63176   0.68363   0.98169   0.00000  Uiso   1.00
H1012  H     0.85891   0.75968   0.03101   0.00000  Uiso   1.00
H1013  H     0.84486   0.69555   0.06401   0.00000  Uiso   1.00
H1014  H     0.90000   0.68235   0.06281   0.00000  Uiso   1.00
H1015  H     0.86930   0.68180   0.01842   0.00000  Uiso   1.00
H1016  H     0.74032   0.64109   0.96899   0.00000  Uiso   1.00
H1017  H     0.51166   0.89093   0.53100   0.00000  Uiso   1.00
H1018  H     0.80445   0.65514   0.93599   0.00000  Uiso   1.00
H1019  H     0.81765   0.60000   0.93719   0.00000  Uiso   1.00
H1020  H     0.81820   0.63070   0.98158   0.00000  Uiso   1.00
H1021  H     0.73837   0.85907   0.03100   0.00000  Uiso   1.00
H1022  H     0.80233   0.84412   0.06397   0.00000  Uiso   1.00
H1023  H     0.81637   0.89905   0.06264   0.00000  Uiso   1.00
H1024  H     0.81637   0.86824   0.01831   0.00000  Uiso   1.00
H1025  H     0.85907   0.73836   0.96900   0.00000  Uiso   1.00
H1026  H     0.84411   0.80232   0.93604   0.00000  Uiso   1.00
H1027  H     0.89903   0.81637   0.93738   0.00000  Uiso   1.00
H1028  H     0.94770   0.90590   0.56396   0.00000  Uiso   1.00
H1029  H     0.86822   0.81635   0.98170   0.00000  Uiso   1.00
H1030  H     0.64109   0.74030   0.03101   0.00000  Uiso   1.00
H1031  H     0.65515   0.80442   0.06402   0.00000  Uiso   1.00
H1032  H     0.60002   0.81763   0.06282   0.00000  Uiso   1.00
H1033  H     0.63071   0.81819   0.01843   0.00000  Uiso   1.00
H1034  H     0.93364   0.85098   0.56261   0.00000  Uiso   1.00
H1035  H     0.93367   0.88179   0.51829   0.00000  Uiso   1.00
H1036  H     0.89093   0.51165   0.46900   0.00000  Uiso   1.00
I1037  I     0.96922   0.84027   0.38445   0.00000  Uiso   1.00
I1038  I     0.71806   0.91011   0.11553   0.00000  Uiso   1.00
I1039  I     0.91011   0.71807   0.88447   0.00000  Uiso   1.00
I1040  I     0.59026   0.71920   0.11556   0.00000  Uiso   1.00
I1041  I     0.78080   0.90974   0.88444   0.00000  Uiso   1.00
I1042  I     0.78193   0.58989   0.11553   0.00000  Uiso   1.00
I1043  I     0.58989   0.78194   0.88447   0.00000  Uiso   1.00
I1044  I     0.90973   0.78079   0.11555   0.00000  Uiso   1.00
I1045  I     0.96806   0.66011   0.61553   0.00000  Uiso   1.00
I1046  I     0.66011   0.96806   0.38447   0.00000  Uiso   1.00
I1047  I     0.84027   0.96921   0.61556   0.00000  Uiso   1.00
I1048  I     0.53079   0.65973   0.38444   0.00000  Uiso   1.00
I1049  I     0.53194   0.83989   0.61553   0.00000  Uiso   1.00
I1050  I     0.83989   0.53194   0.38447   0.00000  Uiso   1.00
I1051  I     0.65973   0.53078   0.61555   0.00000  Uiso   1.00
I1052  I     0.71921   0.59027   0.88445   0.00000  Uiso   1.00
N1053  N     0.99200   0.63417   0.45969   0.00000  Uiso   1.00
N1054  N     0.74357   0.61593   0.04027   0.00000  Uiso   1.00
N1055  N     0.61593   0.74356   0.95973   0.00000  Uiso   1.00
N1056  N     0.88417   0.74199   0.04031   0.00000  Uiso   1.00
N1057  N     0.75801   0.61583   0.95969   0.00000  Uiso   1.00
N1058  N     0.75644   0.88407   0.04027   0.00000  Uiso   1.00
N1059  N     0.88407   0.75643   0.95973   0.00000  Uiso   1.00
N1060  N     0.61583   0.75799   0.04031   0.00000  Uiso   1.00
N1061  N     0.99358   0.86594   0.54027   0.00000  Uiso   1.00
N1062  N     0.86593   0.99357   0.45973   0.00000  Uiso   1.00
N1063  N     0.63417   0.99198   0.54031   0.00000  Uiso   1.00
N1064  N     0.50802   0.86583   0.45969   0.00000  Uiso   1.00
N1065  N     0.50643   0.63407   0.54027   0.00000  Uiso   1.00
N1066  N     0.63406   0.50642   0.45973   0.00000  Uiso   1.00
N1067  N     0.86583   0.50800   0.54031   0.00000  Uiso   1.00
N1068  N     0.74202   0.88417   0.95969   0.00000  Uiso   1.00
O1069  O     0.75000   0.50000   0.25000   0.00000  Uiso   1.00
O1070  O     0.75000   0.96539   0.66251   0.00000  Uiso   1.00
O1071  O     0.96539   0.75000   0.33749   0.00000  Uiso   1.00
O1072  O     0.53462   0.75000   0.66251   0.00000  Uiso   1.00
O1073  O     0.50000   0.71538   0.83749   0.00000  Uiso   1.00
O1074  O     0.50000   0.78461   0.16251   0.00000  Uiso   1.00
O1075  O     0.78462   0.50000   0.83749   0.00000  Uiso   1.00
O1076  O     0.71539   0.50000   0.16251   0.00000  Uiso   1.00
O1077  O     0.50000   0.78461   0.83749   0.00000  Uiso   1.00
O1078  O     0.50000   0.71539   0.16251   0.00000  Uiso   1.00
O1079  O     0.71539   0.50000   0.83749   0.00000  Uiso   1.00
O1080  O     0.75000   0.50000   0.75000   0.00000  Uiso   1.00
O1081  O     0.78462   0.50000   0.16251   0.00000  Uiso   1.00
O1082  O     0.70127   0.58332   0.27298   0.00000  Uiso   1.00
O1083  O     0.79874   0.91668   0.72702   0.00000  Uiso   1.00
O1084  O     0.91668   0.70126   0.27298   0.00000  Uiso   1.00
O1085  O     0.58332   0.79874   0.72702   0.00000  Uiso   1.00
O1086  O     0.79874   0.91668   0.27298   0.00000  Uiso   1.00
O1087  O     0.70127   0.58332   0.72702   0.00000  Uiso   1.00
O1088  O     0.58332   0.79874   0.27298   0.00000  Uiso   1.00
O1089  O     0.91668   0.70126   0.72702   0.00000  Uiso   1.00
O1090  O     0.70127   0.91668   0.72702   0.00000  Uiso   1.00
O1091  O     0.50000   0.75000   0.25000   0.00000  Uiso   1.00
O1092  O     0.79874   0.58332   0.27298   0.00000  Uiso   1.00
O1093  O     0.91668   0.79873   0.72702   0.00000  Uiso   1.00
O1094  O     0.58332   0.70127   0.27298   0.00000  Uiso   1.00
O1095  O     0.79874   0.58332   0.72702   0.00000  Uiso   1.00
O1096  O     0.70127   0.91668   0.27298   0.00000  Uiso   1.00
O1097  O     0.58332   0.70127   0.72702   0.00000  Uiso   1.00
O1098  O     0.91668   0.79873   0.27298   0.00000  Uiso   1.00
O1099  O     0.95127   0.83332   0.77298   0.00000  Uiso   1.00
O1100  O     0.54874   0.66668   0.22702   0.00000  Uiso   1.00
O1101  O     0.66668   0.95127   0.77298   0.00000  Uiso   1.00
O1102  O     0.50000   0.75000   0.75000   0.00000  Uiso   1.00
O1103  O     0.83332   0.54873   0.22702   0.00000  Uiso   1.00
O1104  O     0.54874   0.66668   0.77298   0.00000  Uiso   1.00
O1105  O     0.95127   0.83332   0.22702   0.00000  Uiso   1.00
O1106  O     0.83332   0.54873   0.77298   0.00000  Uiso   1.00
O1107  O     0.66668   0.95127   0.22702   0.00000  Uiso   1.00
O1108  O     0.95127   0.66668   0.22702   0.00000  Uiso   1.00
O1109  O     0.54874   0.83332   0.77298   0.00000  Uiso   1.00
O1110  O     0.66668   0.54873   0.22702   0.00000  Uiso   1.00
O1111  O     0.83332   0.95126   0.77298   0.00000  Uiso   1.00
O1112  O     0.54874   0.83332   0.22702   0.00000  Uiso   1.00
O1113  O     0.75000   0.96539   0.33749   0.00000  Uiso   1.00
O1114  O     0.95127   0.66668   0.77298   0.00000  Uiso   1.00
O1115  O     0.83332   0.95126   0.22702   0.00000  Uiso   1.00
O1116  O     0.66668   0.54873   0.77298   0.00000  Uiso   1.00
O1117  O     0.75000   0.53461   0.66251   0.00000  Uiso   1.00
O1118  O     0.53462   0.75000   0.33749   0.00000  Uiso   1.00
O1119  O     0.96539   0.75000   0.66251   0.00000  Uiso   1.00
O1120  O     0.75000   0.53461   0.33749   0.00000  Uiso   1.00
Zn1121 Zn    0.70053   0.50000   0.21730   0.00000  Uiso   1.00
Zn1122 Zn    0.54948   0.75000   0.28270   0.00000  Uiso   1.00
Zn1123 Zn    0.75000   0.95053   0.71730   0.00000  Uiso   1.00
Zn1124 Zn    0.75000   0.54947   0.28270   0.00000  Uiso   1.00
Zn1125 Zn    0.54948   0.75000   0.71730   0.00000  Uiso   1.00
Zn1126 Zn    0.95053   0.75000   0.28270   0.00000  Uiso   1.00
Zn1127 Zn    0.75000   0.54947   0.71730   0.00000  Uiso   1.00
Zn1128 Zn    0.75000   0.95053   0.28270   0.00000  Uiso   1.00
Zn1129 Zn    0.79948   0.50000   0.78270   0.00000  Uiso   1.00
Zn1130 Zn    0.50000   0.70053   0.21730   0.00000  Uiso   1.00
Zn1131 Zn    0.50000   0.79947   0.78270   0.00000  Uiso   1.00
Zn1132 Zn    0.79948   0.50000   0.21730   0.00000  Uiso   1.00
Zn1133 Zn    0.70053   0.50000   0.78270   0.00000  Uiso   1.00
Zn1134 Zn    0.50000   0.79948   0.21730   0.00000  Uiso   1.00
Zn1135 Zn    0.50000   0.70052   0.78270   0.00000  Uiso   1.00
Zn1136 Zn    0.95053   0.75000   0.71730   0.00000  Uiso   1.00
loop_
_geom_bond_atom_site_label_1
_geom_bond_atom_site_label_2
_geom_bond_distance
_geom_bond_site_symmetry_2
_ccdc_geom_bond_type
C1     C76     1.456   .     S
C1     O268    1.269   .     A
C1     O829    1.269   1_545 S
C2     O259    1.275   .     A
C2     O231    1.275   .     A
C2     C52     1.421   .     S
C3     N204    1.424   .     S
C3     C95     1.415   .     A
C3     C6      1.407   1_554 S
C4     N205    1.424   .     S
C4     C96     1.415   .     A
C4     C119    1.407   1_556 S
C5     C97     1.416   .     A
C5     N206    1.424   .     S
C5     C118    1.407   1_554 S
C6     C98     1.416   .     A
C6     N207    1.424   .     S
C6     C3      1.407   1_556 S
C7     C100    1.415   .     A
C7     N208    1.424   .     S
C7     C120    1.407   1_554 S
C8     N201    1.447   .     S
C8     H143    1.111   .     S
C8     H132    1.110   .     S
C8     H154    1.111   .     S
C9     H176    1.110   .     S
C9     N209    1.447   .     S
C9     H182    1.111   .     S
C9     H183    1.111   .     S
C10    H124    1.111   .     S
C10    N210    1.447   .     S
C10    H123    1.111   .     S
C10    H122    1.110   .     S
C11    N211    1.447   .     S
C11    H127    1.111   .     S
C11    H126    1.110   .     S
C11    H128    1.111   .     S
C12    H131    1.111   .     S
C12    N212    1.447   .     S
C12    H130    1.110   .     S
C12    H133    1.111   .     S
C13    C51     1.421   .     S
C13    O256    1.275   .     A
C13    O232    1.275   .     A
C14    H136    1.111   .     S
C14    N213    1.447   .     S
C14    H137    1.111   .     S
C14    H135    1.110   .     S
C15    N214    1.447   .     S
C15    H139    1.110   .     S
C15    H140    1.111   .     S
C15    H141    1.111   .     S
C16    H144    1.110   .     S
C16    H146    1.111   .     S
C16    H145    1.111   .     S
C16    N215    1.447   .     S
C17    H150    1.111   .     S
C17    H148    1.110   .     S
C17    N216    1.447   .     S
C17    H149    1.111   .     S
C18    H152    1.110   .     S
C18    N202    1.447   .     S
C18    H153    1.111   .     S
C18    H155    1.111   .     S
C19    N203    1.447   .     S
C19    H157    1.110   .     S
C19    H158    1.111   .     S
C19    H159    1.111   .     S
C20    H161    1.110   .     S
C20    N204    1.447   .     S
C20    H163    1.111   .     S
C20    H162    1.111   .     S
C21    H168    1.111   .     S
C21    N205    1.447   .     S
C21    H167    1.111   .     S
C21    H166    1.110   .     S
C22    N206    1.447   .     S
C22    H170    1.110   .     S
C22    H171    1.111   .     S
C22    H172    1.111   .     S
C23    H177    1.111   .     S
C23    H175    1.111   .     S
C23    H174    1.110   .     S
C23    N207    1.447   .     S
C24    O233    1.275   .     A
C24    C50     1.421   .     S
C24    O257    1.275   .     A
C25    H180    1.111   .     S
C25    N208    1.447   .     S
C25    H181    1.111   .     S
C25    H179    1.110   .     S
C26    O234    1.275   .     A
C26    C49     1.421   .     S
C26    O263    1.275   .     A
C27    C48     1.421   .     S
C27    O235    1.275   .     A
C27    O264    1.275   .     A
C28    C56     1.421   .     S
C28    O260    1.275   .     A
C28    O236    1.275   .     A
C29    O237    1.275   .     A
C29    O262    1.275   .     A
C29    C54     1.421   .     S
C30    C45     1.421   .     S
C30    O238    1.275   .     A
C30    O249    1.275   .     A
C31    O240    1.275   .     A
C31    C43     1.421   .     S
C31    O251    1.275   .     A
C32    O241    1.275   .     A
C32    O247    1.275   .     A
C32    C42     1.421   .     S
C33    O786    1.269   1_545 A
C33    C78     1.456   .     S
C33    O265    1.269   .     S
C34    O242    1.275   .     A
C34    C41     1.421   .     S
C34    O248    1.275   .     A
C35    O243    1.275   .     A
C35    O254    1.275   .     A
C35    C40     1.421   .     S
C36    O255    1.275   .     A
C36    O244    1.275   .     A
C36    C39     1.421   .     S
C37    O245    1.275   .     A
C37    C47     1.421   .     S
C37    O252    1.275   .     A
C38    O246    1.275   .     A
C38    C46     1.421   .     S
C38    O253    1.275   .     A
C39    C56     1.198   .     T
C40    C54     1.198   .     T
C41    C53     1.198   .     T
C42    C52     1.198   .     T
C43    C51     1.198   .     T
C44    O266    1.269   .     A
C44    C74     1.456   .     S
C44    O503    1.269   1_455 S
C45    C50     1.198   .     T
C46    C49     1.198   .     T
C47    C48     1.198   .     T
C53    C110    1.421   .     S
C55    O551    1.269   1_455 A
C55    C75     1.456   .     S
C55    O220    1.269   .     S
C57    I185    2.164   .     S
C57    C87     1.418   .     A
C57    C358    1.401   .     S
C58    C359    1.401   .     A
C58    I193    2.164   .     S
C58    C89     1.418   .     A
C59    I194    2.164   .     S
C59    C90     1.418   .     A
C59    C644    1.401   .     S
C60    C646    1.401   .     A
C60    C91     1.418   .     A
C60    I195    2.164   .     S
C61    C83     1.418   .     A
C61    I196    2.164   .     S
C61    C74     1.401   .     A
C62    C84     1.418   .     A
C62    I197    2.164   .     S
C62    C75     1.401   .     S
C63    I198    2.164   .     S
C63    C76     1.401   .     A
C63    C85     1.418   .     A
C64    C86     1.418   .     A
C64    I199    2.164   .     S
C64    C78     1.401   .     S
C65    C79     1.401   .     A
C65    C96     1.418   .     A
C65    I200    2.164   .     S
C66    C81     1.456   .     S
C66    O221    1.269   .     S
C66    O225    1.269   .     S
C67    I186    2.164   .     S
C67    C97     1.418   .     A
C67    C648    1.401   .     S
C68    C365    1.401   .     A
C68    I187    2.164   .     S
C68    C98     1.418   .     A
C69    I188    2.164   .     S
C69    C100    1.418   .     A
C69    C82     1.401   .     S
C70    C92     1.418   .     A
C70    I189    2.164   .     S
C70    C647    1.401   .     S
C71    C80     1.401   .     A
C71    C93     1.418   .     A
C71    I190    2.164   .     S
C72    I191    2.164   .     S
C72    C94     1.418   .     A
C72    C81     1.401   .     S
C73    C95     1.418   .     A
C73    C366    1.401   .     A
C73    I192    2.164   .     S
C74    C341    1.401   1_455 S
C75    C342    1.401   1_455 A
C76    C627    1.401   1_545 S
C77    O222    1.269   .     A
C77    C82     1.456   .     S
C77    O226    1.269   .     S
C78    C628    1.401   1_545 A
C79    C88     1.456   .     S
C79    C638    1.401   1_545 S
C80    C635    1.401   1_545 S
C80    C99     1.456   .     S
C81    C352    1.401   1_455 A
C82    C357    1.401   1_455 A
C83    C101    1.424   .     A
C83    C393    1.415   1_455 S
C84    C102    1.424   .     A
C84    C111    1.416   .     A
C85    C112    1.416   .     A
C85    C103    1.424   .     S
C86    C104    1.424   .     S
C86    C681    1.415   1_545 S
C87    C385    1.424   .     S
C87    C398    1.415   .     S
C88    O227    1.269   .     A
C88    O223    1.269   .     A
C89    C115    1.416   .     A
C89    C386    1.424   .     S
C90    C116    1.416   .     A
C90    C671    1.424   .     A
C91    C672    1.424   .     A
C91    C685    1.415   .     S
C92    C118    1.415   .     A
C92    C673    1.424   .     S
C93    C106    1.424   .     A
C93    C119    1.416   .     A
C94    C120    1.416   .     A
C94    C107    1.424   .     S
C95    C392    1.424   .     A
C96    C105    1.424   .     A
C97    C674    1.424   .     S
C98    C391    1.424   .     A
C99    O224    1.269   .     S
C99    O229    1.269   .     S
C100   C108    1.424   .     S
C101   C102    1.418   .     A
C101   C371    1.424   1_455 S
C102   C373    1.424   1_455 S
C103   C658    1.424   1_545 A
C103   C104    1.418   .     A
C104   C659    1.424   1_545 A
C105   C660    1.424   1_545 S
C105   C106    1.418   1_556 S
C106   C665    1.424   1_545 S
C106   C105    1.418   1_554 S
C107   C382    1.424   1_455 A
C107   C108    1.418   1_556 S
C108   C379    1.424   1_455 A
C108   C107    1.418   1_554 S
C109   N201    1.424   .     S
C109   C115    1.407   .     A
C109   C367    1.415   .     S
C110   O258    1.275   .     A
C110   O230    1.275   .     A
C111   C114    1.407   .     A
C111   N493    1.424   1_455 S
C112   C117    1.407   .     A
C112   N778    1.424   1_545 S
C113   C116    1.407   .     A
C113   N211    1.424   .     S
C113   C654    1.415   .     S
C114   N212    1.424   .     S
C114   C371    1.415   1_455 S
C115   N497    1.424   .     S
C116   N782    1.424   .     S
C117   N215    1.424   .     S
C117   C659    1.415   1_545 S
C118   N216    1.424   .     S
C118   C5      1.407   1_556 S
C119   N202    1.424   .     S
C119   C4      1.407   1_554 S
C120   N203    1.424   .     S
C120   C7      1.407   1_556 S
H121   N485    1.031   1_455 S
H125   N779    1.031   1_545 S
H129   N496    1.031   .     S
H134   N497    1.031   .     S
H138   N782    1.031   .     S
H142   N783    1.031   .     S
H147   N216    1.031   .     S
H151   N202    1.031   .     S
H156   N203    1.031   .     S
H160   N204    1.031   .     S
H164   N205    1.031   .     S
H165   N493    1.031   1_455 S
H169   N206    1.031   .     S
H173   N207    1.031   .     S
H178   N208    1.031   .     S
H184   N778    1.031   1_545 S
N201   H405    1.031   .     S
N209   H449    1.031   .     S
N209   C395    1.424   .     S
N210   C680    1.424   .     S
N210   H752    1.031   .     S
N211   H693    1.031   .     S
N212   H413    1.031   1_455 S
N213   C399    1.424   1_455 S
N213   H418    1.031   1_455 S
N214   C684    1.424   1_545 S
N214   H706    1.031   1_545 S
N215   H710    1.031   1_545 S
O217   Zn280   1.934   .     S
O217   Zn272   1.934   .     S
O217   Zn269   1.934   .     S
O217   Zn844   1.934   1_545 S
O218   C601    1.269   .     A
O218   Zn271   1.946   .     S
O219   Zn274   1.946   .     S
O219   C328    1.269   .     S
O220   Zn273   1.946   .     S
O221   Zn283   1.946   .     S
O222   Zn282   1.946   .     S
O223   Zn277   1.946   .     S
O224   Zn269   1.946   .     S
O225   Zn279   1.946   .     S
O226   Zn278   1.946   .     S
O227   Zn281   1.946   .     S
O228   Zn839   1.934   1_545 S
O228   Zn275   1.934   .     S
O228   Zn277   1.934   .     S
O228   Zn281   1.934   .     S
O229   Zn280   1.946   .     S
O230   Zn272   1.914   .     S
O231   Zn271   1.914   .     S
O232   Zn274   1.914   .     S
O233   Zn273   1.914   .     S
O234   Zn276   1.914   .     S
O235   Zn275   1.914   .     S
O236   Zn270   1.914   .     S
O237   Zn284   1.914   .     S
O238   Zn271   1.914   .     S
O239   Zn278   1.934   .     S
O239   Zn282   1.934   .     S
O239   Zn270   1.934   .     S
O239   Zn558   1.934   1_455 S
O240   Zn272   1.914   .     S
O241   Zn284   1.914   .     S
O242   Zn270   1.914   .     S
O243   Zn275   1.914   .     S
O244   Zn276   1.914   .     S
O245   Zn273   1.914   .     S
O246   Zn274   1.914   .     S
O247   Zn563   1.914   .     S
O248   Zn278   1.914   .     S
O249   Zn849   1.914   .     S
O250   Zn283   1.934   .     S
O250   Zn568   1.934   1_455 S
O250   Zn279   1.934   .     S
O250   Zn273   1.934   .     S
O251   Zn280   1.914   .     S
O252   Zn283   1.914   .     S
O253   Zn566   1.914   .     S
O254   Zn277   1.914   .     S
O255   Zn837   1.914   .     S
O256   Zn562   1.914   .     S
O257   Zn279   1.914   .     S
O258   Zn269   1.914   .     S
O259   Zn845   1.914   .     S
O260   Zn282   1.914   .     S
O261   Zn276   1.946   .     S
O261   C569    1.269   .     S
O262   Zn567   1.914   .     S
O263   Zn848   1.914   .     S
O264   Zn281   1.914   .     S
O265   Zn275   1.946   .     S
O266   Zn270   1.946   .     S
O267   C339    1.269   .     A
O267   Zn284   1.946   .     S
O268   Zn272   1.946   .     S
Zn269  O823    1.914   1_545 S
Zn271  O796    1.934   .     S
Zn274  O523    1.934   .     S
Zn276  O785    1.934   .     S
Zn277  O827    1.914   1_545 S
Zn278  O540    1.914   1_455 S
Zn279  O531    1.914   1_455 S
Zn280  O831    1.914   1_545 S
Zn281  O817    1.914   1_545 S
Zn282  O537    1.914   1_455 S
Zn283  O546    1.914   1_455 S
Zn284  O534    1.934   .     S
C285   C360    1.456   .     S
C285   O552    1.269   .     A
C285   O1113   1.269   1_545 S
C286   O543    1.275   .     A
C286   O515    1.275   .     A
C286   C336    1.421   .     S
C287   N488    1.424   .     S
C287   C379    1.415   .     A
C287   C290    1.407   1_554 S
C288   N489    1.424   .     S
C288   C380    1.415   .     A
C288   C403    1.407   1_556 S
C289   C381    1.416   .     A
C289   N490    1.424   .     S
C289   C402    1.407   1_554 S
C290   C382    1.416   .     A
C290   N491    1.424   .     S
C290   C287    1.407   1_556 S
C291   C384    1.415   .     A
C291   N492    1.424   .     S
C291   C404    1.407   1_554 S
C292   N485    1.447   .     S
C292   H427    1.111   .     S
C292   H416    1.110   .     S
C292   H438    1.111   .     S
C293   H460    1.110   .     S
C293   N493    1.447   .     S
C293   H466    1.111   .     S
C293   H467    1.111   .     S
C294   H408    1.111   .     S
C294   N494    1.447   .     S
C294   H407    1.111   .     S
C294   H406    1.110   .     S
C295   N495    1.447   .     S
C295   H411    1.111   .     S
C295   H410    1.110   .     S
C295   H412    1.111   .     S
C296   H415    1.111   .     S
C296   N496    1.447   .     S
C296   H414    1.110   .     S
C296   H417    1.111   .     S
C297   C335    1.421   .     S
C297   O540    1.275   .     A
C297   O516    1.275   .     A
C298   H420    1.111   .     S
C298   N497    1.447   .     S
C298   H421    1.111   .     S
C298   H419    1.110   .     S
C299   N498    1.447   .     S
C299   H423    1.110   .     S
C299   H424    1.111   .     S
C299   H425    1.111   .     S
C300   H428    1.110   .     S
C300   H430    1.111   .     S
C300   H429    1.111   .     S
C300   N499    1.447   .     S
C301   H434    1.111   .     S
C301   H432    1.110   .     S
C301   N500    1.447   .     S
C301   H433    1.111   .     S
C302   H436    1.110   .     S
C302   N486    1.447   .     S
C302   H437    1.111   .     S
C302   H439    1.111   .     S
C303   N487    1.447   .     S
C303   H441    1.110   .     S
C303   H442    1.111   .     S
C303   H443    1.111   .     S
C304   H445    1.110   .     S
C304   N488    1.447   .     S
C304   H447    1.111   .     S
C304   H446    1.111   .     S
C305   H452    1.111   .     S
C305   N489    1.447   .     S
C305   H451    1.111   .     S
C305   H450    1.110   .     S
C306   N490    1.447   .     S
C306   H454    1.110   .     S
C306   H455    1.111   .     S
C306   H456    1.111   .     S
C307   H461    1.111   .     S
C307   H459    1.111   .     S
C307   H458    1.110   .     S
C307   N491    1.447   .     S
C308   O517    1.275   .     A
C308   C334    1.421   .     S
C308   O541    1.275   .     A
C309   H464    1.111   .     S
C309   N492    1.447   .     S
C309   H465    1.111   .     S
C309   H463    1.110   .     S
C310   O518    1.275   .     A
C310   C333    1.421   .     S
C310   O547    1.275   .     A
C311   C332    1.421   .     S
C311   O519    1.275   .     A
C311   O548    1.275   .     A
C312   C340    1.421   .     S
C312   O544    1.275   .     A
C312   O520    1.275   .     A
C313   O521    1.275   .     A
C313   O546    1.275   .     A
C313   C338    1.421   .     S
C314   C329    1.421   .     S
C314   O522    1.275   .     A
C314   O533    1.275   .     A
C315   O524    1.275   .     A
C315   C327    1.421   .     S
C315   O535    1.275   .     A
C316   O525    1.275   .     A
C316   O531    1.275   .     A
C316   C326    1.421   .     S
C317   O1070   1.269   1_545 A
C317   C362    1.456   .     S
C317   O549    1.269   .     S
C318   O526    1.275   .     A
C318   C325    1.421   .     S
C318   O532    1.275   .     A
C319   O527    1.275   .     A
C319   O538    1.275   .     A
C319   C324    1.421   .     S
C320   O539    1.275   .     A
C320   O528    1.275   .     A
C320   C323    1.421   .     S
C321   O529    1.275   .     A
C321   C331    1.421   .     S
C321   O536    1.275   .     A
C322   O530    1.275   .     A
C322   C330    1.421   .     S
C322   O537    1.275   .     A
C323   C340    1.198   .     T
C324   C338    1.198   .     T
C325   C337    1.198   .     T
C326   C336    1.198   .     T
C327   C335    1.198   .     T
C328   O550    1.269   .     A
C328   C358    1.456   .     S
C329   C334    1.198   .     T
C330   C333    1.198   .     T
C331   C332    1.198   .     T
C337   C394    1.421   .     S
C339   C359    1.456   .     S
C339   O504    1.269   .     S
C341   I469    2.164   .     S
C341   C371    1.418   .     A
C341   C74     1.401   1_655 S
C342   C75     1.401   1_655 A
C342   I477    2.164   .     S
C342   C373    1.418   .     A
C343   I478    2.164   .     S
C343   C374    1.418   .     A
C343   C928    1.401   .     S
C344   C930    1.401   .     A
C344   C375    1.418   .     A
C344   I479    2.164   .     S
C345   C367    1.418   .     A
C345   I480    2.164   .     S
C345   C358    1.401   .     A
C346   C368    1.418   .     A
C346   I481    2.164   .     S
C346   C359    1.401   .     S
C347   I482    2.164   .     S
C347   C360    1.401   .     A
C347   C369    1.418   .     A
C348   C370    1.418   .     A
C348   I483    2.164   .     S
C348   C362    1.401   .     S
C349   C363    1.401   .     A
C349   C380    1.418   .     A
C349   I484    2.164   .     S
C350   C365    1.456   .     S
C350   O505    1.269   .     S
C350   O509    1.269   .     S
C351   I470    2.164   .     S
C351   C381    1.418   .     A
C351   C932    1.401   .     S
C352   C81     1.401   1_655 A
C352   I471    2.164   .     S
C352   C382    1.418   .     A
C353   I472    2.164   .     S
C353   C384    1.418   .     A
C353   C366    1.401   .     S
C354   C376    1.418   .     A
C354   I473    2.164   .     S
C354   C931    1.401   .     S
C355   C364    1.401   .     A
C355   C377    1.418   .     A
C355   I474    2.164   .     S
C356   I475    2.164   .     S
C356   C378    1.418   .     A
C356   C365    1.401   .     S
C357   C379    1.418   .     A
C357   C82     1.401   1_655 A
C357   I476    2.164   .     S
C360   C911    1.401   1_545 S
C361   O506    1.269   .     A
C361   C366    1.456   .     S
C361   O510    1.269   .     S
C362   C912    1.401   1_545 A
C363   C372    1.456   .     S
C363   C922    1.401   1_545 S
C364   C919    1.401   1_545 S
C364   C383    1.456   .     S
C367   C385    1.424   .     A
C368   C386    1.424   .     A
C368   C395    1.416   .     A
C369   C396    1.416   .     A
C369   C387    1.424   .     S
C370   C388    1.424   .     S
C370   C965    1.415   1_545 S
C371   C101    1.424   1_655 S
C371   C114    1.415   1_655 S
C372   O511    1.269   .     A
C372   O507    1.269   .     A
C373   C399    1.416   .     A
C373   C102    1.424   1_655 S
C374   C400    1.416   .     A
C374   C955    1.424   .     A
C375   C956    1.424   .     A
C375   C969    1.415   .     S
C376   C402    1.415   .     A
C376   C957    1.424   .     S
C377   C390    1.424   .     A
C377   C403    1.416   .     A
C378   C404    1.416   .     A
C378   C391    1.424   .     S
C379   C108    1.424   1_655 A
C380   C389    1.424   .     A
C381   C958    1.424   .     S
C382   C107    1.424   1_655 A
C383   O508    1.269   .     S
C383   O513    1.269   .     S
C384   C392    1.424   .     S
C385   C386    1.418   .     A
C387   C942    1.424   1_545 A
C387   C388    1.418   .     A
C388   C943    1.424   1_545 A
C389   C944    1.424   1_545 S
C389   C390    1.418   1_556 S
C390   C949    1.424   1_545 S
C390   C389    1.418   1_554 S
C391   C392    1.418   1_556 S
C392   C391    1.418   1_554 S
C393   N485    1.424   .     S
C393   C399    1.407   .     A
C393   C83     1.415   1_655 S
C394   O542    1.275   .     A
C394   O514    1.275   .     A
C395   C398    1.407   .     A
C396   C401    1.407   .     A
C396   N1062   1.424   1_545 S
C397   C400    1.407   .     A
C397   N495    1.424   .     S
C397   C938    1.415   .     S
C398   N496    1.424   .     S
C399   N213    1.424   1_655 S
C400   N1066   1.424   .     S
C401   N499    1.424   .     S
C401   C943    1.415   1_545 S
C402   N500    1.424   .     S
C402   C289    1.407   1_556 S
C403   N486    1.424   .     S
C403   C288    1.407   1_554 S
C404   N487    1.424   .     S
C404   C291    1.407   1_556 S
H409   N1063   1.031   1_545 S
H413   N212    1.031   1_655 S
H418   N213    1.031   1_655 S
H422   N1066   1.031   .     S
H426   N1067   1.031   .     S
H431   N500    1.031   .     S
H435   N486    1.031   .     S
H440   N487    1.031   .     S
H444   N488    1.031   .     S
H448   N489    1.031   .     S
H453   N490    1.031   .     S
H457   N491    1.031   .     S
H462   N492    1.031   .     S
H468   N1062   1.031   1_545 S
N485   H121    1.031   1_655 S
N493   H165    1.031   1_655 S
N493   C111    1.424   1_655 S
N494   C964    1.424   .     S
N494   H1036   1.031   .     S
N495   H977    1.031   .     S
N498   C968    1.424   1_545 S
N498   H990    1.031   1_545 S
N499   H994    1.031   1_545 S
O501   Zn564   1.934   .     S
O501   Zn556   1.934   .     S
O501   Zn553   1.934   .     S
O501   Zn1128  1.934   1_545 S
O502   C885    1.269   .     A
O502   Zn555   1.946   .     S
O503   Zn558   1.946   .     S
O503   C44     1.269   1_655 S
O504   Zn557   1.946   .     S
O505   Zn567   1.946   .     S
O506   Zn566   1.946   .     S
O507   Zn561   1.946   .     S
O508   Zn553   1.946   .     S
O509   Zn563   1.946   .     S
O510   Zn562   1.946   .     S
O511   Zn565   1.946   .     S
O512   Zn1123  1.934   1_545 S
O512   Zn559   1.934   .     S
O512   Zn561   1.934   .     S
O512   Zn565   1.934   .     S
O513   Zn564   1.946   .     S
O514   Zn556   1.914   .     S
O515   Zn555   1.914   .     S
O516   Zn558   1.914   .     S
O517   Zn557   1.914   .     S
O518   Zn560   1.914   .     S
O519   Zn559   1.914   .     S
O520   Zn554   1.914   .     S
O521   Zn568   1.914   .     S
O522   Zn555   1.914   .     S
O523   Zn562   1.934   .     S
O523   Zn566   1.934   .     S
O523   Zn554   1.934   .     S
O524   Zn556   1.914   .     S
O525   Zn568   1.914   .     S
O526   Zn554   1.914   .     S
O527   Zn559   1.914   .     S
O528   Zn560   1.914   .     S
O529   Zn557   1.914   .     S
O530   Zn558   1.914   .     S
O531   Zn279   1.914   1_655 S
O532   Zn562   1.914   .     S
O533   Zn1133  1.914   .     S
O534   Zn567   1.934   .     S
O534   Zn563   1.934   .     S
O534   Zn557   1.934   .     S
O535   Zn564   1.914   .     S
O536   Zn567   1.914   .     S
O537   Zn282   1.914   1_655 S
O538   Zn561   1.914   .     S
O539   Zn1121  1.914   .     S
O540   Zn278   1.914   1_655 S
O541   Zn563   1.914   .     S
O542   Zn553   1.914   .     S
O543   Zn1129  1.914   .     S
O544   Zn566   1.914   .     S
O545   Zn560   1.946   .     S
O545   C853    1.269   .     S
O546   Zn283   1.914   1_655 S
O547   Zn1132  1.914   .     S
O548   Zn565   1.914   .     S
O549   Zn559   1.946   .     S
O550   Zn554   1.946   .     S
O551   C55     1.269   1_655 A
O551   Zn568   1.946   .     S
O552   Zn556   1.946   .     S
Zn553  O1107   1.914   1_545 S
Zn555  O1080   1.934   .     S
Zn558  O239    1.934   1_655 S
Zn560  O1069   1.934   .     S
Zn561  O1111   1.914   1_545 S
Zn564  O1115   1.914   1_545 S
Zn565  O1101   1.914   1_545 S
Zn568  O250    1.934   1_655 S
C569   C644    1.456   .     S
C569   O836    1.269   .     A
C570   O827    1.275   .     A
C570   O799    1.275   .     A
C570   C620    1.421   .     S
C571   N772    1.424   .     S
C571   C663    1.415   .     A
C571   C574    1.407   1_554 S
C572   N773    1.424   .     S
C572   C664    1.415   .     A
C572   C687    1.407   1_556 S
C573   C665    1.416   .     A
C573   N774    1.424   .     S
C573   C686    1.407   1_554 S
C574   C666    1.416   .     A
C574   N775    1.424   .     S
C574   C571    1.407   1_556 S
C575   C668    1.415   .     A
C575   N776    1.424   .     S
C575   C688    1.407   1_554 S
C576   N769    1.447   .     S
C576   H711    1.111   .     S
C576   H700    1.110   .     S
C576   H722    1.111   .     S
C577   H744    1.110   .     S
C577   N777    1.447   .     S
C577   H750    1.111   .     S
C577   H751    1.111   .     S
C578   H692    1.111   .     S
C578   N778    1.447   .     S
C578   H691    1.111   .     S
C578   H690    1.110   .     S
C579   N779    1.447   .     S
C579   H695    1.111   .     S
C579   H694    1.110   .     S
C579   H696    1.111   .     S
C580   H699    1.111   .     S
C580   N780    1.447   .     S
C580   H698    1.110   .     S
C580   H701    1.111   .     S
C581   C619    1.421   .     S
C581   O824    1.275   .     A
C581   O800    1.275   .     A
C582   H704    1.111   .     S
C582   N781    1.447   .     S
C582   H705    1.111   .     S
C582   H703    1.110   .     S
C583   N782    1.447   .     S
C583   H707    1.110   .     S
C583   H708    1.111   .     S
C583   H709    1.111   .     S
C584   H712    1.110   .     S
C584   H714    1.111   .     S
C584   H713    1.111   .     S
C584   N783    1.447   .     S
C585   H718    1.111   .     S
C585   H716    1.110   .     S
C585   N784    1.447   .     S
C585   H717    1.111   .     S
C586   H720    1.110   .     S
C586   N770    1.447   .     S
C586   H721    1.111   .     S
C586   H723    1.111   .     S
C587   N771    1.447   .     S
C587   H725    1.110   .     S
C587   H726    1.111   .     S
C587   H727    1.111   .     S
C588   H729    1.110   .     S
C588   N772    1.447   .     S
C588   H731    1.111   .     S
C588   H730    1.111   .     S
C589   H736    1.111   .     S
C589   N773    1.447   .     S
C589   H735    1.111   .     S
C589   H734    1.110   .     S
C590   N774    1.447   .     S
C590   H738    1.110   .     S
C590   H739    1.111   .     S
C590   H740    1.111   .     S
C591   H745    1.111   .     S
C591   H743    1.111   .     S
C591   H742    1.110   .     S
C591   N775    1.447   .     S
C592   O801    1.275   .     A
C592   C618    1.421   .     S
C592   O825    1.275   .     A
C593   H748    1.111   .     S
C593   N776    1.447   .     S
C593   H749    1.111   .     S
C593   H747    1.110   .     S
C594   O802    1.275   .     A
C594   C617    1.421   .     S
C594   O831    1.275   .     A
C595   C616    1.421   .     S
C595   O803    1.275   .     A
C595   O832    1.275   .     A
C596   C624    1.421   .     S
C596   O828    1.275   .     A
C596   O804    1.275   .     A
C597   O805    1.275   .     A
C597   O830    1.275   .     A
C597   C622    1.421   .     S
C598   C613    1.421   .     S
C598   O806    1.275   .     A
C598   O817    1.275   .     A
C599   O808    1.275   .     A
C599   C611    1.421   .     S
C599   O819    1.275   .     A
C600   O809    1.275   .     A
C600   O815    1.275   .     A
C600   C610    1.421   .     S
C601   C646    1.456   .     S
C601   O833    1.269   .     S
C602   O810    1.275   .     A
C602   C609    1.421   .     S
C602   O816    1.275   .     A
C603   O811    1.275   .     A
C603   O822    1.275   .     A
C603   C608    1.421   .     S
C604   O823    1.275   .     A
C604   O812    1.275   .     A
C604   C607    1.421   .     S
C605   O813    1.275   .     A
C605   C615    1.421   .     S
C605   O820    1.275   .     A
C606   O814    1.275   .     A
C606   C614    1.421   .     S
C606   O821    1.275   .     A
C607   C624    1.198   .     T
C608   C622    1.198   .     T
C609   C621    1.198   .     T
C610   C620    1.198   .     T
C611   C619    1.198   .     T
C612   O834    1.269   .     A
C612   C642    1.456   .     S
C612   O1071   1.269   1_455 S
C613   C618    1.198   .     T
C614   C617    1.198   .     T
C615   C616    1.198   .     T
C621   C678    1.421   .     S
C623   O1119   1.269   1_455 A
C623   C643    1.456   .     S
C623   O788    1.269   .     S
C625   I753    2.164   .     S
C625   C655    1.418   .     A
C625   C926    1.401   .     S
C626   C927    1.401   .     A
C626   I761    2.164   .     S
C626   C657    1.418   .     A
C627   I762    2.164   .     S
C627   C658    1.418   .     A
C627   C76     1.401   1_565 S
C628   C78     1.401   1_565 A
C628   C659    1.418   .     A
C628   I763    2.164   .     S
C629   C651    1.418   .     A
C629   I764    2.164   .     S
C629   C642    1.401   .     A
C630   C652    1.418   .     A
C630   I765    2.164   .     S
C630   C643    1.401   .     S
C631   I766    2.164   .     S
C631   C644    1.401   .     A
C631   C653    1.418   .     A
C632   C654    1.418   .     A
C632   I767    2.164   .     S
C632   C646    1.401   .     S
C633   C647    1.401   .     A
C633   C664    1.418   .     A
C633   I768    2.164   .     S
C634   C649    1.456   .     S
C634   O789    1.269   .     S
C634   O793    1.269   .     S
C635   I754    2.164   .     S
C635   C665    1.418   .     A
C635   C80     1.401   1_565 S
C636   C933    1.401   .     A
C636   I755    2.164   .     S
C636   C666    1.418   .     A
C637   I756    2.164   .     S
C637   C668    1.418   .     A
C637   C650    1.401   .     S
C638   C660    1.418   .     A
C638   I757    2.164   .     S
C638   C79     1.401   1_565 S
C639   C648    1.401   .     A
C639   C661    1.418   .     A
C639   I758    2.164   .     S
C640   I759    2.164   .     S
C640   C662    1.418   .     A
C640   C649    1.401   .     S
C641   C663    1.418   .     A
C641   C934    1.401   .     A
C641   I760    2.164   .     S
C642   C909    1.401   1_455 S
C643   C910    1.401   1_455 A
C645   O790    1.269   .     A
C645   C650    1.456   .     S
C645   O794    1.269   .     S
C647   C656    1.456   .     S
C648   C667    1.456   .     S
C649   C920    1.401   1_455 A
C650   C925    1.401   1_455 A
C651   C669    1.424   .     A
C651   C961    1.415   1_455 S
C652   C670    1.424   .     A
C652   C679    1.416   .     A
C653   C680    1.416   .     A
C653   C671    1.424   .     S
C654   C672    1.424   .     S
C655   C953    1.424   .     S
C655   C966    1.415   .     S
C656   O795    1.269   .     A
C656   O791    1.269   .     A
C657   C683    1.416   .     A
C657   C954    1.424   .     S
C658   C684    1.416   .     A
C658   C103    1.424   1_565 A
C659   C104    1.424   1_565 A
C659   C117    1.415   1_565 S
C660   C686    1.415   .     A
C660   C105    1.424   1_565 S
C661   C674    1.424   .     A
C661   C687    1.416   .     A
C662   C688    1.416   .     A
C662   C675    1.424   .     S
C663   C960    1.424   .     A
C664   C673    1.424   .     A
C665   C106    1.424   1_565 S
C666   C959    1.424   .     A
C667   O792    1.269   .     S
C667   O797    1.269   .     S
C668   C676    1.424   .     S
C669   C670    1.418   .     A
C669   C939    1.424   1_455 S
C670   C941    1.424   1_455 S
C671   C672    1.418   .     A
C673   C674    1.418   1_556 S
C674   C673    1.418   1_554 S
C675   C950    1.424   1_455 A
C675   C676    1.418   1_556 S
C676   C947    1.424   1_455 A
C676   C675    1.418   1_554 S
C677   N769    1.424   .     S
C677   C683    1.407   .     A
C677   C935    1.415   .     S
C678   O826    1.275   .     A
C678   O798    1.275   .     A
C679   C682    1.407   .     A
C679   N1061   1.424   1_455 S
C680   C685    1.407   .     A
C681   C684    1.407   .     A
C681   N779    1.424   .     S
C681   C86     1.415   1_565 S
C682   N780    1.424   .     S
C682   C939    1.415   1_455 S
C683   N1065   1.424   .     S
C684   N214    1.424   1_565 S
C685   N783    1.424   .     S
C686   N784    1.424   .     S
C686   C573    1.407   1_556 S
C687   N770    1.424   .     S
C687   C572    1.407   1_554 S
C688   N771    1.424   .     S
C688   C575    1.407   1_556 S
H689   N1053   1.031   1_455 S
H697   N1064   1.031   .     S
H702   N1065   1.031   .     S
H706   N214    1.031   1_565 S
H710   N215    1.031   1_565 S
H715   N784    1.031   .     S
H719   N770    1.031   .     S
H724   N771    1.031   .     S
H728   N772    1.031   .     S
H732   N773    1.031   .     S
H733   N1061   1.031   1_455 S
H737   N774    1.031   .     S
H741   N775    1.031   .     S
H746   N776    1.031   .     S
N769   H973    1.031   .     S
N777   H1017   1.031   .     S
N777   C963    1.424   .     S
N778   C112    1.424   1_565 S
N778   H184    1.031   1_565 S
N779   H125    1.031   1_565 S
N780   H981    1.031   1_455 S
N781   C967    1.424   1_455 S
N781   H986    1.031   1_455 S
O785   Zn848   1.934   .     S
O785   Zn840   1.934   .     S
O785   Zn837   1.934   .     S
O786   C33     1.269   1_565 A
O786   Zn839   1.946   .     S
O787   Zn842   1.946   .     S
O787   C896    1.269   .     S
O788   Zn841   1.946   .     S
O789   Zn851   1.946   .     S
O790   Zn850   1.946   .     S
O791   Zn845   1.946   .     S
O792   Zn837   1.946   .     S
O793   Zn847   1.946   .     S
O794   Zn846   1.946   .     S
O795   Zn849   1.946   .     S
O796   Zn843   1.934   .     S
O796   Zn845   1.934   .     S
O796   Zn849   1.934   .     S
O797   Zn848   1.946   .     S
O798   Zn840   1.914   .     S
O799   Zn839   1.914   .     S
O800   Zn842   1.914   .     S
O801   Zn841   1.914   .     S
O802   Zn844   1.914   .     S
O803   Zn843   1.914   .     S
O804   Zn838   1.914   .     S
O805   Zn852   1.914   .     S
O806   Zn839   1.914   .     S
O807   Zn846   1.934   .     S
O807   Zn850   1.934   .     S
O807   Zn838   1.934   .     S
O807   Zn1126  1.934   1_455 S
O808   Zn840   1.914   .     S
O809   Zn852   1.914   .     S
O810   Zn838   1.914   .     S
O811   Zn843   1.914   .     S
O812   Zn844   1.914   .     S
O813   Zn841   1.914   .     S
O814   Zn842   1.914   .     S
O815   Zn1131  1.914   .     S
O816   Zn846   1.914   .     S
O817   Zn281   1.914   1_565 S
O818   Zn851   1.934   .     S
O818   Zn1136  1.934   1_455 S
O818   Zn847   1.934   .     S
O818   Zn841   1.934   .     S
O819   Zn848   1.914   .     S
O820   Zn851   1.914   .     S
O821   Zn1134  1.914   .     S
O822   Zn845   1.914   .     S
O823   Zn269   1.914   1_565 S
O824   Zn1130  1.914   .     S
O825   Zn847   1.914   .     S
O826   Zn837   1.914   .     S
O827   Zn277   1.914   1_565 S
O828   Zn850   1.914   .     S
O829   Zn844   1.946   .     S
O829   C1      1.269   1_565 S
O830   Zn1135  1.914   .     S
O831   Zn280   1.914   1_565 S
O832   Zn849   1.914   .     S
O833   Zn843   1.946   .     S
O834   Zn838   1.946   .     S
O835   C907    1.269   .     A
O835   Zn852   1.946   .     S
O836   Zn840   1.946   .     S
Zn839  O228    1.934   1_565 S
Zn842  O1091   1.934   .     S
Zn844  O217    1.934   1_565 S
Zn846  O1108   1.914   1_455 S
Zn847  O1099   1.914   1_455 S
Zn850  O1105   1.914   1_455 S
Zn851  O1114   1.914   1_455 S
Zn852  O1102   1.934   .     S
C853   C928    1.456   .     S
C853   O1120   1.269   .     A
C854   O1111   1.275   .     A
C854   O1083   1.275   .     A
C854   C904    1.421   .     S
C855   N1056   1.424   .     S
C855   C947    1.415   .     A
C855   C858    1.407   1_554 S
C856   N1057   1.424   .     S
C856   C948    1.415   .     A
C856   C971    1.407   1_556 S
C857   C949    1.416   .     A
C857   N1058   1.424   .     S
C857   C970    1.407   1_554 S
C858   C950    1.416   .     A
C858   N1059   1.424   .     S
C858   C855    1.407   1_556 S
C859   C952    1.415   .     A
C859   N1060   1.424   .     S
C859   C972    1.407   1_554 S
C860   N1053   1.447   .     S
C860   H995    1.111   .     S
C860   H984    1.110   .     S
C860   H1006   1.111   .     S
C861   H1028   1.110   .     S
C861   N1061   1.447   .     S
C861   H1034   1.111   .     S
C861   H1035   1.111   .     S
C862   H976    1.111   .     S
C862   N1062   1.447   .     S
C862   H975    1.111   .     S
C862   H974    1.110   .     S
C863   N1063   1.447   .     S
C863   H979    1.111   .     S
C863   H978    1.110   .     S
C863   H980    1.111   .     S
C864   H983    1.111   .     S
C864   N1064   1.447   .     S
C864   H982    1.110   .     S
C864   H985    1.111   .     S
C865   C903    1.421   .     S
C865   O1108   1.275   .     A
C865   O1084   1.275   .     A
C866   H988    1.111   .     S
C866   N1065   1.447   .     S
C866   H989    1.111   .     S
C866   H987    1.110   .     S
C867   N1066   1.447   .     S
C867   H991    1.110   .     S
C867   H992    1.111   .     S
C867   H993    1.111   .     S
C868   H996    1.110   .     S
C868   H998    1.111   .     S
C868   H997    1.111   .     S
C868   N1067   1.447   .     S
C869   H1002   1.111   .     S
C869   H1000   1.110   .     S
C869   N1068   1.447   .     S
C869   H1001   1.111   .     S
C870   H1004   1.110   .     S
C870   N1054   1.447   .     S
C870   H1005   1.111   .     S
C870   H1007   1.111   .     S
C871   N1055   1.447   .     S
C871   H1009   1.110   .     S
C871   H1010   1.111   .     S
C871   H1011   1.111   .     S
C872   H1013   1.110   .     S
C872   N1056   1.447   .     S
C872   H1015   1.111   .     S
C872   H1014   1.111   .     S
C873   H1020   1.111   .     S
C873   N1057   1.447   .     S
C873   H1019   1.111   .     S
C873   H1018   1.110   .     S
C874   N1058   1.447   .     S
C874   H1022   1.110   .     S
C874   H1023   1.111   .     S
C874   H1024   1.111   .     S
C875   H1029   1.111   .     S
C875   H1027   1.111   .     S
C875   H1026   1.110   .     S
C875   N1059   1.447   .     S
C876   O1085   1.275   .     A
C876   C902    1.421   .     S
C876   O1109   1.275   .     A
C877   H1032   1.111   .     S
C877   N1060   1.447   .     S
C877   H1033   1.111   .     S
C877   H1031   1.110   .     S
C878   O1086   1.275   .     A
C878   C901    1.421   .     S
C878   O1115   1.275   .     A
C879   C900    1.421   .     S
C879   O1087   1.275   .     A
C879   O1116   1.275   .     A
C880   C908    1.421   .     S
C880   O1112   1.275   .     A
C880   O1088   1.275   .     A
C881   O1089   1.275   .     A
C881   O1114   1.275   .     A
C881   C906    1.421   .     S
C882   C897    1.421   .     S
C882   O1090   1.275   .     A
C882   O1101   1.275   .     A
C883   O1092   1.275   .     A
C883   C895    1.421   .     S
C883   O1103   1.275   .     A
C884   O1093   1.275   .     A
C884   O1099   1.275   .     A
C884   C894    1.421   .     S
C885   C930    1.456   .     S
C885   O1117   1.269   .     S
C886   O1094   1.275   .     A
C886   C893    1.421   .     S
C886   O1100   1.275   .     A
C887   O1095   1.275   .     A
C887   O1106   1.275   .     A
C887   C892    1.421   .     S
C888   O1107   1.275   .     A
C888   O1096   1.275   .     A
C888   C891    1.421   .     S
C889   O1097   1.275   .     A
C889   C899    1.421   .     S
C889   O1104   1.275   .     A
C890   O1098   1.275   .     A
C890   C898    1.421   .     S
C890   O1105   1.275   .     A
C891   C908    1.198   .     T
C892   C906    1.198   .     T
C893   C905    1.198   .     T
C894   C904    1.198   .     T
C895   C903    1.198   .     T
C896   O1118   1.269   .     A
C896   C926    1.456   .     S
C897   C902    1.198   .     T
C898   C901    1.198   .     T
C899   C900    1.198   .     T
C905   C962    1.421   .     S
C907   C927    1.456   .     S
C907   O1072   1.269   .     S
C909   I1037   2.164   .     S
C909   C939    1.418   .     A
C909   C642    1.401   1_655 S
C910   C643    1.401   1_655 A
C910   I1045   2.164   .     S
C910   C941    1.418   .     A
C911   I1046   2.164   .     S
C911   C942    1.418   .     A
C911   C360    1.401   1_565 S
C912   C362    1.401   1_565 A
C912   C943    1.418   .     A
C912   I1047   2.164   .     S
C913   C935    1.418   .     A
C913   I1048   2.164   .     S
C913   C926    1.401   .     A
C914   C936    1.418   .     A
C914   I1049   2.164   .     S
C914   C927    1.401   .     S
C915   I1050   2.164   .     S
C915   C928    1.401   .     A
C915   C937    1.418   .     A
C916   C938    1.418   .     A
C916   I1051   2.164   .     S
C916   C930    1.401   .     S
C917   C931    1.401   .     A
C917   C948    1.418   .     A
C917   I1052   2.164   .     S
C918   C933    1.456   .     S
C918   O1073   1.269   .     S
C918   O1077   1.269   .     S
C919   I1038   2.164   .     S
C919   C949    1.418   .     A
C919   C364    1.401   1_565 S
C920   C649    1.401   1_655 A
C920   I1039   2.164   .     S
C920   C950    1.418   .     A
C921   I1040   2.164   .     S
C921   C952    1.418   .     A
C921   C934    1.401   .     S
C922   C944    1.418   .     A
C922   I1041   2.164   .     S
C922   C363    1.401   1_565 S
C923   C932    1.401   .     A
C923   C945    1.418   .     A
C923   I1042   2.164   .     S
C924   I1043   2.164   .     S
C924   C946    1.418   .     A
C924   C933    1.401   .     S
C925   C947    1.418   .     A
C925   C650    1.401   1_655 A
C925   I1044   2.164   .     S
C929   O1074   1.269   .     A
C929   C934    1.456   .     S
C929   O1078   1.269   .     S
C931   C940    1.456   .     S
C932   C951    1.456   .     S
C935   C953    1.424   .     A
C936   C954    1.424   .     A
C936   C963    1.416   .     A
C937   C964    1.416   .     A
C937   C955    1.424   .     S
C938   C956    1.424   .     S
C939   C669    1.424   1_655 S
C939   C682    1.415   1_655 S
C940   O1079   1.269   .     A
C940   O1075   1.269   .     A
C941   C967    1.416   .     A
C941   C670    1.424   1_655 S
C942   C968    1.416   .     A
C942   C387    1.424   1_565 A
C943   C388    1.424   1_565 A
C943   C401    1.415   1_565 S
C944   C970    1.415   .     A
C944   C389    1.424   1_565 S
C945   C958    1.424   .     A
C945   C971    1.416   .     A
C946   C972    1.416   .     A
C946   C959    1.424   .     S
C947   C676    1.424   1_655 A
C948   C957    1.424   .     A
C949   C390    1.424   1_565 S
C950   C675    1.424   1_655 A
C951   O1076   1.269   .     S
C951   O1081   1.269   .     S
C952   C960    1.424   .     S
C953   C954    1.418   .     A
C955   C956    1.418   .     A
C957   C958    1.418   1_556 S
C958   C957    1.418   1_554 S
C959   C960    1.418   1_556 S
C960   C959    1.418   1_554 S
C961   N1053   1.424   .     S
C961   C967    1.407   .     A
C961   C651    1.415   1_655 S
C962   O1110   1.275   .     A
C962   O1082   1.275   .     A
C963   C966    1.407   .     A
C964   C969    1.407   .     A
C965   C968    1.407   .     A
C965   N1063   1.424   .     S
C965   C370    1.415   1_565 S
C966   N1064   1.424   .     S
C967   N781    1.424   1_655 S
C968   N498    1.424   1_565 S
C969   N1067   1.424   .     S
C970   N1068   1.424   .     S
C970   C857    1.407   1_556 S
C971   N1054   1.424   .     S
C971   C856    1.407   1_554 S
C972   N1055   1.424   .     S
C972   C859    1.407   1_556 S
H981   N780    1.031   1_655 S
H986   N781    1.031   1_655 S
H990   N498    1.031   1_565 S
H994   N499    1.031   1_565 S
H999   N1068   1.031   .     S
H1003  N1054   1.031   .     S
H1008  N1055   1.031   .     S
H1012  N1056   1.031   .     S
H1016  N1057   1.031   .     S
H1021  N1058   1.031   .     S
H1025  N1059   1.031   .     S
H1030  N1060   1.031   .     S
N1053  H689    1.031   1_655 S
N1061  H733    1.031   1_655 S
N1061  C679    1.424   1_655 S
N1062  C396    1.424   1_565 S
N1062  H468    1.031   1_565 S
N1063  H409    1.031   1_565 S
O1069  Zn1132  1.934   .     S
O1069  Zn1124  1.934   .     S
O1069  Zn1121  1.934   .     S
O1070  C317    1.269   1_565 A
O1070  Zn1123  1.946   .     S
O1071  Zn1126  1.946   .     S
O1071  C612    1.269   1_655 S
O1072  Zn1125  1.946   .     S
O1073  Zn1135  1.946   .     S
O1074  Zn1134  1.946   .     S
O1075  Zn1129  1.946   .     S
O1076  Zn1121  1.946   .     S
O1077  Zn1131  1.946   .     S
O1078  Zn1130  1.946   .     S
O1079  Zn1133  1.946   .     S
O1080  Zn1127  1.934   .     S
O1080  Zn1129  1.934   .     S
O1080  Zn1133  1.934   .     S
O1081  Zn1132  1.946   .     S
O1082  Zn1124  1.914   .     S
O1083  Zn1123  1.914   .     S
O1084  Zn1126  1.914   .     S
O1085  Zn1125  1.914   .     S
O1086  Zn1128  1.914   .     S
O1087  Zn1127  1.914   .     S
O1088  Zn1122  1.914   .     S
O1089  Zn1136  1.914   .     S
O1090  Zn1123  1.914   .     S
O1091  Zn1130  1.934   .     S
O1091  Zn1134  1.934   .     S
O1091  Zn1122  1.934   .     S
O1092  Zn1124  1.914   .     S
O1093  Zn1136  1.914   .     S
O1094  Zn1122  1.914   .     S
O1095  Zn1127  1.914   .     S
O1096  Zn1128  1.914   .     S
O1097  Zn1125  1.914   .     S
O1098  Zn1126  1.914   .     S
O1099  Zn847   1.914   1_655 S
O1100  Zn1130  1.914   .     S
O1101  Zn565   1.914   1_565 S
O1102  Zn1135  1.934   .     S
O1102  Zn1131  1.934   .     S
O1102  Zn1125  1.934   .     S
O1103  Zn1132  1.914   .     S
O1104  Zn1135  1.914   .     S
O1105  Zn850   1.914   1_655 S
O1106  Zn1129  1.914   .     S
O1107  Zn553   1.914   1_565 S
O1108  Zn846   1.914   1_655 S
O1109  Zn1131  1.914   .     S
O1110  Zn1121  1.914   .     S
O1111  Zn561   1.914   1_565 S
O1112  Zn1134  1.914   .     S
O1113  Zn1128  1.946   .     S
O1113  C285    1.269   1_565 S
O1114  Zn851   1.914   1_655 S
O1115  Zn564   1.914   1_565 S
O1116  Zn1133  1.914   .     S
O1117  Zn1127  1.946   .     S
O1118  Zn1122  1.946   .     S
O1119  C623    1.269   1_655 A
O1119  Zn1136  1.946   .     S
O1120  Zn1124  1.946   .     S
Zn1123 O512    1.934   1_565 S
Zn1126 O807    1.934   1_655 S
Zn1128 O501    1.934   1_565 S
Zn1136 O818    1.934   1_655 S
