data_str_m3_o10_o18_pcu_sym.111
_audit_creation_date              2020-01-03
_audit_creation_method            'Materials Studio'
_symmetry_space_group_name_H-M    'P1'
_symmetry_Int_Tables_number       1
_symmetry_cell_setting            triclinic
loop_
_symmetry_equiv_pos_as_xyz
  x,y,z
_cell_length_a                    23.4992
_cell_length_b                    25.8844
_cell_length_c                    27.5578
_cell_angle_alpha                 93.5753
_cell_angle_beta                  93.1599
_cell_angle_gamma                 93.9793
loop_
_atom_site_label
_atom_site_type_symbol
_atom_site_fract_x
_atom_site_fract_y
_atom_site_fract_z
_atom_site_U_iso_or_equiv
_atom_site_adp_type
_atom_site_occupancy
C1     C     0.01479   0.26472   0.24889   0.00000  Uiso   1.00
C2     C     0.31233   0.16306   0.15896   0.00000  Uiso   1.00
C3     C     0.03347   0.18257   0.39278   0.00000  Uiso   1.00
C4     C     0.30268   0.16088   0.10641   0.00000  Uiso   1.00
C5     C     0.02655   0.23844   0.46533   0.00000  Uiso   1.00
C6     C     0.32242   0.12687   0.02610   0.00000  Uiso   1.00
C7     C     0.00452   0.21940   0.41918   0.00000  Uiso   1.00
C8     C     0.00501   0.13507   0.07551   0.00000  Uiso   1.00
C9     C     0.08258   0.16376   0.41285   0.00000  Uiso   1.00
C10    C     0.25426   0.18219   0.08755   0.00000  Uiso   1.00
C11    C     0.10907   0.18673   0.45607   0.00000  Uiso   1.00
C12    C     0.31854   0.06861   0.25112   0.00000  Uiso   1.00
C13    C     0.23758   0.17495   0.03815   0.00000  Uiso   1.00
C14    C     0.07922   0.22302   0.48362   0.00000  Uiso   1.00
C15    C     0.27111   0.14479   0.00763   0.00000  Uiso   1.00
C16    C     0.16450   0.17474   0.47214   0.00000  Uiso   1.00
C17    C     0.18601   0.19330   0.01940   0.00000  Uiso   1.00
C18    C     0.07457   0.00577   0.28389   0.00000  Uiso   1.00
C19    C     0.25878   0.32755   0.21609   0.00000  Uiso   1.00
C20    C     0.15526   0.22942   0.04630   0.00000  Uiso   1.00
C21    C     0.19972   0.14611   0.44195   0.00000  Uiso   1.00
C22    C     0.10294   0.24423   0.02838   0.00000  Uiso   1.00
C23    C     0.25235   0.13183   0.45947   0.00000  Uiso   1.00
C24    C     0.02239   0.31905   0.25581   0.00000  Uiso   1.00
C25    C     0.31094   0.01428   0.24420   0.00000  Uiso   1.00
C26    C     0.02124   0.17131   0.34098   0.00000  Uiso   1.00
H27    H     0.08097   0.27242   0.04968   0.00000  Uiso   1.00
H28    H     0.18861   0.13543   0.40400   0.00000  Uiso   1.00
H29    H     0.16248   0.12474   0.21394   0.00000  Uiso   1.00
H30    H     0.17085   0.20858   0.28607   0.00000  Uiso   1.00
H31    H     0.27791   0.10956   0.43544   0.00000  Uiso   1.00
H32    H     0.22799   0.20130   0.11290   0.00000  Uiso   1.00
H33    H     0.10064   0.13247   0.39262   0.00000  Uiso   1.00
H34    H     0.04332   0.11901   0.08985   0.00000  Uiso   1.00
H35    H     0.29959   0.23452   0.40361   0.00000  Uiso   1.00
H36    H     0.00373   0.26665   0.48577   0.00000  Uiso   1.00
H37    H     0.01567   0.10495   0.00273   0.00000  Uiso   1.00
H38    H     0.17165   0.24864   0.08057   0.00000  Uiso   1.00
N39    N     0.14695   0.15216   0.23739   0.00000  Uiso   1.00
N40    N     0.18638   0.18117   0.26260   0.00000  Uiso   1.00
N41    N     0.11600   0.02156   0.30620   0.00000  Uiso   1.00
N42    N     0.21737   0.31174   0.19376   0.00000  Uiso   1.00
O43    O     0.29719   0.24631   0.25309   0.00000  Uiso   1.00
O44    O     0.03614   0.08702   0.24690   0.00000  Uiso   1.00
O45    O     0.05822   0.23702   0.24501   0.00000  Uiso   1.00
O46    O     0.27512   0.09632   0.25498   0.00000  Uiso   1.00
O47    O     0.30328   0.17397   0.32247   0.00000  Uiso   1.00
O48    O     0.03005   0.15937   0.17753   0.00000  Uiso   1.00
O49    O     0.06431   0.16467   0.31439   0.00000  Uiso   1.00
O50    O     0.26902   0.16866   0.18561   0.00000  Uiso   1.00
Zn51   Zn    0.27033   0.17287   0.25539   0.00000  Uiso   1.00
Zn52   Zn    0.06300   0.16046   0.24460   0.00000  Uiso   1.00
C53    C     0.34813   0.26472   0.24889   0.00000  Uiso   1.00
C54    C     0.64566   0.16306   0.15896   0.00000  Uiso   1.00
C55    C     0.36681   0.18257   0.39278   0.00000  Uiso   1.00
C56    C     0.63601   0.16088   0.10641   0.00000  Uiso   1.00
C57    C     0.35988   0.23844   0.46533   0.00000  Uiso   1.00
C58    C     0.65575   0.12687   0.02610   0.00000  Uiso   1.00
C59    C     0.33785   0.21940   0.41918   0.00000  Uiso   1.00
C60    C     0.33834   0.13507   0.07551   0.00000  Uiso   1.00
C61    C     0.41592   0.16376   0.41285   0.00000  Uiso   1.00
C62    C     0.58760   0.18219   0.08755   0.00000  Uiso   1.00
C63    C     0.44240   0.18673   0.45607   0.00000  Uiso   1.00
C64    C     0.65187   0.06861   0.25112   0.00000  Uiso   1.00
C65    C     0.57092   0.17495   0.03815   0.00000  Uiso   1.00
C66    C     0.41256   0.22302   0.48362   0.00000  Uiso   1.00
C67    C     0.60444   0.14479   0.00763   0.00000  Uiso   1.00
C68    C     0.49783   0.17474   0.47214   0.00000  Uiso   1.00
C69    C     0.51934   0.19330   0.01940   0.00000  Uiso   1.00
C70    C     0.40790   0.00577   0.28389   0.00000  Uiso   1.00
C71    C     0.59211   0.32755   0.21609   0.00000  Uiso   1.00
C72    C     0.48860   0.22942   0.04630   0.00000  Uiso   1.00
C73    C     0.53306   0.14611   0.44195   0.00000  Uiso   1.00
C74    C     0.43627   0.24423   0.02838   0.00000  Uiso   1.00
C75    C     0.58568   0.13183   0.45947   0.00000  Uiso   1.00
C76    C     0.35572   0.31905   0.25581   0.00000  Uiso   1.00
C77    C     0.64428   0.01428   0.24420   0.00000  Uiso   1.00
C78    C     0.35457   0.17131   0.34098   0.00000  Uiso   1.00
H79    H     0.41431   0.27242   0.04968   0.00000  Uiso   1.00
H80    H     0.52194   0.13543   0.40400   0.00000  Uiso   1.00
H81    H     0.49582   0.12474   0.21394   0.00000  Uiso   1.00
H82    H     0.50418   0.20858   0.28607   0.00000  Uiso   1.00
H83    H     0.61124   0.10956   0.43544   0.00000  Uiso   1.00
H84    H     0.56132   0.20130   0.11290   0.00000  Uiso   1.00
H85    H     0.43397   0.13247   0.39262   0.00000  Uiso   1.00
H86    H     0.37666   0.11901   0.08985   0.00000  Uiso   1.00
H87    H     0.63292   0.23452   0.40361   0.00000  Uiso   1.00
H88    H     0.33706   0.26665   0.48577   0.00000  Uiso   1.00
H89    H     0.34900   0.10495   0.00273   0.00000  Uiso   1.00
H90    H     0.50499   0.24864   0.08057   0.00000  Uiso   1.00
N91    N     0.48029   0.15216   0.23739   0.00000  Uiso   1.00
N92    N     0.51971   0.18117   0.26260   0.00000  Uiso   1.00
N93    N     0.44933   0.02156   0.30620   0.00000  Uiso   1.00
N94    N     0.55070   0.31174   0.19376   0.00000  Uiso   1.00
O95    O     0.63052   0.24631   0.25309   0.00000  Uiso   1.00
O96    O     0.36948   0.08702   0.24690   0.00000  Uiso   1.00
O97    O     0.39155   0.23702   0.24501   0.00000  Uiso   1.00
O98    O     0.60845   0.09632   0.25498   0.00000  Uiso   1.00
O99    O     0.63662   0.17397   0.32247   0.00000  Uiso   1.00
O100   O     0.36338   0.15937   0.17753   0.00000  Uiso   1.00
O101   O     0.39764   0.16467   0.31439   0.00000  Uiso   1.00
O102   O     0.60236   0.16866   0.18561   0.00000  Uiso   1.00
Zn103  Zn    0.60366   0.17287   0.25539   0.00000  Uiso   1.00
Zn104  Zn    0.39634   0.16046   0.24460   0.00000  Uiso   1.00
C105   C     0.68146   0.26472   0.24889   0.00000  Uiso   1.00
C106   C     0.97900   0.16306   0.15896   0.00000  Uiso   1.00
C107   C     0.70014   0.18257   0.39278   0.00000  Uiso   1.00
C108   C     0.96935   0.16088   0.10641   0.00000  Uiso   1.00
C109   C     0.69321   0.23844   0.46533   0.00000  Uiso   1.00
C110   C     0.98908   0.12687   0.02610   0.00000  Uiso   1.00
C111   C     0.67118   0.21940   0.41918   0.00000  Uiso   1.00
C112   C     0.67167   0.13507   0.07551   0.00000  Uiso   1.00
C113   C     0.74925   0.16376   0.41285   0.00000  Uiso   1.00
C114   C     0.92093   0.18219   0.08755   0.00000  Uiso   1.00
C115   C     0.77573   0.18673   0.45607   0.00000  Uiso   1.00
C116   C     0.98521   0.06861   0.25112   0.00000  Uiso   1.00
C117   C     0.90425   0.17495   0.03815   0.00000  Uiso   1.00
C118   C     0.74589   0.22302   0.48362   0.00000  Uiso   1.00
C119   C     0.93778   0.14479   0.00763   0.00000  Uiso   1.00
C120   C     0.83116   0.17474   0.47214   0.00000  Uiso   1.00
C121   C     0.85268   0.19330   0.01940   0.00000  Uiso   1.00
C122   C     0.74123   0.00577   0.28389   0.00000  Uiso   1.00
C123   C     0.92545   0.32755   0.21609   0.00000  Uiso   1.00
C124   C     0.82193   0.22942   0.04630   0.00000  Uiso   1.00
C125   C     0.86639   0.14611   0.44195   0.00000  Uiso   1.00
C126   C     0.76960   0.24423   0.02838   0.00000  Uiso   1.00
C127   C     0.91902   0.13183   0.45947   0.00000  Uiso   1.00
C128   C     0.68905   0.31905   0.25581   0.00000  Uiso   1.00
C129   C     0.97761   0.01428   0.24420   0.00000  Uiso   1.00
C130   C     0.68790   0.17131   0.34098   0.00000  Uiso   1.00
H131   H     0.74764   0.27242   0.04968   0.00000  Uiso   1.00
H132   H     0.85527   0.13543   0.40400   0.00000  Uiso   1.00
H133   H     0.82915   0.12474   0.21394   0.00000  Uiso   1.00
H134   H     0.83752   0.20858   0.28607   0.00000  Uiso   1.00
H135   H     0.94457   0.10956   0.43544   0.00000  Uiso   1.00
H136   H     0.89466   0.20130   0.11290   0.00000  Uiso   1.00
H137   H     0.76730   0.13247   0.39262   0.00000  Uiso   1.00
H138   H     0.70999   0.11901   0.08985   0.00000  Uiso   1.00
H139   H     0.96625   0.23452   0.40361   0.00000  Uiso   1.00
H140   H     0.67039   0.26665   0.48577   0.00000  Uiso   1.00
H141   H     0.68233   0.10495   0.00273   0.00000  Uiso   1.00
H142   H     0.83832   0.24864   0.08057   0.00000  Uiso   1.00
N143   N     0.81362   0.15216   0.23739   0.00000  Uiso   1.00
N144   N     0.85305   0.18117   0.26260   0.00000  Uiso   1.00
N145   N     0.78266   0.02156   0.30620   0.00000  Uiso   1.00
N146   N     0.88404   0.31174   0.19376   0.00000  Uiso   1.00
O147   O     0.96386   0.24631   0.25309   0.00000  Uiso   1.00
O148   O     0.70281   0.08702   0.24690   0.00000  Uiso   1.00
O149   O     0.72488   0.23702   0.24501   0.00000  Uiso   1.00
O150   O     0.94178   0.09632   0.25498   0.00000  Uiso   1.00
O151   O     0.96995   0.17397   0.32247   0.00000  Uiso   1.00
O152   O     0.69672   0.15937   0.17753   0.00000  Uiso   1.00
O153   O     0.73098   0.16467   0.31439   0.00000  Uiso   1.00
O154   O     0.93569   0.16866   0.18561   0.00000  Uiso   1.00
Zn155  Zn    0.93700   0.17287   0.25539   0.00000  Uiso   1.00
Zn156  Zn    0.72967   0.16046   0.24460   0.00000  Uiso   1.00
C157   C     0.01479   0.59805   0.24889   0.00000  Uiso   1.00
C158   C     0.31233   0.49640   0.15896   0.00000  Uiso   1.00
C159   C     0.03347   0.51591   0.39278   0.00000  Uiso   1.00
C160   C     0.30268   0.49421   0.10641   0.00000  Uiso   1.00
C161   C     0.02655   0.57178   0.46533   0.00000  Uiso   1.00
C162   C     0.32242   0.46020   0.02610   0.00000  Uiso   1.00
C163   C     0.00452   0.55273   0.41918   0.00000  Uiso   1.00
C164   C     0.00501   0.46840   0.07551   0.00000  Uiso   1.00
C165   C     0.08258   0.49709   0.41285   0.00000  Uiso   1.00
C166   C     0.25426   0.51553   0.08755   0.00000  Uiso   1.00
C167   C     0.10907   0.52007   0.45607   0.00000  Uiso   1.00
C168   C     0.31854   0.40195   0.25112   0.00000  Uiso   1.00
C169   C     0.23758   0.50828   0.03815   0.00000  Uiso   1.00
C170   C     0.07922   0.55635   0.48362   0.00000  Uiso   1.00
C171   C     0.27111   0.47812   0.00763   0.00000  Uiso   1.00
C172   C     0.16450   0.50808   0.47214   0.00000  Uiso   1.00
C173   C     0.18601   0.52663   0.01940   0.00000  Uiso   1.00
C174   C     0.07457   0.33911   0.28389   0.00000  Uiso   1.00
C175   C     0.25878   0.66088   0.21609   0.00000  Uiso   1.00
C176   C     0.15526   0.56275   0.04630   0.00000  Uiso   1.00
C177   C     0.19972   0.47944   0.44195   0.00000  Uiso   1.00
C178   C     0.10294   0.57756   0.02838   0.00000  Uiso   1.00
C179   C     0.25235   0.46516   0.45947   0.00000  Uiso   1.00
C180   C     0.02239   0.65238   0.25581   0.00000  Uiso   1.00
C181   C     0.31094   0.34761   0.24420   0.00000  Uiso   1.00
C182   C     0.02124   0.50464   0.34098   0.00000  Uiso   1.00
H183   H     0.08097   0.60575   0.04968   0.00000  Uiso   1.00
H184   H     0.18861   0.46877   0.40400   0.00000  Uiso   1.00
H185   H     0.16248   0.45807   0.21394   0.00000  Uiso   1.00
H186   H     0.17085   0.54191   0.28607   0.00000  Uiso   1.00
H187   H     0.27791   0.44289   0.43544   0.00000  Uiso   1.00
H188   H     0.22799   0.53463   0.11290   0.00000  Uiso   1.00
H189   H     0.10064   0.46581   0.39262   0.00000  Uiso   1.00
H190   H     0.04332   0.45234   0.08985   0.00000  Uiso   1.00
H191   H     0.29959   0.56785   0.40361   0.00000  Uiso   1.00
H192   H     0.00373   0.59999   0.48577   0.00000  Uiso   1.00
H193   H     0.01567   0.43828   0.00273   0.00000  Uiso   1.00
H194   H     0.17165   0.58197   0.08057   0.00000  Uiso   1.00
N195   N     0.14695   0.48550   0.23739   0.00000  Uiso   1.00
N196   N     0.18638   0.51450   0.26260   0.00000  Uiso   1.00
N197   N     0.11600   0.35490   0.30620   0.00000  Uiso   1.00
N198   N     0.21737   0.64507   0.19376   0.00000  Uiso   1.00
O199   O     0.29719   0.57964   0.25309   0.00000  Uiso   1.00
O200   O     0.03614   0.42036   0.24690   0.00000  Uiso   1.00
O201   O     0.05822   0.57035   0.24501   0.00000  Uiso   1.00
O202   O     0.27512   0.42965   0.25498   0.00000  Uiso   1.00
O203   O     0.30328   0.50730   0.32247   0.00000  Uiso   1.00
O204   O     0.03005   0.49270   0.17753   0.00000  Uiso   1.00
O205   O     0.06431   0.49801   0.31439   0.00000  Uiso   1.00
O206   O     0.26902   0.50199   0.18561   0.00000  Uiso   1.00
Zn207  Zn    0.27033   0.50621   0.25539   0.00000  Uiso   1.00
Zn208  Zn    0.06300   0.49379   0.24460   0.00000  Uiso   1.00
C209   C     0.34813   0.59805   0.24889   0.00000  Uiso   1.00
C210   C     0.64566   0.49640   0.15896   0.00000  Uiso   1.00
C211   C     0.36681   0.51591   0.39278   0.00000  Uiso   1.00
C212   C     0.63601   0.49421   0.10641   0.00000  Uiso   1.00
C213   C     0.35988   0.57178   0.46533   0.00000  Uiso   1.00
C214   C     0.65575   0.46020   0.02610   0.00000  Uiso   1.00
C215   C     0.33785   0.55273   0.41918   0.00000  Uiso   1.00
C216   C     0.33834   0.46840   0.07551   0.00000  Uiso   1.00
C217   C     0.41592   0.49709   0.41285   0.00000  Uiso   1.00
C218   C     0.58760   0.51553   0.08755   0.00000  Uiso   1.00
C219   C     0.44240   0.52007   0.45607   0.00000  Uiso   1.00
C220   C     0.65187   0.40195   0.25112   0.00000  Uiso   1.00
C221   C     0.57092   0.50828   0.03815   0.00000  Uiso   1.00
C222   C     0.41256   0.55635   0.48362   0.00000  Uiso   1.00
C223   C     0.60444   0.47812   0.00763   0.00000  Uiso   1.00
C224   C     0.49783   0.50808   0.47214   0.00000  Uiso   1.00
C225   C     0.51934   0.52663   0.01940   0.00000  Uiso   1.00
C226   C     0.40790   0.33911   0.28389   0.00000  Uiso   1.00
C227   C     0.59211   0.66088   0.21609   0.00000  Uiso   1.00
C228   C     0.48860   0.56275   0.04630   0.00000  Uiso   1.00
C229   C     0.53306   0.47944   0.44195   0.00000  Uiso   1.00
C230   C     0.43627   0.57756   0.02838   0.00000  Uiso   1.00
C231   C     0.58568   0.46516   0.45947   0.00000  Uiso   1.00
C232   C     0.35572   0.65238   0.25581   0.00000  Uiso   1.00
C233   C     0.64428   0.34761   0.24420   0.00000  Uiso   1.00
C234   C     0.35457   0.50464   0.34098   0.00000  Uiso   1.00
H235   H     0.41431   0.60575   0.04968   0.00000  Uiso   1.00
H236   H     0.52194   0.46877   0.40400   0.00000  Uiso   1.00
H237   H     0.49582   0.45807   0.21394   0.00000  Uiso   1.00
H238   H     0.50418   0.54191   0.28607   0.00000  Uiso   1.00
H239   H     0.61124   0.44289   0.43544   0.00000  Uiso   1.00
H240   H     0.56132   0.53463   0.11290   0.00000  Uiso   1.00
H241   H     0.43397   0.46581   0.39262   0.00000  Uiso   1.00
H242   H     0.37666   0.45234   0.08985   0.00000  Uiso   1.00
H243   H     0.63292   0.56785   0.40361   0.00000  Uiso   1.00
H244   H     0.33706   0.59999   0.48577   0.00000  Uiso   1.00
H245   H     0.34900   0.43828   0.00273   0.00000  Uiso   1.00
H246   H     0.50499   0.58197   0.08057   0.00000  Uiso   1.00
N247   N     0.48029   0.48550   0.23739   0.00000  Uiso   1.00
N248   N     0.51971   0.51450   0.26260   0.00000  Uiso   1.00
N249   N     0.44933   0.35490   0.30620   0.00000  Uiso   1.00
N250   N     0.55070   0.64507   0.19376   0.00000  Uiso   1.00
O251   O     0.63052   0.57964   0.25309   0.00000  Uiso   1.00
O252   O     0.36948   0.42036   0.24690   0.00000  Uiso   1.00
O253   O     0.39155   0.57035   0.24501   0.00000  Uiso   1.00
O254   O     0.60845   0.42965   0.25498   0.00000  Uiso   1.00
O255   O     0.63662   0.50730   0.32247   0.00000  Uiso   1.00
O256   O     0.36338   0.49270   0.17753   0.00000  Uiso   1.00
O257   O     0.39764   0.49801   0.31439   0.00000  Uiso   1.00
O258   O     0.60236   0.50199   0.18561   0.00000  Uiso   1.00
Zn259  Zn    0.60366   0.50621   0.25539   0.00000  Uiso   1.00
Zn260  Zn    0.39634   0.49379   0.24460   0.00000  Uiso   1.00
C261   C     0.68146   0.59805   0.24889   0.00000  Uiso   1.00
C262   C     0.97900   0.49640   0.15896   0.00000  Uiso   1.00
C263   C     0.70014   0.51591   0.39278   0.00000  Uiso   1.00
C264   C     0.96935   0.49421   0.10641   0.00000  Uiso   1.00
C265   C     0.69321   0.57178   0.46533   0.00000  Uiso   1.00
C266   C     0.98908   0.46020   0.02610   0.00000  Uiso   1.00
C267   C     0.67118   0.55273   0.41918   0.00000  Uiso   1.00
C268   C     0.67167   0.46840   0.07551   0.00000  Uiso   1.00
C269   C     0.74925   0.49709   0.41285   0.00000  Uiso   1.00
C270   C     0.92093   0.51553   0.08755   0.00000  Uiso   1.00
C271   C     0.77573   0.52007   0.45607   0.00000  Uiso   1.00
C272   C     0.98521   0.40195   0.25112   0.00000  Uiso   1.00
C273   C     0.90425   0.50828   0.03815   0.00000  Uiso   1.00
C274   C     0.74589   0.55635   0.48362   0.00000  Uiso   1.00
C275   C     0.93778   0.47812   0.00763   0.00000  Uiso   1.00
C276   C     0.83116   0.50808   0.47214   0.00000  Uiso   1.00
C277   C     0.85268   0.52663   0.01940   0.00000  Uiso   1.00
C278   C     0.74123   0.33911   0.28389   0.00000  Uiso   1.00
C279   C     0.92545   0.66088   0.21609   0.00000  Uiso   1.00
C280   C     0.82193   0.56275   0.04630   0.00000  Uiso   1.00
C281   C     0.86639   0.47944   0.44195   0.00000  Uiso   1.00
C282   C     0.76960   0.57756   0.02838   0.00000  Uiso   1.00
C283   C     0.91902   0.46516   0.45947   0.00000  Uiso   1.00
C284   C     0.68905   0.65238   0.25581   0.00000  Uiso   1.00
C285   C     0.97761   0.34761   0.24420   0.00000  Uiso   1.00
C286   C     0.68790   0.50464   0.34098   0.00000  Uiso   1.00
H287   H     0.74764   0.60575   0.04968   0.00000  Uiso   1.00
H288   H     0.85527   0.46877   0.40400   0.00000  Uiso   1.00
H289   H     0.82915   0.45807   0.21394   0.00000  Uiso   1.00
H290   H     0.83752   0.54191   0.28607   0.00000  Uiso   1.00
H291   H     0.94457   0.44289   0.43544   0.00000  Uiso   1.00
H292   H     0.89466   0.53463   0.11290   0.00000  Uiso   1.00
H293   H     0.76730   0.46581   0.39262   0.00000  Uiso   1.00
H294   H     0.70999   0.45234   0.08985   0.00000  Uiso   1.00
H295   H     0.96625   0.56785   0.40361   0.00000  Uiso   1.00
H296   H     0.67039   0.59999   0.48577   0.00000  Uiso   1.00
H297   H     0.68233   0.43828   0.00273   0.00000  Uiso   1.00
H298   H     0.83832   0.58197   0.08057   0.00000  Uiso   1.00
N299   N     0.81362   0.48550   0.23739   0.00000  Uiso   1.00
N300   N     0.85305   0.51450   0.26260   0.00000  Uiso   1.00
N301   N     0.78266   0.35490   0.30620   0.00000  Uiso   1.00
N302   N     0.88404   0.64507   0.19376   0.00000  Uiso   1.00
O303   O     0.96386   0.57964   0.25309   0.00000  Uiso   1.00
O304   O     0.70281   0.42036   0.24690   0.00000  Uiso   1.00
O305   O     0.72488   0.57035   0.24501   0.00000  Uiso   1.00
O306   O     0.94178   0.42965   0.25498   0.00000  Uiso   1.00
O307   O     0.96995   0.50730   0.32247   0.00000  Uiso   1.00
O308   O     0.69672   0.49270   0.17753   0.00000  Uiso   1.00
O309   O     0.73098   0.49801   0.31439   0.00000  Uiso   1.00
O310   O     0.93569   0.50199   0.18561   0.00000  Uiso   1.00
Zn311  Zn    0.93700   0.50621   0.25539   0.00000  Uiso   1.00
Zn312  Zn    0.72967   0.49379   0.24460   0.00000  Uiso   1.00
C313   C     0.01479   0.93138   0.24889   0.00000  Uiso   1.00
C314   C     0.31233   0.82973   0.15896   0.00000  Uiso   1.00
C315   C     0.03347   0.84924   0.39278   0.00000  Uiso   1.00
C316   C     0.30268   0.82754   0.10641   0.00000  Uiso   1.00
C317   C     0.02655   0.90511   0.46533   0.00000  Uiso   1.00
C318   C     0.32242   0.79353   0.02610   0.00000  Uiso   1.00
C319   C     0.00452   0.88606   0.41918   0.00000  Uiso   1.00
C320   C     0.00501   0.80174   0.07551   0.00000  Uiso   1.00
C321   C     0.08258   0.83042   0.41285   0.00000  Uiso   1.00
C322   C     0.25426   0.84886   0.08755   0.00000  Uiso   1.00
C323   C     0.10907   0.85340   0.45607   0.00000  Uiso   1.00
C324   C     0.31854   0.73528   0.25112   0.00000  Uiso   1.00
C325   C     0.23758   0.84162   0.03815   0.00000  Uiso   1.00
C326   C     0.07922   0.88968   0.48362   0.00000  Uiso   1.00
C327   C     0.27111   0.81145   0.00763   0.00000  Uiso   1.00
C328   C     0.16450   0.84141   0.47214   0.00000  Uiso   1.00
C329   C     0.18601   0.85996   0.01940   0.00000  Uiso   1.00
C330   C     0.07457   0.67244   0.28389   0.00000  Uiso   1.00
C331   C     0.25878   0.99421   0.21609   0.00000  Uiso   1.00
C332   C     0.15526   0.89608   0.04630   0.00000  Uiso   1.00
C333   C     0.19972   0.81278   0.44195   0.00000  Uiso   1.00
C334   C     0.10294   0.91090   0.02838   0.00000  Uiso   1.00
C335   C     0.25235   0.79850   0.45947   0.00000  Uiso   1.00
C336   C     0.02239   0.98571   0.25581   0.00000  Uiso   1.00
C337   C     0.31094   0.68095   0.24420   0.00000  Uiso   1.00
C338   C     0.02124   0.83798   0.34098   0.00000  Uiso   1.00
H339   H     0.08097   0.93909   0.04968   0.00000  Uiso   1.00
H340   H     0.18861   0.80210   0.40400   0.00000  Uiso   1.00
H341   H     0.16248   0.79140   0.21394   0.00000  Uiso   1.00
H342   H     0.17085   0.87525   0.28607   0.00000  Uiso   1.00
H343   H     0.27791   0.77622   0.43544   0.00000  Uiso   1.00
H344   H     0.22799   0.86796   0.11290   0.00000  Uiso   1.00
H345   H     0.10064   0.79914   0.39262   0.00000  Uiso   1.00
H346   H     0.04332   0.78568   0.08985   0.00000  Uiso   1.00
H347   H     0.29959   0.90119   0.40361   0.00000  Uiso   1.00
H348   H     0.00373   0.93332   0.48577   0.00000  Uiso   1.00
H349   H     0.01567   0.77162   0.00273   0.00000  Uiso   1.00
H350   H     0.17165   0.91530   0.08057   0.00000  Uiso   1.00
N351   N     0.14695   0.81883   0.23739   0.00000  Uiso   1.00
N352   N     0.18638   0.84784   0.26260   0.00000  Uiso   1.00
N353   N     0.11600   0.68823   0.30620   0.00000  Uiso   1.00
N354   N     0.21737   0.97841   0.19376   0.00000  Uiso   1.00
O355   O     0.29719   0.91298   0.25309   0.00000  Uiso   1.00
O356   O     0.03614   0.75369   0.24690   0.00000  Uiso   1.00
O357   O     0.05822   0.90368   0.24501   0.00000  Uiso   1.00
O358   O     0.27512   0.76298   0.25498   0.00000  Uiso   1.00
O359   O     0.30328   0.84063   0.32247   0.00000  Uiso   1.00
O360   O     0.03005   0.82603   0.17753   0.00000  Uiso   1.00
O361   O     0.06431   0.83134   0.31439   0.00000  Uiso   1.00
O362   O     0.26902   0.83533   0.18561   0.00000  Uiso   1.00
Zn363  Zn    0.27033   0.83954   0.25539   0.00000  Uiso   1.00
Zn364  Zn    0.06300   0.82713   0.24460   0.00000  Uiso   1.00
C365   C     0.34813   0.93138   0.24889   0.00000  Uiso   1.00
C366   C     0.64566   0.82973   0.15896   0.00000  Uiso   1.00
C367   C     0.36681   0.84924   0.39278   0.00000  Uiso   1.00
C368   C     0.63601   0.82754   0.10641   0.00000  Uiso   1.00
C369   C     0.35988   0.90511   0.46533   0.00000  Uiso   1.00
C370   C     0.65575   0.79353   0.02610   0.00000  Uiso   1.00
C371   C     0.33785   0.88606   0.41918   0.00000  Uiso   1.00
C372   C     0.33834   0.80174   0.07551   0.00000  Uiso   1.00
C373   C     0.41592   0.83042   0.41285   0.00000  Uiso   1.00
C374   C     0.58760   0.84886   0.08755   0.00000  Uiso   1.00
C375   C     0.44240   0.85340   0.45607   0.00000  Uiso   1.00
C376   C     0.65187   0.73528   0.25112   0.00000  Uiso   1.00
C377   C     0.57092   0.84162   0.03815   0.00000  Uiso   1.00
C378   C     0.41256   0.88968   0.48362   0.00000  Uiso   1.00
C379   C     0.60444   0.81145   0.00763   0.00000  Uiso   1.00
C380   C     0.49783   0.84141   0.47214   0.00000  Uiso   1.00
C381   C     0.51934   0.85996   0.01940   0.00000  Uiso   1.00
C382   C     0.40790   0.67244   0.28389   0.00000  Uiso   1.00
C383   C     0.59211   0.99421   0.21609   0.00000  Uiso   1.00
C384   C     0.48860   0.89608   0.04630   0.00000  Uiso   1.00
C385   C     0.53306   0.81278   0.44195   0.00000  Uiso   1.00
C386   C     0.43627   0.91090   0.02838   0.00000  Uiso   1.00
C387   C     0.58568   0.79850   0.45947   0.00000  Uiso   1.00
C388   C     0.35572   0.98571   0.25581   0.00000  Uiso   1.00
C389   C     0.64428   0.68095   0.24420   0.00000  Uiso   1.00
C390   C     0.35457   0.83798   0.34098   0.00000  Uiso   1.00
H391   H     0.41431   0.93909   0.04968   0.00000  Uiso   1.00
H392   H     0.52194   0.80210   0.40400   0.00000  Uiso   1.00
H393   H     0.49582   0.79140   0.21394   0.00000  Uiso   1.00
H394   H     0.50418   0.87525   0.28607   0.00000  Uiso   1.00
H395   H     0.61124   0.77622   0.43544   0.00000  Uiso   1.00
H396   H     0.56132   0.86796   0.11290   0.00000  Uiso   1.00
H397   H     0.43397   0.79914   0.39262   0.00000  Uiso   1.00
H398   H     0.37666   0.78568   0.08985   0.00000  Uiso   1.00
H399   H     0.63292   0.90119   0.40361   0.00000  Uiso   1.00
H400   H     0.33706   0.93332   0.48577   0.00000  Uiso   1.00
H401   H     0.34900   0.77162   0.00273   0.00000  Uiso   1.00
H402   H     0.50499   0.91530   0.08057   0.00000  Uiso   1.00
N403   N     0.48029   0.81883   0.23739   0.00000  Uiso   1.00
N404   N     0.51971   0.84784   0.26260   0.00000  Uiso   1.00
N405   N     0.44933   0.68823   0.30620   0.00000  Uiso   1.00
N406   N     0.55070   0.97841   0.19376   0.00000  Uiso   1.00
O407   O     0.63052   0.91298   0.25309   0.00000  Uiso   1.00
O408   O     0.36948   0.75369   0.24690   0.00000  Uiso   1.00
O409   O     0.39155   0.90368   0.24501   0.00000  Uiso   1.00
O410   O     0.60845   0.76298   0.25498   0.00000  Uiso   1.00
O411   O     0.63662   0.84063   0.32247   0.00000  Uiso   1.00
O412   O     0.36338   0.82603   0.17753   0.00000  Uiso   1.00
O413   O     0.39764   0.83134   0.31439   0.00000  Uiso   1.00
O414   O     0.60236   0.83533   0.18561   0.00000  Uiso   1.00
Zn415  Zn    0.60366   0.83954   0.25539   0.00000  Uiso   1.00
Zn416  Zn    0.39634   0.82713   0.24460   0.00000  Uiso   1.00
C417   C     0.68146   0.93138   0.24889   0.00000  Uiso   1.00
C418   C     0.97900   0.82973   0.15896   0.00000  Uiso   1.00
C419   C     0.70014   0.84924   0.39278   0.00000  Uiso   1.00
C420   C     0.96935   0.82754   0.10641   0.00000  Uiso   1.00
C421   C     0.69321   0.90511   0.46533   0.00000  Uiso   1.00
C422   C     0.98908   0.79353   0.02610   0.00000  Uiso   1.00
C423   C     0.67118   0.88606   0.41918   0.00000  Uiso   1.00
C424   C     0.67167   0.80174   0.07551   0.00000  Uiso   1.00
C425   C     0.74925   0.83042   0.41285   0.00000  Uiso   1.00
C426   C     0.92093   0.84886   0.08755   0.00000  Uiso   1.00
C427   C     0.77573   0.85340   0.45607   0.00000  Uiso   1.00
C428   C     0.98521   0.73528   0.25112   0.00000  Uiso   1.00
C429   C     0.90425   0.84162   0.03815   0.00000  Uiso   1.00
C430   C     0.74589   0.88968   0.48362   0.00000  Uiso   1.00
C431   C     0.93778   0.81145   0.00763   0.00000  Uiso   1.00
C432   C     0.83116   0.84141   0.47214   0.00000  Uiso   1.00
C433   C     0.85268   0.85996   0.01940   0.00000  Uiso   1.00
C434   C     0.74123   0.67244   0.28389   0.00000  Uiso   1.00
C435   C     0.92545   0.99421   0.21609   0.00000  Uiso   1.00
C436   C     0.82193   0.89608   0.04630   0.00000  Uiso   1.00
C437   C     0.86639   0.81278   0.44195   0.00000  Uiso   1.00
C438   C     0.76960   0.91090   0.02838   0.00000  Uiso   1.00
C439   C     0.91902   0.79850   0.45947   0.00000  Uiso   1.00
C440   C     0.68905   0.98571   0.25581   0.00000  Uiso   1.00
C441   C     0.97761   0.68095   0.24420   0.00000  Uiso   1.00
C442   C     0.68790   0.83798   0.34098   0.00000  Uiso   1.00
H443   H     0.74764   0.93909   0.04968   0.00000  Uiso   1.00
H444   H     0.85527   0.80210   0.40400   0.00000  Uiso   1.00
H445   H     0.82915   0.79140   0.21394   0.00000  Uiso   1.00
H446   H     0.83752   0.87525   0.28607   0.00000  Uiso   1.00
H447   H     0.94457   0.77622   0.43544   0.00000  Uiso   1.00
H448   H     0.89466   0.86796   0.11290   0.00000  Uiso   1.00
H449   H     0.76730   0.79914   0.39262   0.00000  Uiso   1.00
H450   H     0.70999   0.78568   0.08985   0.00000  Uiso   1.00
H451   H     0.96625   0.90119   0.40361   0.00000  Uiso   1.00
H452   H     0.67039   0.93332   0.48577   0.00000  Uiso   1.00
H453   H     0.68233   0.77162   0.00273   0.00000  Uiso   1.00
H454   H     0.83832   0.91530   0.08057   0.00000  Uiso   1.00
N455   N     0.81362   0.81883   0.23739   0.00000  Uiso   1.00
N456   N     0.85305   0.84784   0.26260   0.00000  Uiso   1.00
N457   N     0.78266   0.68823   0.30620   0.00000  Uiso   1.00
N458   N     0.88404   0.97841   0.19376   0.00000  Uiso   1.00
O459   O     0.96386   0.91298   0.25309   0.00000  Uiso   1.00
O460   O     0.70281   0.75369   0.24690   0.00000  Uiso   1.00
O461   O     0.72488   0.90368   0.24501   0.00000  Uiso   1.00
O462   O     0.94178   0.76298   0.25498   0.00000  Uiso   1.00
O463   O     0.96995   0.84063   0.32247   0.00000  Uiso   1.00
O464   O     0.69672   0.82603   0.17753   0.00000  Uiso   1.00
O465   O     0.73098   0.83134   0.31439   0.00000  Uiso   1.00
O466   O     0.93569   0.83533   0.18561   0.00000  Uiso   1.00
Zn467  Zn    0.93700   0.83954   0.25539   0.00000  Uiso   1.00
Zn468  Zn    0.72967   0.82713   0.24460   0.00000  Uiso   1.00
C469   C     0.01479   0.26472   0.74889   0.00000  Uiso   1.00
C470   C     0.31233   0.16306   0.65896   0.00000  Uiso   1.00
C471   C     0.03347   0.18257   0.89278   0.00000  Uiso   1.00
C472   C     0.30268   0.16088   0.60641   0.00000  Uiso   1.00
C473   C     0.02655   0.23844   0.96533   0.00000  Uiso   1.00
C474   C     0.32242   0.12687   0.52610   0.00000  Uiso   1.00
C475   C     0.00452   0.21940   0.91918   0.00000  Uiso   1.00
C476   C     0.00501   0.13507   0.57551   0.00000  Uiso   1.00
C477   C     0.08258   0.16376   0.91285   0.00000  Uiso   1.00
C478   C     0.25426   0.18219   0.58755   0.00000  Uiso   1.00
C479   C     0.10907   0.18673   0.95607   0.00000  Uiso   1.00
C480   C     0.31854   0.06861   0.75112   0.00000  Uiso   1.00
C481   C     0.23758   0.17495   0.53815   0.00000  Uiso   1.00
C482   C     0.07922   0.22302   0.98362   0.00000  Uiso   1.00
C483   C     0.27111   0.14479   0.50763   0.00000  Uiso   1.00
C484   C     0.16450   0.17474   0.97214   0.00000  Uiso   1.00
C485   C     0.18601   0.19330   0.51940   0.00000  Uiso   1.00
C486   C     0.07457   0.00577   0.78389   0.00000  Uiso   1.00
C487   C     0.25878   0.32755   0.71609   0.00000  Uiso   1.00
C488   C     0.15526   0.22942   0.54630   0.00000  Uiso   1.00
C489   C     0.19972   0.14611   0.94195   0.00000  Uiso   1.00
C490   C     0.10294   0.24423   0.52838   0.00000  Uiso   1.00
C491   C     0.25235   0.13183   0.95947   0.00000  Uiso   1.00
C492   C     0.02239   0.31905   0.75581   0.00000  Uiso   1.00
C493   C     0.31094   0.01428   0.74420   0.00000  Uiso   1.00
C494   C     0.02124   0.17131   0.84098   0.00000  Uiso   1.00
H495   H     0.08097   0.27242   0.54968   0.00000  Uiso   1.00
H496   H     0.18861   0.13543   0.90400   0.00000  Uiso   1.00
H497   H     0.16248   0.12474   0.71394   0.00000  Uiso   1.00
H498   H     0.17085   0.20858   0.78607   0.00000  Uiso   1.00
H499   H     0.27791   0.10956   0.93544   0.00000  Uiso   1.00
H500   H     0.22799   0.20130   0.61290   0.00000  Uiso   1.00
H501   H     0.10064   0.13247   0.89262   0.00000  Uiso   1.00
H502   H     0.04332   0.11901   0.58985   0.00000  Uiso   1.00
H503   H     0.29959   0.23452   0.90361   0.00000  Uiso   1.00
H504   H     0.00373   0.26665   0.98577   0.00000  Uiso   1.00
H505   H     0.01567   0.10495   0.50273   0.00000  Uiso   1.00
H506   H     0.17165   0.24864   0.58057   0.00000  Uiso   1.00
N507   N     0.14695   0.15216   0.73739   0.00000  Uiso   1.00
N508   N     0.18638   0.18117   0.76260   0.00000  Uiso   1.00
N509   N     0.11600   0.02156   0.80620   0.00000  Uiso   1.00
N510   N     0.21737   0.31174   0.69376   0.00000  Uiso   1.00
O511   O     0.29719   0.24631   0.75309   0.00000  Uiso   1.00
O512   O     0.03614   0.08702   0.74690   0.00000  Uiso   1.00
O513   O     0.05822   0.23702   0.74501   0.00000  Uiso   1.00
O514   O     0.27512   0.09632   0.75498   0.00000  Uiso   1.00
O515   O     0.30328   0.17397   0.82247   0.00000  Uiso   1.00
O516   O     0.03005   0.15937   0.67753   0.00000  Uiso   1.00
O517   O     0.06431   0.16467   0.81439   0.00000  Uiso   1.00
O518   O     0.26902   0.16866   0.68561   0.00000  Uiso   1.00
Zn519  Zn    0.27033   0.17287   0.75539   0.00000  Uiso   1.00
Zn520  Zn    0.06300   0.16046   0.74460   0.00000  Uiso   1.00
C521   C     0.34813   0.26472   0.74889   0.00000  Uiso   1.00
C522   C     0.64566   0.16306   0.65896   0.00000  Uiso   1.00
C523   C     0.36681   0.18257   0.89278   0.00000  Uiso   1.00
C524   C     0.63601   0.16088   0.60641   0.00000  Uiso   1.00
C525   C     0.35988   0.23844   0.96533   0.00000  Uiso   1.00
C526   C     0.65575   0.12687   0.52610   0.00000  Uiso   1.00
C527   C     0.33785   0.21940   0.91918   0.00000  Uiso   1.00
C528   C     0.33834   0.13507   0.57551   0.00000  Uiso   1.00
C529   C     0.41592   0.16376   0.91285   0.00000  Uiso   1.00
C530   C     0.58760   0.18219   0.58755   0.00000  Uiso   1.00
C531   C     0.44240   0.18673   0.95607   0.00000  Uiso   1.00
C532   C     0.65187   0.06861   0.75112   0.00000  Uiso   1.00
C533   C     0.57092   0.17495   0.53815   0.00000  Uiso   1.00
C534   C     0.41256   0.22302   0.98362   0.00000  Uiso   1.00
C535   C     0.60444   0.14479   0.50763   0.00000  Uiso   1.00
C536   C     0.49783   0.17474   0.97214   0.00000  Uiso   1.00
C537   C     0.51934   0.19330   0.51940   0.00000  Uiso   1.00
C538   C     0.40790   0.00577   0.78389   0.00000  Uiso   1.00
C539   C     0.59211   0.32755   0.71609   0.00000  Uiso   1.00
C540   C     0.48860   0.22942   0.54630   0.00000  Uiso   1.00
C541   C     0.53306   0.14611   0.94195   0.00000  Uiso   1.00
C542   C     0.43627   0.24423   0.52838   0.00000  Uiso   1.00
C543   C     0.58568   0.13183   0.95947   0.00000  Uiso   1.00
C544   C     0.35572   0.31905   0.75581   0.00000  Uiso   1.00
C545   C     0.64428   0.01428   0.74420   0.00000  Uiso   1.00
C546   C     0.35457   0.17131   0.84098   0.00000  Uiso   1.00
H547   H     0.41431   0.27242   0.54968   0.00000  Uiso   1.00
H548   H     0.52194   0.13543   0.90400   0.00000  Uiso   1.00
H549   H     0.49582   0.12474   0.71394   0.00000  Uiso   1.00
H550   H     0.50418   0.20858   0.78607   0.00000  Uiso   1.00
H551   H     0.61124   0.10956   0.93544   0.00000  Uiso   1.00
H552   H     0.56132   0.20130   0.61290   0.00000  Uiso   1.00
H553   H     0.43397   0.13247   0.89262   0.00000  Uiso   1.00
H554   H     0.37666   0.11901   0.58985   0.00000  Uiso   1.00
H555   H     0.63292   0.23452   0.90361   0.00000  Uiso   1.00
H556   H     0.33706   0.26665   0.98577   0.00000  Uiso   1.00
H557   H     0.34900   0.10495   0.50273   0.00000  Uiso   1.00
H558   H     0.50499   0.24864   0.58057   0.00000  Uiso   1.00
N559   N     0.48029   0.15216   0.73739   0.00000  Uiso   1.00
N560   N     0.51971   0.18117   0.76260   0.00000  Uiso   1.00
N561   N     0.44933   0.02156   0.80620   0.00000  Uiso   1.00
N562   N     0.55070   0.31174   0.69376   0.00000  Uiso   1.00
O563   O     0.63052   0.24631   0.75309   0.00000  Uiso   1.00
O564   O     0.36948   0.08702   0.74690   0.00000  Uiso   1.00
O565   O     0.39155   0.23702   0.74501   0.00000  Uiso   1.00
O566   O     0.60845   0.09632   0.75498   0.00000  Uiso   1.00
O567   O     0.63662   0.17397   0.82247   0.00000  Uiso   1.00
O568   O     0.36338   0.15937   0.67753   0.00000  Uiso   1.00
O569   O     0.39764   0.16467   0.81439   0.00000  Uiso   1.00
O570   O     0.60236   0.16866   0.68561   0.00000  Uiso   1.00
Zn571  Zn    0.60366   0.17287   0.75539   0.00000  Uiso   1.00
Zn572  Zn    0.39634   0.16046   0.74460   0.00000  Uiso   1.00
C573   C     0.68146   0.26472   0.74889   0.00000  Uiso   1.00
C574   C     0.97900   0.16306   0.65896   0.00000  Uiso   1.00
C575   C     0.70014   0.18257   0.89278   0.00000  Uiso   1.00
C576   C     0.96935   0.16088   0.60641   0.00000  Uiso   1.00
C577   C     0.69321   0.23844   0.96533   0.00000  Uiso   1.00
C578   C     0.98908   0.12687   0.52610   0.00000  Uiso   1.00
C579   C     0.67118   0.21940   0.91918   0.00000  Uiso   1.00
C580   C     0.67167   0.13507   0.57551   0.00000  Uiso   1.00
C581   C     0.74925   0.16376   0.91285   0.00000  Uiso   1.00
C582   C     0.92093   0.18219   0.58755   0.00000  Uiso   1.00
C583   C     0.77573   0.18673   0.95607   0.00000  Uiso   1.00
C584   C     0.98521   0.06861   0.75112   0.00000  Uiso   1.00
C585   C     0.90425   0.17495   0.53815   0.00000  Uiso   1.00
C586   C     0.74589   0.22302   0.98362   0.00000  Uiso   1.00
C587   C     0.93778   0.14479   0.50763   0.00000  Uiso   1.00
C588   C     0.83116   0.17474   0.97214   0.00000  Uiso   1.00
C589   C     0.85268   0.19330   0.51940   0.00000  Uiso   1.00
C590   C     0.74123   0.00577   0.78389   0.00000  Uiso   1.00
C591   C     0.92545   0.32755   0.71609   0.00000  Uiso   1.00
C592   C     0.82193   0.22942   0.54630   0.00000  Uiso   1.00
C593   C     0.86639   0.14611   0.94195   0.00000  Uiso   1.00
C594   C     0.76960   0.24423   0.52838   0.00000  Uiso   1.00
C595   C     0.91902   0.13183   0.95947   0.00000  Uiso   1.00
C596   C     0.68905   0.31905   0.75581   0.00000  Uiso   1.00
C597   C     0.97761   0.01428   0.74420   0.00000  Uiso   1.00
C598   C     0.68790   0.17131   0.84098   0.00000  Uiso   1.00
H599   H     0.74764   0.27242   0.54968   0.00000  Uiso   1.00
H600   H     0.85527   0.13543   0.90400   0.00000  Uiso   1.00
H601   H     0.82915   0.12474   0.71394   0.00000  Uiso   1.00
H602   H     0.83752   0.20858   0.78607   0.00000  Uiso   1.00
H603   H     0.94457   0.10956   0.93544   0.00000  Uiso   1.00
H604   H     0.89466   0.20130   0.61290   0.00000  Uiso   1.00
H605   H     0.76730   0.13247   0.89262   0.00000  Uiso   1.00
H606   H     0.70999   0.11901   0.58985   0.00000  Uiso   1.00
H607   H     0.96625   0.23452   0.90361   0.00000  Uiso   1.00
H608   H     0.67039   0.26665   0.98577   0.00000  Uiso   1.00
H609   H     0.68233   0.10495   0.50273   0.00000  Uiso   1.00
H610   H     0.83832   0.24864   0.58057   0.00000  Uiso   1.00
N611   N     0.81362   0.15216   0.73739   0.00000  Uiso   1.00
N612   N     0.85305   0.18117   0.76260   0.00000  Uiso   1.00
N613   N     0.78266   0.02156   0.80620   0.00000  Uiso   1.00
N614   N     0.88404   0.31174   0.69376   0.00000  Uiso   1.00
O615   O     0.96386   0.24631   0.75309   0.00000  Uiso   1.00
O616   O     0.70281   0.08702   0.74690   0.00000  Uiso   1.00
O617   O     0.72488   0.23702   0.74501   0.00000  Uiso   1.00
O618   O     0.94178   0.09632   0.75498   0.00000  Uiso   1.00
O619   O     0.96995   0.17397   0.82247   0.00000  Uiso   1.00
O620   O     0.69672   0.15937   0.67753   0.00000  Uiso   1.00
O621   O     0.73098   0.16467   0.81439   0.00000  Uiso   1.00
O622   O     0.93569   0.16866   0.68561   0.00000  Uiso   1.00
Zn623  Zn    0.93700   0.17287   0.75539   0.00000  Uiso   1.00
Zn624  Zn    0.72967   0.16046   0.74460   0.00000  Uiso   1.00
C625   C     0.01479   0.59805   0.74889   0.00000  Uiso   1.00
C626   C     0.31233   0.49640   0.65896   0.00000  Uiso   1.00
C627   C     0.03347   0.51591   0.89278   0.00000  Uiso   1.00
C628   C     0.30268   0.49421   0.60641   0.00000  Uiso   1.00
C629   C     0.02655   0.57178   0.96533   0.00000  Uiso   1.00
C630   C     0.32242   0.46020   0.52610   0.00000  Uiso   1.00
C631   C     0.00452   0.55273   0.91918   0.00000  Uiso   1.00
C632   C     0.00501   0.46840   0.57551   0.00000  Uiso   1.00
C633   C     0.08258   0.49709   0.91285   0.00000  Uiso   1.00
C634   C     0.25426   0.51553   0.58755   0.00000  Uiso   1.00
C635   C     0.10907   0.52007   0.95607   0.00000  Uiso   1.00
C636   C     0.31854   0.40195   0.75112   0.00000  Uiso   1.00
C637   C     0.23758   0.50828   0.53815   0.00000  Uiso   1.00
C638   C     0.07922   0.55635   0.98362   0.00000  Uiso   1.00
C639   C     0.27111   0.47812   0.50763   0.00000  Uiso   1.00
C640   C     0.16450   0.50808   0.97214   0.00000  Uiso   1.00
C641   C     0.18601   0.52663   0.51940   0.00000  Uiso   1.00
C642   C     0.07457   0.33911   0.78389   0.00000  Uiso   1.00
C643   C     0.25878   0.66088   0.71609   0.00000  Uiso   1.00
C644   C     0.15526   0.56275   0.54630   0.00000  Uiso   1.00
C645   C     0.19972   0.47944   0.94195   0.00000  Uiso   1.00
C646   C     0.10294   0.57756   0.52838   0.00000  Uiso   1.00
C647   C     0.25235   0.46516   0.95947   0.00000  Uiso   1.00
C648   C     0.02239   0.65238   0.75581   0.00000  Uiso   1.00
C649   C     0.31094   0.34761   0.74420   0.00000  Uiso   1.00
C650   C     0.02124   0.50464   0.84098   0.00000  Uiso   1.00
H651   H     0.08097   0.60575   0.54968   0.00000  Uiso   1.00
H652   H     0.18861   0.46877   0.90400   0.00000  Uiso   1.00
H653   H     0.16248   0.45807   0.71394   0.00000  Uiso   1.00
H654   H     0.17085   0.54191   0.78607   0.00000  Uiso   1.00
H655   H     0.27791   0.44289   0.93544   0.00000  Uiso   1.00
H656   H     0.22799   0.53463   0.61290   0.00000  Uiso   1.00
H657   H     0.10064   0.46581   0.89262   0.00000  Uiso   1.00
H658   H     0.04332   0.45234   0.58985   0.00000  Uiso   1.00
H659   H     0.29959   0.56785   0.90361   0.00000  Uiso   1.00
H660   H     0.00373   0.59999   0.98577   0.00000  Uiso   1.00
H661   H     0.01567   0.43828   0.50273   0.00000  Uiso   1.00
H662   H     0.17165   0.58197   0.58057   0.00000  Uiso   1.00
N663   N     0.14695   0.48550   0.73739   0.00000  Uiso   1.00
N664   N     0.18638   0.51450   0.76260   0.00000  Uiso   1.00
N665   N     0.11600   0.35490   0.80620   0.00000  Uiso   1.00
N666   N     0.21737   0.64507   0.69376   0.00000  Uiso   1.00
O667   O     0.29719   0.57964   0.75309   0.00000  Uiso   1.00
O668   O     0.03614   0.42036   0.74690   0.00000  Uiso   1.00
O669   O     0.05822   0.57035   0.74501   0.00000  Uiso   1.00
O670   O     0.27512   0.42965   0.75498   0.00000  Uiso   1.00
O671   O     0.30328   0.50730   0.82247   0.00000  Uiso   1.00
O672   O     0.03005   0.49270   0.67753   0.00000  Uiso   1.00
O673   O     0.06431   0.49801   0.81439   0.00000  Uiso   1.00
O674   O     0.26902   0.50199   0.68561   0.00000  Uiso   1.00
Zn675  Zn    0.27033   0.50621   0.75539   0.00000  Uiso   1.00
Zn676  Zn    0.06300   0.49379   0.74460   0.00000  Uiso   1.00
C677   C     0.34813   0.59805   0.74889   0.00000  Uiso   1.00
C678   C     0.64566   0.49640   0.65896   0.00000  Uiso   1.00
C679   C     0.36681   0.51591   0.89278   0.00000  Uiso   1.00
C680   C     0.63601   0.49421   0.60641   0.00000  Uiso   1.00
C681   C     0.35988   0.57178   0.96533   0.00000  Uiso   1.00
C682   C     0.65575   0.46020   0.52610   0.00000  Uiso   1.00
C683   C     0.33785   0.55273   0.91918   0.00000  Uiso   1.00
C684   C     0.33834   0.46840   0.57551   0.00000  Uiso   1.00
C685   C     0.41592   0.49709   0.91285   0.00000  Uiso   1.00
C686   C     0.58760   0.51553   0.58755   0.00000  Uiso   1.00
C687   C     0.44240   0.52007   0.95607   0.00000  Uiso   1.00
C688   C     0.65187   0.40195   0.75112   0.00000  Uiso   1.00
C689   C     0.57092   0.50828   0.53815   0.00000  Uiso   1.00
C690   C     0.41256   0.55635   0.98362   0.00000  Uiso   1.00
C691   C     0.60444   0.47812   0.50763   0.00000  Uiso   1.00
C692   C     0.49783   0.50808   0.97214   0.00000  Uiso   1.00
C693   C     0.51934   0.52663   0.51940   0.00000  Uiso   1.00
C694   C     0.40790   0.33911   0.78389   0.00000  Uiso   1.00
C695   C     0.59211   0.66088   0.71609   0.00000  Uiso   1.00
C696   C     0.48860   0.56275   0.54630   0.00000  Uiso   1.00
C697   C     0.53306   0.47944   0.94195   0.00000  Uiso   1.00
C698   C     0.43627   0.57756   0.52838   0.00000  Uiso   1.00
C699   C     0.58568   0.46516   0.95947   0.00000  Uiso   1.00
C700   C     0.35572   0.65238   0.75581   0.00000  Uiso   1.00
C701   C     0.64428   0.34761   0.74420   0.00000  Uiso   1.00
C702   C     0.35457   0.50464   0.84098   0.00000  Uiso   1.00
H703   H     0.41431   0.60575   0.54968   0.00000  Uiso   1.00
H704   H     0.52194   0.46877   0.90400   0.00000  Uiso   1.00
H705   H     0.49582   0.45807   0.71394   0.00000  Uiso   1.00
H706   H     0.50418   0.54191   0.78607   0.00000  Uiso   1.00
H707   H     0.61124   0.44289   0.93544   0.00000  Uiso   1.00
H708   H     0.56132   0.53463   0.61290   0.00000  Uiso   1.00
H709   H     0.43397   0.46581   0.89262   0.00000  Uiso   1.00
H710   H     0.37666   0.45234   0.58985   0.00000  Uiso   1.00
H711   H     0.63292   0.56785   0.90361   0.00000  Uiso   1.00
H712   H     0.33706   0.59999   0.98577   0.00000  Uiso   1.00
H713   H     0.34900   0.43828   0.50273   0.00000  Uiso   1.00
H714   H     0.50499   0.58197   0.58057   0.00000  Uiso   1.00
N715   N     0.48029   0.48550   0.73739   0.00000  Uiso   1.00
N716   N     0.51971   0.51450   0.76260   0.00000  Uiso   1.00
N717   N     0.44933   0.35490   0.80620   0.00000  Uiso   1.00
N718   N     0.55070   0.64507   0.69376   0.00000  Uiso   1.00
O719   O     0.63052   0.57964   0.75309   0.00000  Uiso   1.00
O720   O     0.36948   0.42036   0.74690   0.00000  Uiso   1.00
O721   O     0.39155   0.57035   0.74501   0.00000  Uiso   1.00
O722   O     0.60845   0.42965   0.75498   0.00000  Uiso   1.00
O723   O     0.63662   0.50730   0.82247   0.00000  Uiso   1.00
O724   O     0.36338   0.49270   0.67753   0.00000  Uiso   1.00
O725   O     0.39764   0.49801   0.81439   0.00000  Uiso   1.00
O726   O     0.60236   0.50199   0.68561   0.00000  Uiso   1.00
Zn727  Zn    0.60366   0.50621   0.75539   0.00000  Uiso   1.00
Zn728  Zn    0.39634   0.49379   0.74460   0.00000  Uiso   1.00
C729   C     0.68146   0.59805   0.74889   0.00000  Uiso   1.00
C730   C     0.97900   0.49640   0.65896   0.00000  Uiso   1.00
C731   C     0.70014   0.51591   0.89278   0.00000  Uiso   1.00
C732   C     0.96935   0.49421   0.60641   0.00000  Uiso   1.00
C733   C     0.69321   0.57178   0.96533   0.00000  Uiso   1.00
C734   C     0.98908   0.46020   0.52610   0.00000  Uiso   1.00
C735   C     0.67118   0.55273   0.91918   0.00000  Uiso   1.00
C736   C     0.67167   0.46840   0.57551   0.00000  Uiso   1.00
C737   C     0.74925   0.49709   0.91285   0.00000  Uiso   1.00
C738   C     0.92093   0.51553   0.58755   0.00000  Uiso   1.00
C739   C     0.77573   0.52007   0.95607   0.00000  Uiso   1.00
C740   C     0.98521   0.40195   0.75112   0.00000  Uiso   1.00
C741   C     0.90425   0.50828   0.53815   0.00000  Uiso   1.00
C742   C     0.74589   0.55635   0.98362   0.00000  Uiso   1.00
C743   C     0.93778   0.47812   0.50763   0.00000  Uiso   1.00
C744   C     0.83116   0.50808   0.97214   0.00000  Uiso   1.00
C745   C     0.85268   0.52663   0.51940   0.00000  Uiso   1.00
C746   C     0.74123   0.33911   0.78389   0.00000  Uiso   1.00
C747   C     0.92545   0.66088   0.71609   0.00000  Uiso   1.00
C748   C     0.82193   0.56275   0.54630   0.00000  Uiso   1.00
C749   C     0.86639   0.47944   0.94195   0.00000  Uiso   1.00
C750   C     0.76960   0.57756   0.52838   0.00000  Uiso   1.00
C751   C     0.91902   0.46516   0.95947   0.00000  Uiso   1.00
C752   C     0.68905   0.65238   0.75581   0.00000  Uiso   1.00
C753   C     0.97761   0.34761   0.74420   0.00000  Uiso   1.00
C754   C     0.68790   0.50464   0.84098   0.00000  Uiso   1.00
H755   H     0.74764   0.60575   0.54968   0.00000  Uiso   1.00
H756   H     0.85527   0.46877   0.90400   0.00000  Uiso   1.00
H757   H     0.82915   0.45807   0.71394   0.00000  Uiso   1.00
H758   H     0.83752   0.54191   0.78607   0.00000  Uiso   1.00
H759   H     0.94457   0.44289   0.93544   0.00000  Uiso   1.00
H760   H     0.89466   0.53463   0.61290   0.00000  Uiso   1.00
H761   H     0.76730   0.46581   0.89262   0.00000  Uiso   1.00
H762   H     0.70999   0.45234   0.58985   0.00000  Uiso   1.00
H763   H     0.96625   0.56785   0.90361   0.00000  Uiso   1.00
H764   H     0.67039   0.59999   0.98577   0.00000  Uiso   1.00
H765   H     0.68233   0.43828   0.50273   0.00000  Uiso   1.00
H766   H     0.83832   0.58197   0.58057   0.00000  Uiso   1.00
N767   N     0.81362   0.48550   0.73739   0.00000  Uiso   1.00
N768   N     0.85305   0.51450   0.76260   0.00000  Uiso   1.00
N769   N     0.78266   0.35490   0.80620   0.00000  Uiso   1.00
N770   N     0.88404   0.64507   0.69376   0.00000  Uiso   1.00
O771   O     0.96386   0.57964   0.75309   0.00000  Uiso   1.00
O772   O     0.70281   0.42036   0.74690   0.00000  Uiso   1.00
O773   O     0.72488   0.57035   0.74501   0.00000  Uiso   1.00
O774   O     0.94178   0.42965   0.75498   0.00000  Uiso   1.00
O775   O     0.96995   0.50730   0.82247   0.00000  Uiso   1.00
O776   O     0.69672   0.49270   0.67753   0.00000  Uiso   1.00
O777   O     0.73098   0.49801   0.81439   0.00000  Uiso   1.00
O778   O     0.93569   0.50199   0.68561   0.00000  Uiso   1.00
Zn779  Zn    0.93700   0.50621   0.75539   0.00000  Uiso   1.00
Zn780  Zn    0.72967   0.49379   0.74460   0.00000  Uiso   1.00
C781   C     0.01479   0.93138   0.74889   0.00000  Uiso   1.00
C782   C     0.31233   0.82973   0.65896   0.00000  Uiso   1.00
C783   C     0.03347   0.84924   0.89278   0.00000  Uiso   1.00
C784   C     0.30268   0.82754   0.60641   0.00000  Uiso   1.00
C785   C     0.02655   0.90511   0.96533   0.00000  Uiso   1.00
C786   C     0.32242   0.79353   0.52610   0.00000  Uiso   1.00
C787   C     0.00452   0.88606   0.91918   0.00000  Uiso   1.00
C788   C     0.00501   0.80174   0.57551   0.00000  Uiso   1.00
C789   C     0.08258   0.83042   0.91285   0.00000  Uiso   1.00
C790   C     0.25426   0.84886   0.58755   0.00000  Uiso   1.00
C791   C     0.10907   0.85340   0.95607   0.00000  Uiso   1.00
C792   C     0.31854   0.73528   0.75112   0.00000  Uiso   1.00
C793   C     0.23758   0.84162   0.53815   0.00000  Uiso   1.00
C794   C     0.07922   0.88968   0.98362   0.00000  Uiso   1.00
C795   C     0.27111   0.81145   0.50763   0.00000  Uiso   1.00
C796   C     0.16450   0.84141   0.97214   0.00000  Uiso   1.00
C797   C     0.18601   0.85996   0.51940   0.00000  Uiso   1.00
C798   C     0.07457   0.67244   0.78389   0.00000  Uiso   1.00
C799   C     0.25878   0.99421   0.71609   0.00000  Uiso   1.00
C800   C     0.15526   0.89608   0.54630   0.00000  Uiso   1.00
C801   C     0.19972   0.81278   0.94195   0.00000  Uiso   1.00
C802   C     0.10294   0.91090   0.52838   0.00000  Uiso   1.00
C803   C     0.25235   0.79850   0.95947   0.00000  Uiso   1.00
C804   C     0.02239   0.98571   0.75581   0.00000  Uiso   1.00
C805   C     0.31094   0.68095   0.74420   0.00000  Uiso   1.00
C806   C     0.02124   0.83798   0.84098   0.00000  Uiso   1.00
H807   H     0.08097   0.93909   0.54968   0.00000  Uiso   1.00
H808   H     0.18861   0.80210   0.90400   0.00000  Uiso   1.00
H809   H     0.16248   0.79140   0.71394   0.00000  Uiso   1.00
H810   H     0.17085   0.87525   0.78607   0.00000  Uiso   1.00
H811   H     0.27791   0.77622   0.93544   0.00000  Uiso   1.00
H812   H     0.22799   0.86796   0.61290   0.00000  Uiso   1.00
H813   H     0.10064   0.79914   0.89262   0.00000  Uiso   1.00
H814   H     0.04332   0.78568   0.58985   0.00000  Uiso   1.00
H815   H     0.29959   0.90119   0.90361   0.00000  Uiso   1.00
H816   H     0.00373   0.93332   0.98577   0.00000  Uiso   1.00
H817   H     0.01567   0.77162   0.50273   0.00000  Uiso   1.00
H818   H     0.17165   0.91530   0.58057   0.00000  Uiso   1.00
N819   N     0.14695   0.81883   0.73739   0.00000  Uiso   1.00
N820   N     0.18638   0.84784   0.76260   0.00000  Uiso   1.00
N821   N     0.11600   0.68823   0.80620   0.00000  Uiso   1.00
N822   N     0.21737   0.97841   0.69376   0.00000  Uiso   1.00
O823   O     0.29719   0.91298   0.75309   0.00000  Uiso   1.00
O824   O     0.03614   0.75369   0.74690   0.00000  Uiso   1.00
O825   O     0.05822   0.90368   0.74501   0.00000  Uiso   1.00
O826   O     0.27512   0.76298   0.75498   0.00000  Uiso   1.00
O827   O     0.30328   0.84063   0.82247   0.00000  Uiso   1.00
O828   O     0.03005   0.82603   0.67753   0.00000  Uiso   1.00
O829   O     0.06431   0.83134   0.81439   0.00000  Uiso   1.00
O830   O     0.26902   0.83533   0.68561   0.00000  Uiso   1.00
Zn831  Zn    0.27033   0.83954   0.75539   0.00000  Uiso   1.00
Zn832  Zn    0.06300   0.82713   0.74460   0.00000  Uiso   1.00
C833   C     0.34813   0.93138   0.74889   0.00000  Uiso   1.00
C834   C     0.64566   0.82973   0.65896   0.00000  Uiso   1.00
C835   C     0.36681   0.84924   0.89278   0.00000  Uiso   1.00
C836   C     0.63601   0.82754   0.60641   0.00000  Uiso   1.00
C837   C     0.35988   0.90511   0.96533   0.00000  Uiso   1.00
C838   C     0.65575   0.79353   0.52610   0.00000  Uiso   1.00
C839   C     0.33785   0.88606   0.91918   0.00000  Uiso   1.00
C840   C     0.33834   0.80174   0.57551   0.00000  Uiso   1.00
C841   C     0.41592   0.83042   0.91285   0.00000  Uiso   1.00
C842   C     0.58760   0.84886   0.58755   0.00000  Uiso   1.00
C843   C     0.44240   0.85340   0.95607   0.00000  Uiso   1.00
C844   C     0.65187   0.73528   0.75112   0.00000  Uiso   1.00
C845   C     0.57092   0.84162   0.53815   0.00000  Uiso   1.00
C846   C     0.41256   0.88968   0.98362   0.00000  Uiso   1.00
C847   C     0.60444   0.81145   0.50763   0.00000  Uiso   1.00
C848   C     0.49783   0.84141   0.97214   0.00000  Uiso   1.00
C849   C     0.51934   0.85996   0.51940   0.00000  Uiso   1.00
C850   C     0.40790   0.67244   0.78389   0.00000  Uiso   1.00
C851   C     0.59211   0.99421   0.71609   0.00000  Uiso   1.00
C852   C     0.48860   0.89608   0.54630   0.00000  Uiso   1.00
C853   C     0.53306   0.81278   0.94195   0.00000  Uiso   1.00
C854   C     0.43627   0.91090   0.52838   0.00000  Uiso   1.00
C855   C     0.58568   0.79850   0.95947   0.00000  Uiso   1.00
C856   C     0.35572   0.98571   0.75581   0.00000  Uiso   1.00
C857   C     0.64428   0.68095   0.74420   0.00000  Uiso   1.00
C858   C     0.35457   0.83798   0.84098   0.00000  Uiso   1.00
H859   H     0.41431   0.93909   0.54968   0.00000  Uiso   1.00
H860   H     0.52194   0.80210   0.90400   0.00000  Uiso   1.00
H861   H     0.49582   0.79140   0.71394   0.00000  Uiso   1.00
H862   H     0.50418   0.87525   0.78607   0.00000  Uiso   1.00
H863   H     0.61124   0.77622   0.93544   0.00000  Uiso   1.00
H864   H     0.56132   0.86796   0.61290   0.00000  Uiso   1.00
H865   H     0.43397   0.79914   0.89262   0.00000  Uiso   1.00
H866   H     0.37666   0.78568   0.58985   0.00000  Uiso   1.00
H867   H     0.63292   0.90119   0.90361   0.00000  Uiso   1.00
H868   H     0.33706   0.93332   0.98577   0.00000  Uiso   1.00
H869   H     0.34900   0.77162   0.50273   0.00000  Uiso   1.00
H870   H     0.50499   0.91530   0.58057   0.00000  Uiso   1.00
N871   N     0.48029   0.81883   0.73739   0.00000  Uiso   1.00
N872   N     0.51971   0.84784   0.76260   0.00000  Uiso   1.00
N873   N     0.44933   0.68823   0.80620   0.00000  Uiso   1.00
N874   N     0.55070   0.97841   0.69376   0.00000  Uiso   1.00
O875   O     0.63052   0.91298   0.75309   0.00000  Uiso   1.00
O876   O     0.36948   0.75369   0.74690   0.00000  Uiso   1.00
O877   O     0.39155   0.90368   0.74501   0.00000  Uiso   1.00
O878   O     0.60845   0.76298   0.75498   0.00000  Uiso   1.00
O879   O     0.63662   0.84063   0.82247   0.00000  Uiso   1.00
O880   O     0.36338   0.82603   0.67753   0.00000  Uiso   1.00
O881   O     0.39764   0.83134   0.81439   0.00000  Uiso   1.00
O882   O     0.60236   0.83533   0.68561   0.00000  Uiso   1.00
Zn883  Zn    0.60366   0.83954   0.75539   0.00000  Uiso   1.00
Zn884  Zn    0.39634   0.82713   0.74460   0.00000  Uiso   1.00
C885   C     0.68146   0.93138   0.74889   0.00000  Uiso   1.00
C886   C     0.97900   0.82973   0.65896   0.00000  Uiso   1.00
C887   C     0.70014   0.84924   0.89278   0.00000  Uiso   1.00
C888   C     0.96935   0.82754   0.60641   0.00000  Uiso   1.00
C889   C     0.69321   0.90511   0.96533   0.00000  Uiso   1.00
C890   C     0.98908   0.79353   0.52610   0.00000  Uiso   1.00
C891   C     0.67118   0.88606   0.91918   0.00000  Uiso   1.00
C892   C     0.67167   0.80174   0.57551   0.00000  Uiso   1.00
C893   C     0.74925   0.83042   0.91285   0.00000  Uiso   1.00
C894   C     0.92093   0.84886   0.58755   0.00000  Uiso   1.00
C895   C     0.77573   0.85340   0.95607   0.00000  Uiso   1.00
C896   C     0.98521   0.73528   0.75112   0.00000  Uiso   1.00
C897   C     0.90425   0.84162   0.53815   0.00000  Uiso   1.00
C898   C     0.74589   0.88968   0.98362   0.00000  Uiso   1.00
C899   C     0.93778   0.81145   0.50763   0.00000  Uiso   1.00
C900   C     0.83116   0.84141   0.97214   0.00000  Uiso   1.00
C901   C     0.85268   0.85996   0.51940   0.00000  Uiso   1.00
C902   C     0.74123   0.67244   0.78389   0.00000  Uiso   1.00
C903   C     0.92545   0.99421   0.71609   0.00000  Uiso   1.00
C904   C     0.82193   0.89608   0.54630   0.00000  Uiso   1.00
C905   C     0.86639   0.81278   0.94195   0.00000  Uiso   1.00
C906   C     0.76960   0.91090   0.52838   0.00000  Uiso   1.00
C907   C     0.91902   0.79850   0.95947   0.00000  Uiso   1.00
C908   C     0.68905   0.98571   0.75581   0.00000  Uiso   1.00
C909   C     0.97761   0.68095   0.74420   0.00000  Uiso   1.00
C910   C     0.68790   0.83798   0.84098   0.00000  Uiso   1.00
H911   H     0.74764   0.93909   0.54968   0.00000  Uiso   1.00
H912   H     0.85527   0.80210   0.90400   0.00000  Uiso   1.00
H913   H     0.82915   0.79140   0.71394   0.00000  Uiso   1.00
H914   H     0.83752   0.87525   0.78607   0.00000  Uiso   1.00
H915   H     0.94457   0.77622   0.93544   0.00000  Uiso   1.00
H916   H     0.89466   0.86796   0.61290   0.00000  Uiso   1.00
H917   H     0.76730   0.79914   0.89262   0.00000  Uiso   1.00
H918   H     0.70999   0.78568   0.58985   0.00000  Uiso   1.00
H919   H     0.96625   0.90119   0.90361   0.00000  Uiso   1.00
H920   H     0.67039   0.93332   0.98577   0.00000  Uiso   1.00
H921   H     0.68233   0.77162   0.50273   0.00000  Uiso   1.00
H922   H     0.83832   0.91530   0.58057   0.00000  Uiso   1.00
N923   N     0.81362   0.81883   0.73739   0.00000  Uiso   1.00
N924   N     0.85305   0.84784   0.76260   0.00000  Uiso   1.00
N925   N     0.78266   0.68823   0.80620   0.00000  Uiso   1.00
N926   N     0.88404   0.97841   0.69376   0.00000  Uiso   1.00
O927   O     0.96386   0.91298   0.75309   0.00000  Uiso   1.00
O928   O     0.70281   0.75369   0.74690   0.00000  Uiso   1.00
O929   O     0.72488   0.90368   0.74501   0.00000  Uiso   1.00
O930   O     0.94178   0.76298   0.75498   0.00000  Uiso   1.00
O931   O     0.96995   0.84063   0.82247   0.00000  Uiso   1.00
O932   O     0.69672   0.82603   0.67753   0.00000  Uiso   1.00
O933   O     0.73098   0.83134   0.81439   0.00000  Uiso   1.00
O934   O     0.93569   0.83533   0.68561   0.00000  Uiso   1.00
Zn935  Zn    0.93700   0.83954   0.75539   0.00000  Uiso   1.00
Zn936  Zn    0.72967   0.82713   0.74460   0.00000  Uiso   1.00
loop_
_geom_bond_atom_site_label_1
_geom_bond_atom_site_label_2
_geom_bond_distance
_geom_bond_site_symmetry_2
_ccdc_geom_bond_type
C1     O45     1.293   .     A
C1     C24     1.405   .     S
C1     O147    1.271   1_455 S
C2     C4      1.451   .     S
C2     O50     1.298   .     A
C2     O100    1.290   .     S
C3     C9      1.384   .     A
C3     C7      1.400   .     A
C3     C26     1.448   .     S
C4     C10     1.388   .     A
C4     C60     1.400   .     S
C5     C14     1.404   .     A
C5     H36     1.084   .     S
C5     C7      1.393   .     A
C6     C15     1.403   .     A
C6     C60     1.391   .     S
C6     H89     1.084   .     S
C7     H139    1.083   1_455 S
C8     H34     1.083   .     S
C8     C108    1.400   1_455 S
C8     C110    1.391   1_455 S
C9     H33     1.079   .     S
C9     C11     1.392   .     A
C10    H32     1.077   .     S
C10    C13     1.393   .     A
C11    C16     1.414   .     A
C11    C14     1.418   .     A
C12    C25     1.405   .     S
C12    O46     1.293   .     A
C12    O96     1.271   .     S
C13    C17     1.415   .     A
C13    C15     1.419   .     A
C14    C490    1.389   .     S
C15    C491    1.389   1_554 S
C16    C21     1.418   .     A
C16    C485    1.414   .     S
C17    C20     1.418   .     A
C17    C484    1.414   1_554 S
C18    N41     1.158   .     T
C18    C336    1.459   1_545 S
C19    N42     1.158   .     T
C19    C181    1.459   .     S
C20    H38     1.078   .     S
C20    C22     1.387   .     A
C21    H28     1.078   .     S
C21    C23     1.385   .     A
C22    H27     1.084   .     S
C22    C482    1.389   1_554 S
C23    H31     1.084   .     S
C23    C483    1.389   .     S
C24    C174    1.459   .     S
C24    C285    1.363   1_455 S
C25    C331    1.459   1_545 S
C25    C388    1.363   1_545 S
C26    O49     1.297   .     A
C26    O151    1.291   1_455 S
H29    N39     1.029   .     S
H30    N40     1.029   .     S
H35    C59     1.083   .     S
H37    C110    1.084   1_455 S
N39    Zn52    2.018   .     S
N39    N40     1.293   .     D
N40    Zn51    2.018   .     S
O43    Zn51    1.967   .     S
O43    C53     1.271   .     S
O44    Zn52    1.967   .     S
O44    C116    1.271   1_455 S
O45    Zn52    1.992   .     S
O46    Zn51    1.992   .     S
O47    Zn51    1.962   .     S
O47    C78     1.291   .     S
O48    Zn52    1.962   .     S
O48    C106    1.290   1_455 S
O49    Zn52    1.918   .     S
O50    Zn51    1.918   .     S
C53    O97     1.293   .     A
C53    C76     1.405   .     S
C54    C56     1.451   .     S
C54    O102    1.298   .     A
C54    O152    1.290   .     S
C55    C61     1.384   .     A
C55    C59     1.400   .     A
C55    C78     1.448   .     S
C56    C62     1.388   .     A
C56    C112    1.400   .     S
C57    C66     1.404   .     A
C57    H88     1.084   .     S
C57    C59     1.393   .     A
C58    C67     1.403   .     A
C58    C112    1.391   .     S
C58    H141    1.084   .     S
C60    H86     1.083   .     S
C61    H85     1.079   .     S
C61    C63     1.392   .     A
C62    H84     1.077   .     S
C62    C65     1.393   .     A
C63    C68     1.414   .     A
C63    C66     1.418   .     A
C64    C77     1.405   .     S
C64    O98     1.293   .     A
C64    O148    1.271   .     S
C65    C69     1.415   .     A
C65    C67     1.419   .     A
C66    C542    1.389   .     S
C67    C543    1.389   1_554 S
C68    C73     1.418   .     A
C68    C537    1.414   .     S
C69    C72     1.418   .     A
C69    C536    1.414   1_554 S
C70    N93     1.158   .     T
C70    C388    1.459   1_545 S
C71    N94     1.158   .     T
C71    C233    1.459   .     S
C72    H90     1.078   .     S
C72    C74     1.387   .     A
C73    H80     1.078   .     S
C73    C75     1.385   .     A
C74    H79     1.084   .     S
C74    C534    1.389   1_554 S
C75    H83     1.084   .     S
C75    C535    1.389   .     S
C76    C226    1.459   .     S
C76    C181    1.363   .     S
C77    C383    1.459   1_545 S
C77    C440    1.363   1_545 S
C78    O101    1.297   .     A
H81    N91     1.029   .     S
H82    N92     1.029   .     S
H87    C111    1.083   .     S
N91    Zn104   2.018   .     S
N91    N92     1.293   .     D
N92    Zn103   2.018   .     S
O95    Zn103   1.967   .     S
O95    C105    1.271   .     S
O96    Zn104   1.967   .     S
O97    Zn104   1.992   .     S
O98    Zn103   1.992   .     S
O99    Zn103   1.962   .     S
O99    C130    1.291   .     S
O100   Zn104   1.962   .     S
O101   Zn104   1.918   .     S
O102   Zn103   1.918   .     S
C105   O149    1.293   .     A
C105   C128    1.405   .     S
C106   C108    1.451   .     S
C106   O154    1.298   .     A
C106   O48     1.290   1_655 S
C107   C113    1.384   .     A
C107   C111    1.400   .     A
C107   C130    1.448   .     S
C108   C114    1.388   .     A
C108   C8      1.400   1_655 S
C109   C118    1.404   .     A
C109   H140    1.084   .     S
C109   C111    1.393   .     A
C110   C119    1.403   .     A
C110   C8      1.391   1_655 S
C110   H37     1.084   1_655 S
C112   H138    1.083   .     S
C113   H137    1.079   .     S
C113   C115    1.392   .     A
C114   H136    1.077   .     S
C114   C117    1.393   .     A
C115   C120    1.414   .     A
C115   C118    1.418   .     A
C116   C129    1.405   .     S
C116   O150    1.293   .     A
C116   O44     1.271   1_655 S
C117   C121    1.415   .     A
C117   C119    1.419   .     A
C118   C594    1.389   .     S
C119   C595    1.389   1_554 S
C120   C125    1.418   .     A
C120   C589    1.414   .     S
C121   C124    1.418   .     A
C121   C588    1.414   1_554 S
C122   N145    1.158   .     T
C122   C440    1.459   1_545 S
C123   N146    1.158   .     T
C123   C285    1.459   .     S
C124   H142    1.078   .     S
C124   C126    1.387   .     A
C125   H132    1.078   .     S
C125   C127    1.385   .     A
C126   H131    1.084   .     S
C126   C586    1.389   1_554 S
C127   H135    1.084   .     S
C127   C587    1.389   .     S
C128   C278    1.459   .     S
C128   C233    1.363   .     S
C129   C435    1.459   1_545 S
C129   C336    1.363   1_645 S
C130   O153    1.297   .     A
H133   N143    1.029   .     S
H134   N144    1.029   .     S
H139   C7      1.083   1_655 S
N143   Zn156   2.018   .     S
N143   N144    1.293   .     D
N144   Zn155   2.018   .     S
O147   Zn155   1.967   .     S
O147   C1      1.271   1_655 S
O148   Zn156   1.967   .     S
O149   Zn156   1.992   .     S
O150   Zn155   1.992   .     S
O151   Zn155   1.962   .     S
O151   C26     1.291   1_655 S
O152   Zn156   1.962   .     S
O153   Zn156   1.918   .     S
O154   Zn155   1.918   .     S
C157   O201    1.293   .     A
C157   C180    1.405   .     S
C157   O303    1.271   1_455 S
C158   C160    1.451   .     S
C158   O206    1.298   .     A
C158   O256    1.290   .     S
C159   C165    1.384   .     A
C159   C163    1.400   .     A
C159   C182    1.448   .     S
C160   C166    1.388   .     A
C160   C216    1.400   .     S
C161   C170    1.404   .     A
C161   H192    1.084   .     S
C161   C163    1.393   .     A
C162   C171    1.403   .     A
C162   C216    1.391   .     S
C162   H245    1.084   .     S
C163   H295    1.083   1_455 S
C164   H190    1.083   .     S
C164   C264    1.400   1_455 S
C164   C266    1.391   1_455 S
C165   H189    1.079   .     S
C165   C167    1.392   .     A
C166   H188    1.077   .     S
C166   C169    1.393   .     A
C167   C172    1.414   .     A
C167   C170    1.418   .     A
C168   C181    1.405   .     S
C168   O202    1.293   .     A
C168   O252    1.271   .     S
C169   C173    1.415   .     A
C169   C171    1.419   .     A
C170   C646    1.389   .     S
C171   C647    1.389   1_554 S
C172   C177    1.418   .     A
C172   C641    1.414   .     S
C173   C176    1.418   .     A
C173   C640    1.414   1_554 S
C174   N197    1.158   .     T
C175   N198    1.158   .     T
C175   C337    1.459   .     S
C176   H194    1.078   .     S
C176   C178    1.387   .     A
C177   H184    1.078   .     S
C177   C179    1.385   .     A
C178   H183    1.084   .     S
C178   C638    1.389   1_554 S
C179   H187    1.084   .     S
C179   C639    1.389   .     S
C180   C330    1.459   .     S
C180   C441    1.363   1_455 S
C182   O205    1.297   .     A
C182   O307    1.291   1_455 S
H185   N195    1.029   .     S
H186   N196    1.029   .     S
H191   C215    1.083   .     S
H193   C266    1.084   1_455 S
N195   Zn208   2.018   .     S
N195   N196    1.293   .     D
N196   Zn207   2.018   .     S
O199   Zn207   1.967   .     S
O199   C209    1.271   .     S
O200   Zn208   1.967   .     S
O200   C272    1.271   1_455 S
O201   Zn208   1.992   .     S
O202   Zn207   1.992   .     S
O203   Zn207   1.962   .     S
O203   C234    1.291   .     S
O204   Zn208   1.962   .     S
O204   C262    1.290   1_455 S
O205   Zn208   1.918   .     S
O206   Zn207   1.918   .     S
C209   O253    1.293   .     A
C209   C232    1.405   .     S
C210   C212    1.451   .     S
C210   O258    1.298   .     A
C210   O308    1.290   .     S
C211   C217    1.384   .     A
C211   C215    1.400   .     A
C211   C234    1.448   .     S
C212   C218    1.388   .     A
C212   C268    1.400   .     S
C213   C222    1.404   .     A
C213   H244    1.084   .     S
C213   C215    1.393   .     A
C214   C223    1.403   .     A
C214   C268    1.391   .     S
C214   H297    1.084   .     S
C216   H242    1.083   .     S
C217   H241    1.079   .     S
C217   C219    1.392   .     A
C218   H240    1.077   .     S
C218   C221    1.393   .     A
C219   C224    1.414   .     A
C219   C222    1.418   .     A
C220   C233    1.405   .     S
C220   O254    1.293   .     A
C220   O304    1.271   .     S
C221   C225    1.415   .     A
C221   C223    1.419   .     A
C222   C698    1.389   .     S
C223   C699    1.389   1_554 S
C224   C229    1.418   .     A
C224   C693    1.414   .     S
C225   C228    1.418   .     A
C225   C692    1.414   1_554 S
C226   N249    1.158   .     T
C227   N250    1.158   .     T
C227   C389    1.459   .     S
C228   H246    1.078   .     S
C228   C230    1.387   .     A
C229   H236    1.078   .     S
C229   C231    1.385   .     A
C230   H235    1.084   .     S
C230   C690    1.389   1_554 S
C231   H239    1.084   .     S
C231   C691    1.389   .     S
C232   C382    1.459   .     S
C232   C337    1.363   .     S
C234   O257    1.297   .     A
H237   N247    1.029   .     S
H238   N248    1.029   .     S
H243   C267    1.083   .     S
N247   Zn260   2.018   .     S
N247   N248    1.293   .     D
N248   Zn259   2.018   .     S
O251   Zn259   1.967   .     S
O251   C261    1.271   .     S
O252   Zn260   1.967   .     S
O253   Zn260   1.992   .     S
O254   Zn259   1.992   .     S
O255   Zn259   1.962   .     S
O255   C286    1.291   .     S
O256   Zn260   1.962   .     S
O257   Zn260   1.918   .     S
O258   Zn259   1.918   .     S
C261   O305    1.293   .     A
C261   C284    1.405   .     S
C262   C264    1.451   .     S
C262   O310    1.298   .     A
C262   O204    1.290   1_655 S
C263   C269    1.384   .     A
C263   C267    1.400   .     A
C263   C286    1.448   .     S
C264   C270    1.388   .     A
C264   C164    1.400   1_655 S
C265   C274    1.404   .     A
C265   H296    1.084   .     S
C265   C267    1.393   .     A
C266   C275    1.403   .     A
C266   C164    1.391   1_655 S
C266   H193    1.084   1_655 S
C268   H294    1.083   .     S
C269   H293    1.079   .     S
C269   C271    1.392   .     A
C270   H292    1.077   .     S
C270   C273    1.393   .     A
C271   C276    1.414   .     A
C271   C274    1.418   .     A
C272   C285    1.405   .     S
C272   O306    1.293   .     A
C272   O200    1.271   1_655 S
C273   C277    1.415   .     A
C273   C275    1.419   .     A
C274   C750    1.389   .     S
C275   C751    1.389   1_554 S
C276   C281    1.418   .     A
C276   C745    1.414   .     S
C277   C280    1.418   .     A
C277   C744    1.414   1_554 S
C278   N301    1.158   .     T
C279   N302    1.158   .     T
C279   C441    1.459   .     S
C280   H298    1.078   .     S
C280   C282    1.387   .     A
C281   H288    1.078   .     S
C281   C283    1.385   .     A
C282   H287    1.084   .     S
C282   C742    1.389   1_554 S
C283   H291    1.084   .     S
C283   C743    1.389   .     S
C284   C434    1.459   .     S
C284   C389    1.363   .     S
C285   C24     1.363   1_655 S
C286   O309    1.297   .     A
H289   N299    1.029   .     S
H290   N300    1.029   .     S
H295   C163    1.083   1_655 S
N299   Zn312   2.018   .     S
N299   N300    1.293   .     D
N300   Zn311   2.018   .     S
O303   Zn311   1.967   .     S
O303   C157    1.271   1_655 S
O304   Zn312   1.967   .     S
O305   Zn312   1.992   .     S
O306   Zn311   1.992   .     S
O307   Zn311   1.962   .     S
O307   C182    1.291   1_655 S
O308   Zn312   1.962   .     S
O309   Zn312   1.918   .     S
O310   Zn311   1.918   .     S
C313   O357    1.293   .     A
C313   C336    1.405   .     S
C313   O459    1.271   1_455 S
C314   C316    1.451   .     S
C314   O362    1.298   .     A
C314   O412    1.290   .     S
C315   C321    1.384   .     A
C315   C319    1.400   .     A
C315   C338    1.448   .     S
C316   C322    1.388   .     A
C316   C372    1.400   .     S
C317   C326    1.404   .     A
C317   H348    1.084   .     S
C317   C319    1.393   .     A
C318   C327    1.403   .     A
C318   C372    1.391   .     S
C318   H401    1.084   .     S
C319   H451    1.083   1_455 S
C320   H346    1.083   .     S
C320   C420    1.400   1_455 S
C320   C422    1.391   1_455 S
C321   H345    1.079   .     S
C321   C323    1.392   .     A
C322   H344    1.077   .     S
C322   C325    1.393   .     A
C323   C328    1.414   .     A
C323   C326    1.418   .     A
C324   C337    1.405   .     S
C324   O358    1.293   .     A
C324   O408    1.271   .     S
C325   C329    1.415   .     A
C325   C327    1.419   .     A
C326   C802    1.389   .     S
C327   C803    1.389   1_554 S
C328   C333    1.418   .     A
C328   C797    1.414   .     S
C329   C332    1.418   .     A
C329   C796    1.414   1_554 S
C330   N353    1.158   .     T
C331   N354    1.158   .     T
C331   C25     1.459   1_565 S
C332   H350    1.078   .     S
C332   C334    1.387   .     A
C333   H340    1.078   .     S
C333   C335    1.385   .     A
C334   H339    1.084   .     S
C334   C794    1.389   1_554 S
C335   H343    1.084   .     S
C335   C795    1.389   .     S
C336   C18     1.459   1_565 S
C336   C129    1.363   1_465 S
C338   O361    1.297   .     A
C338   O463    1.291   1_455 S
H341   N351    1.029   .     S
H342   N352    1.029   .     S
H347   C371    1.083   .     S
H349   C422    1.084   1_455 S
N351   Zn364   2.018   .     S
N351   N352    1.293   .     D
N352   Zn363   2.018   .     S
O355   Zn363   1.967   .     S
O355   C365    1.271   .     S
O356   Zn364   1.967   .     S
O356   C428    1.271   1_455 S
O357   Zn364   1.992   .     S
O358   Zn363   1.992   .     S
O359   Zn363   1.962   .     S
O359   C390    1.291   .     S
O360   Zn364   1.962   .     S
O360   C418    1.290   1_455 S
O361   Zn364   1.918   .     S
O362   Zn363   1.918   .     S
C365   O409    1.293   .     A
C365   C388    1.405   .     S
C366   C368    1.451   .     S
C366   O414    1.298   .     A
C366   O464    1.290   .     S
C367   C373    1.384   .     A
C367   C371    1.400   .     A
C367   C390    1.448   .     S
C368   C374    1.388   .     A
C368   C424    1.400   .     S
C369   C378    1.404   .     A
C369   H400    1.084   .     S
C369   C371    1.393   .     A
C370   C379    1.403   .     A
C370   C424    1.391   .     S
C370   H453    1.084   .     S
C372   H398    1.083   .     S
C373   H397    1.079   .     S
C373   C375    1.392   .     A
C374   H396    1.077   .     S
C374   C377    1.393   .     A
C375   C380    1.414   .     A
C375   C378    1.418   .     A
C376   C389    1.405   .     S
C376   O410    1.293   .     A
C376   O460    1.271   .     S
C377   C381    1.415   .     A
C377   C379    1.419   .     A
C378   C854    1.389   .     S
C379   C855    1.389   1_554 S
C380   C385    1.418   .     A
C380   C849    1.414   .     S
C381   C384    1.418   .     A
C381   C848    1.414   1_554 S
C382   N405    1.158   .     T
C383   N406    1.158   .     T
C383   C77     1.459   1_565 S
C384   H402    1.078   .     S
C384   C386    1.387   .     A
C385   H392    1.078   .     S
C385   C387    1.385   .     A
C386   H391    1.084   .     S
C386   C846    1.389   1_554 S
C387   H395    1.084   .     S
C387   C847    1.389   .     S
C388   C70     1.459   1_565 S
C388   C25     1.363   1_565 S
C390   O413    1.297   .     A
H393   N403    1.029   .     S
H394   N404    1.029   .     S
H399   C423    1.083   .     S
N403   Zn416   2.018   .     S
N403   N404    1.293   .     D
N404   Zn415   2.018   .     S
O407   Zn415   1.967   .     S
O407   C417    1.271   .     S
O408   Zn416   1.967   .     S
O409   Zn416   1.992   .     S
O410   Zn415   1.992   .     S
O411   Zn415   1.962   .     S
O411   C442    1.291   .     S
O412   Zn416   1.962   .     S
O413   Zn416   1.918   .     S
O414   Zn415   1.918   .     S
C417   O461    1.293   .     A
C417   C440    1.405   .     S
C418   C420    1.451   .     S
C418   O466    1.298   .     A
C418   O360    1.290   1_655 S
C419   C425    1.384   .     A
C419   C423    1.400   .     A
C419   C442    1.448   .     S
C420   C426    1.388   .     A
C420   C320    1.400   1_655 S
C421   C430    1.404   .     A
C421   H452    1.084   .     S
C421   C423    1.393   .     A
C422   C431    1.403   .     A
C422   C320    1.391   1_655 S
C422   H349    1.084   1_655 S
C424   H450    1.083   .     S
C425   H449    1.079   .     S
C425   C427    1.392   .     A
C426   H448    1.077   .     S
C426   C429    1.393   .     A
C427   C432    1.414   .     A
C427   C430    1.418   .     A
C428   C441    1.405   .     S
C428   O462    1.293   .     A
C428   O356    1.271   1_655 S
C429   C433    1.415   .     A
C429   C431    1.419   .     A
C430   C906    1.389   .     S
C431   C907    1.389   1_554 S
C432   C437    1.418   .     A
C432   C901    1.414   .     S
C433   C436    1.418   .     A
C433   C900    1.414   1_554 S
C434   N457    1.158   .     T
C435   N458    1.158   .     T
C435   C129    1.459   1_565 S
C436   H454    1.078   .     S
C436   C438    1.387   .     A
C437   H444    1.078   .     S
C437   C439    1.385   .     A
C438   H443    1.084   .     S
C438   C898    1.389   1_554 S
C439   H447    1.084   .     S
C439   C899    1.389   .     S
C440   C122    1.459   1_565 S
C440   C77     1.363   1_565 S
C441   C180    1.363   1_655 S
C442   O465    1.297   .     A
H445   N455    1.029   .     S
H446   N456    1.029   .     S
H451   C319    1.083   1_655 S
N455   Zn468   2.018   .     S
N455   N456    1.293   .     D
N456   Zn467   2.018   .     S
O459   Zn467   1.967   .     S
O459   C313    1.271   1_655 S
O460   Zn468   1.967   .     S
O461   Zn468   1.992   .     S
O462   Zn467   1.992   .     S
O463   Zn467   1.962   .     S
O463   C338    1.291   1_655 S
O464   Zn468   1.962   .     S
O465   Zn468   1.918   .     S
O466   Zn467   1.918   .     S
C469   O513    1.293   .     A
C469   C492    1.405   .     S
C469   O615    1.271   1_455 S
C470   C472    1.451   .     S
C470   O518    1.298   .     A
C470   O568    1.290   .     S
C471   C477    1.384   .     A
C471   C475    1.400   .     A
C471   C494    1.448   .     S
C472   C478    1.388   .     A
C472   C528    1.400   .     S
C473   C482    1.404   .     A
C473   H504    1.084   .     S
C473   C475    1.393   .     A
C474   C483    1.403   .     A
C474   C528    1.391   .     S
C474   H557    1.084   .     S
C475   H607    1.083   1_455 S
C476   H502    1.083   .     S
C476   C576    1.400   1_455 S
C476   C578    1.391   1_455 S
C477   H501    1.079   .     S
C477   C479    1.392   .     A
C478   H500    1.077   .     S
C478   C481    1.393   .     A
C479   C484    1.414   .     A
C479   C482    1.418   .     A
C480   C493    1.405   .     S
C480   O514    1.293   .     A
C480   O564    1.271   .     S
C481   C485    1.415   .     A
C481   C483    1.419   .     A
C482   C22     1.389   1_556 S
C484   C489    1.418   .     A
C484   C17     1.414   1_556 S
C485   C488    1.418   .     A
C486   N509    1.158   .     T
C486   C804    1.459   1_545 S
C487   N510    1.158   .     T
C487   C649    1.459   .     S
C488   H506    1.078   .     S
C488   C490    1.387   .     A
C489   H496    1.078   .     S
C489   C491    1.385   .     A
C490   H495    1.084   .     S
C491   H499    1.084   .     S
C491   C15     1.389   1_556 S
C492   C642    1.459   .     S
C492   C753    1.363   1_455 S
C493   C799    1.459   1_545 S
C493   C856    1.363   1_545 S
C494   O517    1.297   .     A
C494   O619    1.291   1_455 S
H497   N507    1.029   .     S
H498   N508    1.029   .     S
H503   C527    1.083   .     S
H505   C578    1.084   1_455 S
N507   Zn520   2.018   .     S
N507   N508    1.293   .     D
N508   Zn519   2.018   .     S
O511   Zn519   1.967   .     S
O511   C521    1.271   .     S
O512   Zn520   1.967   .     S
O512   C584    1.271   1_455 S
O513   Zn520   1.992   .     S
O514   Zn519   1.992   .     S
O515   Zn519   1.962   .     S
O515   C546    1.291   .     S
O516   Zn520   1.962   .     S
O516   C574    1.290   1_455 S
O517   Zn520   1.918   .     S
O518   Zn519   1.918   .     S
C521   O565    1.293   .     A
C521   C544    1.405   .     S
C522   C524    1.451   .     S
C522   O570    1.298   .     A
C522   O620    1.290   .     S
C523   C529    1.384   .     A
C523   C527    1.400   .     A
C523   C546    1.448   .     S
C524   C530    1.388   .     A
C524   C580    1.400   .     S
C525   C534    1.404   .     A
C525   H556    1.084   .     S
C525   C527    1.393   .     A
C526   C535    1.403   .     A
C526   C580    1.391   .     S
C526   H609    1.084   .     S
C528   H554    1.083   .     S
C529   H553    1.079   .     S
C529   C531    1.392   .     A
C530   H552    1.077   .     S
C530   C533    1.393   .     A
C531   C536    1.414   .     A
C531   C534    1.418   .     A
C532   C545    1.405   .     S
C532   O566    1.293   .     A
C532   O616    1.271   .     S
C533   C537    1.415   .     A
C533   C535    1.419   .     A
C534   C74     1.389   1_556 S
C536   C541    1.418   .     A
C536   C69     1.414   1_556 S
C537   C540    1.418   .     A
C538   N561    1.158   .     T
C538   C856    1.459   1_545 S
C539   N562    1.158   .     T
C539   C701    1.459   .     S
C540   H558    1.078   .     S
C540   C542    1.387   .     A
C541   H548    1.078   .     S
C541   C543    1.385   .     A
C542   H547    1.084   .     S
C543   H551    1.084   .     S
C543   C67     1.389   1_556 S
C544   C694    1.459   .     S
C544   C649    1.363   .     S
C545   C851    1.459   1_545 S
C545   C908    1.363   1_545 S
C546   O569    1.297   .     A
H549   N559    1.029   .     S
H550   N560    1.029   .     S
H555   C579    1.083   .     S
N559   Zn572   2.018   .     S
N559   N560    1.293   .     D
N560   Zn571   2.018   .     S
O563   Zn571   1.967   .     S
O563   C573    1.271   .     S
O564   Zn572   1.967   .     S
O565   Zn572   1.992   .     S
O566   Zn571   1.992   .     S
O567   Zn571   1.962   .     S
O567   C598    1.291   .     S
O568   Zn572   1.962   .     S
O569   Zn572   1.918   .     S
O570   Zn571   1.918   .     S
C573   O617    1.293   .     A
C573   C596    1.405   .     S
C574   C576    1.451   .     S
C574   O622    1.298   .     A
C574   O516    1.290   1_655 S
C575   C581    1.384   .     A
C575   C579    1.400   .     A
C575   C598    1.448   .     S
C576   C582    1.388   .     A
C576   C476    1.400   1_655 S
C577   C586    1.404   .     A
C577   H608    1.084   .     S
C577   C579    1.393   .     A
C578   C587    1.403   .     A
C578   C476    1.391   1_655 S
C578   H505    1.084   1_655 S
C580   H606    1.083   .     S
C581   H605    1.079   .     S
C581   C583    1.392   .     A
C582   H604    1.077   .     S
C582   C585    1.393   .     A
C583   C588    1.414   .     A
C583   C586    1.418   .     A
C584   C597    1.405   .     S
C584   O618    1.293   .     A
C584   O512    1.271   1_655 S
C585   C589    1.415   .     A
C585   C587    1.419   .     A
C586   C126    1.389   1_556 S
C588   C593    1.418   .     A
C588   C121    1.414   1_556 S
C589   C592    1.418   .     A
C590   N613    1.158   .     T
C590   C908    1.459   1_545 S
C591   N614    1.158   .     T
C591   C753    1.459   .     S
C592   H610    1.078   .     S
C592   C594    1.387   .     A
C593   H600    1.078   .     S
C593   C595    1.385   .     A
C594   H599    1.084   .     S
C595   H603    1.084   .     S
C595   C119    1.389   1_556 S
C596   C746    1.459   .     S
C596   C701    1.363   .     S
C597   C903    1.459   1_545 S
C597   C804    1.363   1_645 S
C598   O621    1.297   .     A
H601   N611    1.029   .     S
H602   N612    1.029   .     S
H607   C475    1.083   1_655 S
N611   Zn624   2.018   .     S
N611   N612    1.293   .     D
N612   Zn623   2.018   .     S
O615   Zn623   1.967   .     S
O615   C469    1.271   1_655 S
O616   Zn624   1.967   .     S
O617   Zn624   1.992   .     S
O618   Zn623   1.992   .     S
O619   Zn623   1.962   .     S
O619   C494    1.291   1_655 S
O620   Zn624   1.962   .     S
O621   Zn624   1.918   .     S
O622   Zn623   1.918   .     S
C625   O669    1.293   .     A
C625   C648    1.405   .     S
C625   O771    1.271   1_455 S
C626   C628    1.451   .     S
C626   O674    1.298   .     A
C626   O724    1.290   .     S
C627   C633    1.384   .     A
C627   C631    1.400   .     A
C627   C650    1.448   .     S
C628   C634    1.388   .     A
C628   C684    1.400   .     S
C629   C638    1.404   .     A
C629   H660    1.084   .     S
C629   C631    1.393   .     A
C630   C639    1.403   .     A
C630   C684    1.391   .     S
C630   H713    1.084   .     S
C631   H763    1.083   1_455 S
C632   H658    1.083   .     S
C632   C732    1.400   1_455 S
C632   C734    1.391   1_455 S
C633   H657    1.079   .     S
C633   C635    1.392   .     A
C634   H656    1.077   .     S
C634   C637    1.393   .     A
C635   C640    1.414   .     A
C635   C638    1.418   .     A
C636   C649    1.405   .     S
C636   O670    1.293   .     A
C636   O720    1.271   .     S
C637   C641    1.415   .     A
C637   C639    1.419   .     A
C638   C178    1.389   1_556 S
C640   C645    1.418   .     A
C640   C173    1.414   1_556 S
C641   C644    1.418   .     A
C642   N665    1.158   .     T
C643   N666    1.158   .     T
C643   C805    1.459   .     S
C644   H662    1.078   .     S
C644   C646    1.387   .     A
C645   H652    1.078   .     S
C645   C647    1.385   .     A
C646   H651    1.084   .     S
C647   H655    1.084   .     S
C647   C171    1.389   1_556 S
C648   C798    1.459   .     S
C648   C909    1.363   1_455 S
C650   O673    1.297   .     A
C650   O775    1.291   1_455 S
H653   N663    1.029   .     S
H654   N664    1.029   .     S
H659   C683    1.083   .     S
H661   C734    1.084   1_455 S
N663   Zn676   2.018   .     S
N663   N664    1.293   .     D
N664   Zn675   2.018   .     S
O667   Zn675   1.967   .     S
O667   C677    1.271   .     S
O668   Zn676   1.967   .     S
O668   C740    1.271   1_455 S
O669   Zn676   1.992   .     S
O670   Zn675   1.992   .     S
O671   Zn675   1.962   .     S
O671   C702    1.291   .     S
O672   Zn676   1.962   .     S
O672   C730    1.290   1_455 S
O673   Zn676   1.918   .     S
O674   Zn675   1.918   .     S
C677   O721    1.293   .     A
C677   C700    1.405   .     S
C678   C680    1.451   .     S
C678   O726    1.298   .     A
C678   O776    1.290   .     S
C679   C685    1.384   .     A
C679   C683    1.400   .     A
C679   C702    1.448   .     S
C680   C686    1.388   .     A
C680   C736    1.400   .     S
C681   C690    1.404   .     A
C681   H712    1.084   .     S
C681   C683    1.393   .     A
C682   C691    1.403   .     A
C682   C736    1.391   .     S
C682   H765    1.084   .     S
C684   H710    1.083   .     S
C685   H709    1.079   .     S
C685   C687    1.392   .     A
C686   H708    1.077   .     S
C686   C689    1.393   .     A
C687   C692    1.414   .     A
C687   C690    1.418   .     A
C688   C701    1.405   .     S
C688   O722    1.293   .     A
C688   O772    1.271   .     S
C689   C693    1.415   .     A
C689   C691    1.419   .     A
C690   C230    1.389   1_556 S
C692   C697    1.418   .     A
C692   C225    1.414   1_556 S
C693   C696    1.418   .     A
C694   N717    1.158   .     T
C695   N718    1.158   .     T
C695   C857    1.459   .     S
C696   H714    1.078   .     S
C696   C698    1.387   .     A
C697   H704    1.078   .     S
C697   C699    1.385   .     A
C698   H703    1.084   .     S
C699   H707    1.084   .     S
C699   C223    1.389   1_556 S
C700   C850    1.459   .     S
C700   C805    1.363   .     S
C702   O725    1.297   .     A
H705   N715    1.029   .     S
H706   N716    1.029   .     S
H711   C735    1.083   .     S
N715   Zn728   2.018   .     S
N715   N716    1.293   .     D
N716   Zn727   2.018   .     S
O719   Zn727   1.967   .     S
O719   C729    1.271   .     S
O720   Zn728   1.967   .     S
O721   Zn728   1.992   .     S
O722   Zn727   1.992   .     S
O723   Zn727   1.962   .     S
O723   C754    1.291   .     S
O724   Zn728   1.962   .     S
O725   Zn728   1.918   .     S
O726   Zn727   1.918   .     S
C729   O773    1.293   .     A
C729   C752    1.405   .     S
C730   C732    1.451   .     S
C730   O778    1.298   .     A
C730   O672    1.290   1_655 S
C731   C737    1.384   .     A
C731   C735    1.400   .     A
C731   C754    1.448   .     S
C732   C738    1.388   .     A
C732   C632    1.400   1_655 S
C733   C742    1.404   .     A
C733   H764    1.084   .     S
C733   C735    1.393   .     A
C734   C743    1.403   .     A
C734   C632    1.391   1_655 S
C734   H661    1.084   1_655 S
C736   H762    1.083   .     S
C737   H761    1.079   .     S
C737   C739    1.392   .     A
C738   H760    1.077   .     S
C738   C741    1.393   .     A
C739   C744    1.414   .     A
C739   C742    1.418   .     A
C740   C753    1.405   .     S
C740   O774    1.293   .     A
C740   O668    1.271   1_655 S
C741   C745    1.415   .     A
C741   C743    1.419   .     A
C742   C282    1.389   1_556 S
C744   C749    1.418   .     A
C744   C277    1.414   1_556 S
C745   C748    1.418   .     A
C746   N769    1.158   .     T
C747   N770    1.158   .     T
C747   C909    1.459   .     S
C748   H766    1.078   .     S
C748   C750    1.387   .     A
C749   H756    1.078   .     S
C749   C751    1.385   .     A
C750   H755    1.084   .     S
C751   H759    1.084   .     S
C751   C275    1.389   1_556 S
C752   C902    1.459   .     S
C752   C857    1.363   .     S
C753   C492    1.363   1_655 S
C754   O777    1.297   .     A
H757   N767    1.029   .     S
H758   N768    1.029   .     S
H763   C631    1.083   1_655 S
N767   Zn780   2.018   .     S
N767   N768    1.293   .     D
N768   Zn779   2.018   .     S
O771   Zn779   1.967   .     S
O771   C625    1.271   1_655 S
O772   Zn780   1.967   .     S
O773   Zn780   1.992   .     S
O774   Zn779   1.992   .     S
O775   Zn779   1.962   .     S
O775   C650    1.291   1_655 S
O776   Zn780   1.962   .     S
O777   Zn780   1.918   .     S
O778   Zn779   1.918   .     S
C781   O825    1.293   .     A
C781   C804    1.405   .     S
C781   O927    1.271   1_455 S
C782   C784    1.451   .     S
C782   O830    1.298   .     A
C782   O880    1.290   .     S
C783   C789    1.384   .     A
C783   C787    1.400   .     A
C783   C806    1.448   .     S
C784   C790    1.388   .     A
C784   C840    1.400   .     S
C785   C794    1.404   .     A
C785   H816    1.084   .     S
C785   C787    1.393   .     A
C786   C795    1.403   .     A
C786   C840    1.391   .     S
C786   H869    1.084   .     S
C787   H919    1.083   1_455 S
C788   H814    1.083   .     S
C788   C888    1.400   1_455 S
C788   C890    1.391   1_455 S
C789   H813    1.079   .     S
C789   C791    1.392   .     A
C790   H812    1.077   .     S
C790   C793    1.393   .     A
C791   C796    1.414   .     A
C791   C794    1.418   .     A
C792   C805    1.405   .     S
C792   O826    1.293   .     A
C792   O876    1.271   .     S
C793   C797    1.415   .     A
C793   C795    1.419   .     A
C794   C334    1.389   1_556 S
C796   C801    1.418   .     A
C796   C329    1.414   1_556 S
C797   C800    1.418   .     A
C798   N821    1.158   .     T
C799   N822    1.158   .     T
C799   C493    1.459   1_565 S
C800   H818    1.078   .     S
C800   C802    1.387   .     A
C801   H808    1.078   .     S
C801   C803    1.385   .     A
C802   H807    1.084   .     S
C803   H811    1.084   .     S
C803   C327    1.389   1_556 S
C804   C486    1.459   1_565 S
C804   C597    1.363   1_465 S
C806   O829    1.297   .     A
C806   O931    1.291   1_455 S
H809   N819    1.029   .     S
H810   N820    1.029   .     S
H815   C839    1.083   .     S
H817   C890    1.084   1_455 S
N819   Zn832   2.018   .     S
N819   N820    1.293   .     D
N820   Zn831   2.018   .     S
O823   Zn831   1.967   .     S
O823   C833    1.271   .     S
O824   Zn832   1.967   .     S
O824   C896    1.271   1_455 S
O825   Zn832   1.992   .     S
O826   Zn831   1.992   .     S
O827   Zn831   1.962   .     S
O827   C858    1.291   .     S
O828   Zn832   1.962   .     S
O828   C886    1.290   1_455 S
O829   Zn832   1.918   .     S
O830   Zn831   1.918   .     S
C833   O877    1.293   .     A
C833   C856    1.405   .     S
C834   C836    1.451   .     S
C834   O882    1.298   .     A
C834   O932    1.290   .     S
C835   C841    1.384   .     A
C835   C839    1.400   .     A
C835   C858    1.448   .     S
C836   C842    1.388   .     A
C836   C892    1.400   .     S
C837   C846    1.404   .     A
C837   H868    1.084   .     S
C837   C839    1.393   .     A
C838   C847    1.403   .     A
C838   C892    1.391   .     S
C838   H921    1.084   .     S
C840   H866    1.083   .     S
C841   H865    1.079   .     S
C841   C843    1.392   .     A
C842   H864    1.077   .     S
C842   C845    1.393   .     A
C843   C848    1.414   .     A
C843   C846    1.418   .     A
C844   C857    1.405   .     S
C844   O878    1.293   .     A
C844   O928    1.271   .     S
C845   C849    1.415   .     A
C845   C847    1.419   .     A
C846   C386    1.389   1_556 S
C848   C853    1.418   .     A
C848   C381    1.414   1_556 S
C849   C852    1.418   .     A
C850   N873    1.158   .     T
C851   N874    1.158   .     T
C851   C545    1.459   1_565 S
C852   H870    1.078   .     S
C852   C854    1.387   .     A
C853   H860    1.078   .     S
C853   C855    1.385   .     A
C854   H859    1.084   .     S
C855   H863    1.084   .     S
C855   C379    1.389   1_556 S
C856   C538    1.459   1_565 S
C856   C493    1.363   1_565 S
C858   O881    1.297   .     A
H861   N871    1.029   .     S
H862   N872    1.029   .     S
H867   C891    1.083   .     S
N871   Zn884   2.018   .     S
N871   N872    1.293   .     D
N872   Zn883   2.018   .     S
O875   Zn883   1.967   .     S
O875   C885    1.271   .     S
O876   Zn884   1.967   .     S
O877   Zn884   1.992   .     S
O878   Zn883   1.992   .     S
O879   Zn883   1.962   .     S
O879   C910    1.291   .     S
O880   Zn884   1.962   .     S
O881   Zn884   1.918   .     S
O882   Zn883   1.918   .     S
C885   O929    1.293   .     A
C885   C908    1.405   .     S
C886   C888    1.451   .     S
C886   O934    1.298   .     A
C886   O828    1.290   1_655 S
C887   C893    1.384   .     A
C887   C891    1.400   .     A
C887   C910    1.448   .     S
C888   C894    1.388   .     A
C888   C788    1.400   1_655 S
C889   C898    1.404   .     A
C889   H920    1.084   .     S
C889   C891    1.393   .     A
C890   C899    1.403   .     A
C890   C788    1.391   1_655 S
C890   H817    1.084   1_655 S
C892   H918    1.083   .     S
C893   H917    1.079   .     S
C893   C895    1.392   .     A
C894   H916    1.077   .     S
C894   C897    1.393   .     A
C895   C900    1.414   .     A
C895   C898    1.418   .     A
C896   C909    1.405   .     S
C896   O930    1.293   .     A
C896   O824    1.271   1_655 S
C897   C901    1.415   .     A
C897   C899    1.419   .     A
C898   C438    1.389   1_556 S
C900   C905    1.418   .     A
C900   C433    1.414   1_556 S
C901   C904    1.418   .     A
C902   N925    1.158   .     T
C903   N926    1.158   .     T
C903   C597    1.459   1_565 S
C904   H922    1.078   .     S
C904   C906    1.387   .     A
C905   H912    1.078   .     S
C905   C907    1.385   .     A
C906   H911    1.084   .     S
C907   H915    1.084   .     S
C907   C431    1.389   1_556 S
C908   C590    1.459   1_565 S
C908   C545    1.363   1_565 S
C909   C648    1.363   1_655 S
C910   O933    1.297   .     A
H913   N923    1.029   .     S
H914   N924    1.029   .     S
H919   C787    1.083   1_655 S
N923   Zn936   2.018   .     S
N923   N924    1.293   .     D
N924   Zn935   2.018   .     S
O927   Zn935   1.967   .     S
O927   C781    1.271   1_655 S
O928   Zn936   1.967   .     S
O929   Zn936   1.992   .     S
O930   Zn935   1.992   .     S
O931   Zn935   1.962   .     S
O931   C806    1.291   1_655 S
O932   Zn936   1.962   .     S
O933   Zn936   1.918   .     S
O934   Zn935   1.918   .     S
