data_str_m3_o1_o16_pcu_sym.72
_audit_creation_date              2020-01-03
_audit_creation_method            'Materials Studio'
_symmetry_space_group_name_H-M    'P1'
_symmetry_Int_Tables_number       1
_symmetry_cell_setting            triclinic
loop_
_symmetry_equiv_pos_as_xyz
  x,y,z
_cell_length_a                    29.6231
_cell_length_b                    31.9220
_cell_length_c                    26.6727
_cell_angle_alpha                 90.3117
_cell_angle_beta                  71.5420
_cell_angle_gamma                 90.0352
loop_
_atom_site_label
_atom_site_type_symbol
_atom_site_fract_x
_atom_site_fract_y
_atom_site_fract_z
_atom_site_U_iso_or_equiv
_atom_site_adp_type
_atom_site_occupancy
C1     C     0.16663   0.24655   0.25027   0.00000  Uiso   1.00
C2     C     0.12775   0.17260   0.40991   0.00000  Uiso   1.00
C3     C     0.20310   0.31190   0.21460   0.00000  Uiso   1.00
C4     C     0.14115   0.16922   0.35176   0.00000  Uiso   1.00
C5     C     0.20258   0.02147   0.21486   0.00000  Uiso   1.00
C6     C     0.16569   0.04258   0.25243   0.00000  Uiso   1.00
C7     C     0.12888   0.02134   0.29063   0.00000  Uiso   1.00
C8     C     0.12945   0.31129   0.28934   0.00000  Uiso   1.00
C9     C     0.16638   0.29062   0.25139   0.00000  Uiso   1.00
C10    C     0.31475   0.13278   0.23167   0.00000  Uiso   1.00
C11    C     0.02918   0.13280   0.23184   0.00000  Uiso   1.00
C12    C     0.14720   0.15894   0.49080   0.00000  Uiso   1.00
C13    C     0.01909   0.20078   0.26743   0.00000  Uiso   1.00
C14    C     0.30476   0.20097   0.26701   0.00000  Uiso   1.00
C15    C     0.16630   0.08677   0.25099   0.00000  Uiso   1.00
C16    C     0.19257   0.16445   0.14880   0.00000  Uiso   1.00
C17    C     0.26078   0.12430   0.01259   0.00000  Uiso   1.00
C18    C     0.20700   0.15512   0.09276   0.00000  Uiso   1.00
C19    C     0.08001   0.17899   0.44006   0.00000  Uiso   1.00
C20    C     0.06530   0.17303   0.49444   0.00000  Uiso   1.00
C21    C     0.09808   0.16152   0.01945   0.00000  Uiso   1.00
C22    C     0.09036   0.04434   0.33296   0.00000  Uiso   1.00
C23    C     0.16226   0.16601   0.43626   0.00000  Uiso   1.00
C24    C     0.29169   0.13579   0.39139   0.00000  Uiso   1.00
C25    C     0.30364   0.09665   0.48817   0.00000  Uiso   1.00
C26    C     0.18238   0.15124   0.01517   0.00000  Uiso   1.00
C27    C     0.22917   0.13791   0.48499   0.00000  Uiso   1.00
C28    C     0.24302   0.14471   0.42976   0.00000  Uiso   1.00
C29    C     0.21182   0.16714   0.41042   0.00000  Uiso   1.00
C30    C     0.17324   0.16150   0.06772   0.00000  Uiso   1.00
C31    C     0.24973   0.13461   0.06643   0.00000  Uiso   1.00
F32    F     0.28013   0.12414   0.09333   0.00000  Uiso   1.00
F33    F     0.23712   0.04250   0.17761   0.00000  Uiso   1.00
F34    F     0.09498   0.28902   0.32522   0.00000  Uiso   1.00
F35    F     0.29822   0.09890   0.21228   0.00000  Uiso   1.00
F36    F     0.27805   0.23576   0.28387   0.00000  Uiso   1.00
F37    F     0.04775   0.19169   0.41700   0.00000  Uiso   1.00
F38    F     0.23092   0.19793   0.37511   0.00000  Uiso   1.00
F39    F     0.23831   0.29107   0.17757   0.00000  Uiso   1.00
H40    H     0.05142   0.10570   0.21713   0.00000  Uiso   1.00
H41    H     0.31862   0.15469   0.40159   0.00000  Uiso   1.00
H42    H     0.29993   0.10192   0.38988   0.00000  Uiso   1.00
H43    H     0.00054   0.11483   0.46254   0.00000  Uiso   1.00
H44    H     0.31658   0.08169   0.01851   0.00000  Uiso   1.00
H45    H     0.29386   0.07045   0.46618   0.00000  Uiso   1.00
H46    H     0.03312   0.22805   0.28164   0.00000  Uiso   1.00
H47    H     0.14050   0.17743   0.08889   0.00000  Uiso   1.00
H48    H     0.08438   0.15458   0.06118   0.00000  Uiso   1.00
H49    H     0.02810   0.17659   0.01728   0.00000  Uiso   1.00
H50    H     0.10669   0.06708   0.35376   0.00000  Uiso   1.00
H51    H     0.06666   0.06124   0.31494   0.00000  Uiso   1.00
H52    H     0.06779   0.02285   0.36318   0.00000  Uiso   1.00
H53    H     0.29377   0.14404   0.35044   0.00000  Uiso   1.00
N54    N     0.04760   0.16668   0.25002   0.00000  Uiso   1.00
N55    N     0.28573   0.16665   0.25001   0.00000  Uiso   1.00
O56    O     0.12846   0.22775   0.25001   0.00000  Uiso   1.00
O57    O     0.20490   0.22774   0.25001   0.00000  Uiso   1.00
O58    O     0.10947   0.16666   0.32681   0.00000  Uiso   1.00
O59    O     0.18591   0.16665   0.32681   0.00000  Uiso   1.00
O60    O     0.12843   0.10559   0.25000   0.00000  Uiso   1.00
O61    O     0.20488   0.10558   0.25000   0.00000  Uiso   1.00
O62    O     0.14742   0.16668   0.17319   0.00000  Uiso   1.00
O63    O     0.22387   0.16667   0.17319   0.00000  Uiso   1.00
Zn64   Zn    0.11562   0.16667   0.25000   0.00000  Uiso   1.00
Zn65   Zn    0.21771   0.16666   0.25000   0.00000  Uiso   1.00
C66    C     0.49996   0.24655   0.25027   0.00000  Uiso   1.00
C67    C     0.46109   0.17260   0.40991   0.00000  Uiso   1.00
C68    C     0.53643   0.31190   0.21460   0.00000  Uiso   1.00
C69    C     0.47449   0.16922   0.35176   0.00000  Uiso   1.00
C70    C     0.53591   0.02147   0.21486   0.00000  Uiso   1.00
C71    C     0.49903   0.04258   0.25243   0.00000  Uiso   1.00
C72    C     0.46221   0.02134   0.29063   0.00000  Uiso   1.00
C73    C     0.46279   0.31129   0.28934   0.00000  Uiso   1.00
C74    C     0.49971   0.29062   0.25139   0.00000  Uiso   1.00
C75    C     0.64809   0.13278   0.23167   0.00000  Uiso   1.00
C76    C     0.36251   0.13280   0.23184   0.00000  Uiso   1.00
C77    C     0.48053   0.15894   0.49080   0.00000  Uiso   1.00
C78    C     0.35243   0.20078   0.26743   0.00000  Uiso   1.00
C79    C     0.63810   0.20097   0.26701   0.00000  Uiso   1.00
C80    C     0.49963   0.08677   0.25099   0.00000  Uiso   1.00
C81    C     0.52590   0.16445   0.14880   0.00000  Uiso   1.00
C82    C     0.59412   0.12430   0.01259   0.00000  Uiso   1.00
C83    C     0.54033   0.15512   0.09276   0.00000  Uiso   1.00
C84    C     0.41334   0.17899   0.44006   0.00000  Uiso   1.00
C85    C     0.39863   0.17303   0.49444   0.00000  Uiso   1.00
C86    C     0.43141   0.16152   0.01945   0.00000  Uiso   1.00
C87    C     0.42369   0.04434   0.33296   0.00000  Uiso   1.00
C88    C     0.49559   0.16601   0.43626   0.00000  Uiso   1.00
C89    C     0.62502   0.13579   0.39139   0.00000  Uiso   1.00
C90    C     0.63697   0.09665   0.48817   0.00000  Uiso   1.00
C91    C     0.51571   0.15124   0.01517   0.00000  Uiso   1.00
C92    C     0.56251   0.13791   0.48499   0.00000  Uiso   1.00
C93    C     0.57636   0.14471   0.42976   0.00000  Uiso   1.00
C94    C     0.54516   0.16714   0.41042   0.00000  Uiso   1.00
C95    C     0.50657   0.16150   0.06772   0.00000  Uiso   1.00
C96    C     0.58306   0.13461   0.06643   0.00000  Uiso   1.00
F97    F     0.61347   0.12414   0.09333   0.00000  Uiso   1.00
F98    F     0.57046   0.04250   0.17761   0.00000  Uiso   1.00
F99    F     0.42831   0.28902   0.32522   0.00000  Uiso   1.00
F100   F     0.63156   0.09890   0.21228   0.00000  Uiso   1.00
F101   F     0.61139   0.23576   0.28387   0.00000  Uiso   1.00
F102   F     0.38108   0.19169   0.41700   0.00000  Uiso   1.00
F103   F     0.56425   0.19793   0.37511   0.00000  Uiso   1.00
F104   F     0.57165   0.29107   0.17757   0.00000  Uiso   1.00
H105   H     0.38476   0.10570   0.21713   0.00000  Uiso   1.00
H106   H     0.65195   0.15469   0.40159   0.00000  Uiso   1.00
H107   H     0.63326   0.10192   0.38988   0.00000  Uiso   1.00
H108   H     0.33387   0.11483   0.46254   0.00000  Uiso   1.00
H109   H     0.64991   0.08169   0.01851   0.00000  Uiso   1.00
H110   H     0.62719   0.07045   0.46618   0.00000  Uiso   1.00
H111   H     0.36645   0.22805   0.28164   0.00000  Uiso   1.00
H112   H     0.47383   0.17743   0.08889   0.00000  Uiso   1.00
H113   H     0.41771   0.15458   0.06118   0.00000  Uiso   1.00
H114   H     0.36143   0.17659   0.01728   0.00000  Uiso   1.00
H115   H     0.44002   0.06708   0.35376   0.00000  Uiso   1.00
H116   H     0.40000   0.06124   0.31494   0.00000  Uiso   1.00
H117   H     0.40113   0.02285   0.36318   0.00000  Uiso   1.00
H118   H     0.62710   0.14404   0.35044   0.00000  Uiso   1.00
N119   N     0.38093   0.16668   0.25002   0.00000  Uiso   1.00
N120   N     0.61906   0.16665   0.25001   0.00000  Uiso   1.00
O121   O     0.46179   0.22775   0.25001   0.00000  Uiso   1.00
O122   O     0.53823   0.22774   0.25001   0.00000  Uiso   1.00
O123   O     0.44280   0.16666   0.32681   0.00000  Uiso   1.00
O124   O     0.51924   0.16665   0.32681   0.00000  Uiso   1.00
O125   O     0.46177   0.10559   0.25000   0.00000  Uiso   1.00
O126   O     0.53821   0.10558   0.25000   0.00000  Uiso   1.00
O127   O     0.48076   0.16668   0.17319   0.00000  Uiso   1.00
O128   O     0.55720   0.16667   0.17319   0.00000  Uiso   1.00
Zn129  Zn    0.44896   0.16667   0.25000   0.00000  Uiso   1.00
Zn130  Zn    0.55104   0.16666   0.25000   0.00000  Uiso   1.00
C131   C     0.83329   0.24655   0.25027   0.00000  Uiso   1.00
C132   C     0.79442   0.17260   0.40991   0.00000  Uiso   1.00
C133   C     0.86976   0.31190   0.21460   0.00000  Uiso   1.00
C134   C     0.80782   0.16922   0.35176   0.00000  Uiso   1.00
C135   C     0.86925   0.02147   0.21486   0.00000  Uiso   1.00
C136   C     0.83236   0.04258   0.25243   0.00000  Uiso   1.00
C137   C     0.79555   0.02134   0.29063   0.00000  Uiso   1.00
C138   C     0.79612   0.31129   0.28934   0.00000  Uiso   1.00
C139   C     0.83305   0.29062   0.25139   0.00000  Uiso   1.00
C140   C     0.98142   0.13278   0.23167   0.00000  Uiso   1.00
C141   C     0.69585   0.13280   0.23184   0.00000  Uiso   1.00
C142   C     0.81386   0.15894   0.49080   0.00000  Uiso   1.00
C143   C     0.68576   0.20078   0.26743   0.00000  Uiso   1.00
C144   C     0.97143   0.20097   0.26701   0.00000  Uiso   1.00
C145   C     0.83297   0.08677   0.25099   0.00000  Uiso   1.00
C146   C     0.85923   0.16445   0.14880   0.00000  Uiso   1.00
C147   C     0.92745   0.12430   0.01259   0.00000  Uiso   1.00
C148   C     0.87366   0.15512   0.09276   0.00000  Uiso   1.00
C149   C     0.74667   0.17899   0.44006   0.00000  Uiso   1.00
C150   C     0.73197   0.17303   0.49444   0.00000  Uiso   1.00
C151   C     0.76474   0.16152   0.01945   0.00000  Uiso   1.00
C152   C     0.75702   0.04434   0.33296   0.00000  Uiso   1.00
C153   C     0.82893   0.16601   0.43626   0.00000  Uiso   1.00
C154   C     0.95835   0.13579   0.39139   0.00000  Uiso   1.00
C155   C     0.97030   0.09665   0.48817   0.00000  Uiso   1.00
C156   C     0.84904   0.15124   0.01517   0.00000  Uiso   1.00
C157   C     0.89584   0.13791   0.48499   0.00000  Uiso   1.00
C158   C     0.90969   0.14471   0.42976   0.00000  Uiso   1.00
C159   C     0.87849   0.16714   0.41042   0.00000  Uiso   1.00
C160   C     0.83991   0.16150   0.06772   0.00000  Uiso   1.00
C161   C     0.91639   0.13461   0.06643   0.00000  Uiso   1.00
F162   F     0.94680   0.12414   0.09333   0.00000  Uiso   1.00
F163   F     0.90379   0.04250   0.17761   0.00000  Uiso   1.00
F164   F     0.76164   0.28902   0.32522   0.00000  Uiso   1.00
F165   F     0.96489   0.09890   0.21228   0.00000  Uiso   1.00
F166   F     0.94472   0.23576   0.28387   0.00000  Uiso   1.00
F167   F     0.71442   0.19169   0.41700   0.00000  Uiso   1.00
F168   F     0.89759   0.19793   0.37511   0.00000  Uiso   1.00
F169   F     0.90498   0.29107   0.17757   0.00000  Uiso   1.00
H170   H     0.71809   0.10570   0.21713   0.00000  Uiso   1.00
H171   H     0.98529   0.15469   0.40159   0.00000  Uiso   1.00
H172   H     0.96659   0.10192   0.38988   0.00000  Uiso   1.00
H173   H     0.66720   0.11483   0.46254   0.00000  Uiso   1.00
H174   H     0.98324   0.08169   0.01851   0.00000  Uiso   1.00
H175   H     0.96052   0.07045   0.46618   0.00000  Uiso   1.00
H176   H     0.69978   0.22805   0.28164   0.00000  Uiso   1.00
H177   H     0.80716   0.17743   0.08889   0.00000  Uiso   1.00
H178   H     0.75104   0.15458   0.06118   0.00000  Uiso   1.00
H179   H     0.69477   0.17659   0.01728   0.00000  Uiso   1.00
H180   H     0.77336   0.06708   0.35376   0.00000  Uiso   1.00
H181   H     0.73333   0.06124   0.31494   0.00000  Uiso   1.00
H182   H     0.73446   0.02285   0.36318   0.00000  Uiso   1.00
H183   H     0.96043   0.14404   0.35044   0.00000  Uiso   1.00
N184   N     0.71426   0.16668   0.25002   0.00000  Uiso   1.00
N185   N     0.95239   0.16665   0.25001   0.00000  Uiso   1.00
O186   O     0.79512   0.22775   0.25001   0.00000  Uiso   1.00
O187   O     0.87157   0.22774   0.25001   0.00000  Uiso   1.00
O188   O     0.77613   0.16666   0.32681   0.00000  Uiso   1.00
O189   O     0.85258   0.16665   0.32681   0.00000  Uiso   1.00
O190   O     0.79510   0.10559   0.25000   0.00000  Uiso   1.00
O191   O     0.87154   0.10558   0.25000   0.00000  Uiso   1.00
O192   O     0.81409   0.16668   0.17319   0.00000  Uiso   1.00
O193   O     0.89053   0.16667   0.17319   0.00000  Uiso   1.00
Zn194  Zn    0.78229   0.16667   0.25000   0.00000  Uiso   1.00
Zn195  Zn    0.88438   0.16666   0.25000   0.00000  Uiso   1.00
C196   C     0.16663   0.57988   0.25027   0.00000  Uiso   1.00
C197   C     0.12775   0.50593   0.40991   0.00000  Uiso   1.00
C198   C     0.20310   0.64524   0.21460   0.00000  Uiso   1.00
C199   C     0.14115   0.50255   0.35176   0.00000  Uiso   1.00
C200   C     0.20258   0.35481   0.21486   0.00000  Uiso   1.00
C201   C     0.16569   0.37591   0.25243   0.00000  Uiso   1.00
C202   C     0.12888   0.35467   0.29063   0.00000  Uiso   1.00
C203   C     0.12945   0.64462   0.28934   0.00000  Uiso   1.00
C204   C     0.16638   0.62395   0.25139   0.00000  Uiso   1.00
C205   C     0.31475   0.46611   0.23167   0.00000  Uiso   1.00
C206   C     0.02918   0.46613   0.23184   0.00000  Uiso   1.00
C207   C     0.14720   0.49228   0.49080   0.00000  Uiso   1.00
C208   C     0.01909   0.53412   0.26743   0.00000  Uiso   1.00
C209   C     0.30476   0.53430   0.26701   0.00000  Uiso   1.00
C210   C     0.16630   0.42011   0.25099   0.00000  Uiso   1.00
C211   C     0.19257   0.49778   0.14880   0.00000  Uiso   1.00
C212   C     0.26078   0.45763   0.01259   0.00000  Uiso   1.00
C213   C     0.20700   0.48845   0.09276   0.00000  Uiso   1.00
C214   C     0.08001   0.51232   0.44006   0.00000  Uiso   1.00
C215   C     0.06530   0.50636   0.49444   0.00000  Uiso   1.00
C216   C     0.09808   0.49486   0.01945   0.00000  Uiso   1.00
C217   C     0.09036   0.37767   0.33296   0.00000  Uiso   1.00
C218   C     0.16226   0.49935   0.43626   0.00000  Uiso   1.00
C219   C     0.29169   0.46913   0.39139   0.00000  Uiso   1.00
C220   C     0.30364   0.42999   0.48817   0.00000  Uiso   1.00
C221   C     0.18238   0.48458   0.01517   0.00000  Uiso   1.00
C222   C     0.22917   0.47124   0.48499   0.00000  Uiso   1.00
C223   C     0.24302   0.47804   0.42976   0.00000  Uiso   1.00
C224   C     0.21182   0.50047   0.41042   0.00000  Uiso   1.00
C225   C     0.17324   0.49483   0.06772   0.00000  Uiso   1.00
C226   C     0.24973   0.46794   0.06643   0.00000  Uiso   1.00
F227   F     0.28013   0.45748   0.09333   0.00000  Uiso   1.00
F228   F     0.23712   0.37584   0.17761   0.00000  Uiso   1.00
F229   F     0.09498   0.62236   0.32522   0.00000  Uiso   1.00
F230   F     0.29822   0.43223   0.21228   0.00000  Uiso   1.00
F231   F     0.27805   0.56909   0.28387   0.00000  Uiso   1.00
F232   F     0.04775   0.52503   0.41700   0.00000  Uiso   1.00
F233   F     0.23092   0.53126   0.37511   0.00000  Uiso   1.00
F234   F     0.23831   0.62440   0.17757   0.00000  Uiso   1.00
H235   H     0.05142   0.43904   0.21713   0.00000  Uiso   1.00
H236   H     0.31862   0.48802   0.40159   0.00000  Uiso   1.00
H237   H     0.29993   0.43525   0.38988   0.00000  Uiso   1.00
H238   H     0.00054   0.44817   0.46254   0.00000  Uiso   1.00
H239   H     0.31658   0.41503   0.01851   0.00000  Uiso   1.00
H240   H     0.29386   0.40378   0.46618   0.00000  Uiso   1.00
H241   H     0.03312   0.56138   0.28164   0.00000  Uiso   1.00
H242   H     0.14050   0.51077   0.08889   0.00000  Uiso   1.00
H243   H     0.08438   0.48791   0.06118   0.00000  Uiso   1.00
H244   H     0.02810   0.50992   0.01728   0.00000  Uiso   1.00
H245   H     0.10669   0.40041   0.35376   0.00000  Uiso   1.00
H246   H     0.06666   0.39458   0.31494   0.00000  Uiso   1.00
H247   H     0.06779   0.35618   0.36318   0.00000  Uiso   1.00
H248   H     0.29377   0.47737   0.35044   0.00000  Uiso   1.00
N249   N     0.04760   0.50001   0.25002   0.00000  Uiso   1.00
N250   N     0.28573   0.49998   0.25001   0.00000  Uiso   1.00
O251   O     0.12846   0.56108   0.25001   0.00000  Uiso   1.00
O252   O     0.20490   0.56107   0.25001   0.00000  Uiso   1.00
O253   O     0.10947   0.50000   0.32681   0.00000  Uiso   1.00
O254   O     0.18591   0.49999   0.32681   0.00000  Uiso   1.00
O255   O     0.12843   0.43893   0.25000   0.00000  Uiso   1.00
O256   O     0.20488   0.43892   0.25000   0.00000  Uiso   1.00
O257   O     0.14742   0.50001   0.17319   0.00000  Uiso   1.00
O258   O     0.22387   0.50000   0.17319   0.00000  Uiso   1.00
Zn259  Zn    0.11562   0.50001   0.25000   0.00000  Uiso   1.00
Zn260  Zn    0.21771   0.49999   0.25000   0.00000  Uiso   1.00
C261   C     0.49996   0.57988   0.25027   0.00000  Uiso   1.00
C262   C     0.46109   0.50593   0.40991   0.00000  Uiso   1.00
C263   C     0.53643   0.64524   0.21460   0.00000  Uiso   1.00
C264   C     0.47449   0.50255   0.35176   0.00000  Uiso   1.00
C265   C     0.53591   0.35481   0.21486   0.00000  Uiso   1.00
C266   C     0.49903   0.37591   0.25243   0.00000  Uiso   1.00
C267   C     0.46221   0.35467   0.29063   0.00000  Uiso   1.00
C268   C     0.46279   0.64462   0.28934   0.00000  Uiso   1.00
C269   C     0.49971   0.62395   0.25139   0.00000  Uiso   1.00
C270   C     0.64809   0.46611   0.23167   0.00000  Uiso   1.00
C271   C     0.36251   0.46613   0.23184   0.00000  Uiso   1.00
C272   C     0.48053   0.49228   0.49080   0.00000  Uiso   1.00
C273   C     0.35243   0.53412   0.26743   0.00000  Uiso   1.00
C274   C     0.63810   0.53430   0.26701   0.00000  Uiso   1.00
C275   C     0.49963   0.42011   0.25099   0.00000  Uiso   1.00
C276   C     0.52590   0.49778   0.14880   0.00000  Uiso   1.00
C277   C     0.59412   0.45763   0.01259   0.00000  Uiso   1.00
C278   C     0.54033   0.48845   0.09276   0.00000  Uiso   1.00
C279   C     0.41334   0.51232   0.44006   0.00000  Uiso   1.00
C280   C     0.39863   0.50636   0.49444   0.00000  Uiso   1.00
C281   C     0.43141   0.49486   0.01945   0.00000  Uiso   1.00
C282   C     0.42369   0.37767   0.33296   0.00000  Uiso   1.00
C283   C     0.49559   0.49935   0.43626   0.00000  Uiso   1.00
C284   C     0.62502   0.46913   0.39139   0.00000  Uiso   1.00
C285   C     0.63697   0.42999   0.48817   0.00000  Uiso   1.00
C286   C     0.51571   0.48458   0.01517   0.00000  Uiso   1.00
C287   C     0.56251   0.47124   0.48499   0.00000  Uiso   1.00
C288   C     0.57636   0.47804   0.42976   0.00000  Uiso   1.00
C289   C     0.54516   0.50047   0.41042   0.00000  Uiso   1.00
C290   C     0.50657   0.49483   0.06772   0.00000  Uiso   1.00
C291   C     0.58306   0.46794   0.06643   0.00000  Uiso   1.00
F292   F     0.61347   0.45748   0.09333   0.00000  Uiso   1.00
F293   F     0.57046   0.37584   0.17761   0.00000  Uiso   1.00
F294   F     0.42831   0.62236   0.32522   0.00000  Uiso   1.00
F295   F     0.63156   0.43223   0.21228   0.00000  Uiso   1.00
F296   F     0.61139   0.56909   0.28387   0.00000  Uiso   1.00
F297   F     0.38108   0.52503   0.41700   0.00000  Uiso   1.00
F298   F     0.56425   0.53126   0.37511   0.00000  Uiso   1.00
F299   F     0.57165   0.62440   0.17757   0.00000  Uiso   1.00
H300   H     0.38476   0.43904   0.21713   0.00000  Uiso   1.00
H301   H     0.65195   0.48802   0.40159   0.00000  Uiso   1.00
H302   H     0.63326   0.43525   0.38988   0.00000  Uiso   1.00
H303   H     0.33387   0.44817   0.46254   0.00000  Uiso   1.00
H304   H     0.64991   0.41503   0.01851   0.00000  Uiso   1.00
H305   H     0.62719   0.40378   0.46618   0.00000  Uiso   1.00
H306   H     0.36645   0.56138   0.28164   0.00000  Uiso   1.00
H307   H     0.47383   0.51077   0.08889   0.00000  Uiso   1.00
H308   H     0.41771   0.48791   0.06118   0.00000  Uiso   1.00
H309   H     0.36143   0.50992   0.01728   0.00000  Uiso   1.00
H310   H     0.44002   0.40041   0.35376   0.00000  Uiso   1.00
H311   H     0.40000   0.39458   0.31494   0.00000  Uiso   1.00
H312   H     0.40113   0.35618   0.36318   0.00000  Uiso   1.00
H313   H     0.62710   0.47737   0.35044   0.00000  Uiso   1.00
N314   N     0.38093   0.50001   0.25002   0.00000  Uiso   1.00
N315   N     0.61906   0.49998   0.25001   0.00000  Uiso   1.00
O316   O     0.46179   0.56108   0.25001   0.00000  Uiso   1.00
O317   O     0.53823   0.56107   0.25001   0.00000  Uiso   1.00
O318   O     0.44280   0.50000   0.32681   0.00000  Uiso   1.00
O319   O     0.51924   0.49999   0.32681   0.00000  Uiso   1.00
O320   O     0.46177   0.43893   0.25000   0.00000  Uiso   1.00
O321   O     0.53821   0.43892   0.25000   0.00000  Uiso   1.00
O322   O     0.48076   0.50001   0.17319   0.00000  Uiso   1.00
O323   O     0.55720   0.50000   0.17319   0.00000  Uiso   1.00
Zn324  Zn    0.44896   0.50001   0.25000   0.00000  Uiso   1.00
Zn325  Zn    0.55104   0.49999   0.25000   0.00000  Uiso   1.00
C326   C     0.83329   0.57988   0.25027   0.00000  Uiso   1.00
C327   C     0.79442   0.50593   0.40991   0.00000  Uiso   1.00
C328   C     0.86976   0.64524   0.21460   0.00000  Uiso   1.00
C329   C     0.80782   0.50255   0.35176   0.00000  Uiso   1.00
C330   C     0.86925   0.35481   0.21486   0.00000  Uiso   1.00
C331   C     0.83236   0.37591   0.25243   0.00000  Uiso   1.00
C332   C     0.79555   0.35467   0.29063   0.00000  Uiso   1.00
C333   C     0.79612   0.64462   0.28934   0.00000  Uiso   1.00
C334   C     0.83305   0.62395   0.25139   0.00000  Uiso   1.00
C335   C     0.98142   0.46611   0.23167   0.00000  Uiso   1.00
C336   C     0.69585   0.46613   0.23184   0.00000  Uiso   1.00
C337   C     0.81386   0.49228   0.49080   0.00000  Uiso   1.00
C338   C     0.68576   0.53412   0.26743   0.00000  Uiso   1.00
C339   C     0.97143   0.53430   0.26701   0.00000  Uiso   1.00
C340   C     0.83297   0.42011   0.25099   0.00000  Uiso   1.00
C341   C     0.85923   0.49778   0.14880   0.00000  Uiso   1.00
C342   C     0.92745   0.45763   0.01259   0.00000  Uiso   1.00
C343   C     0.87366   0.48845   0.09276   0.00000  Uiso   1.00
C344   C     0.74667   0.51232   0.44006   0.00000  Uiso   1.00
C345   C     0.73197   0.50636   0.49444   0.00000  Uiso   1.00
C346   C     0.76474   0.49486   0.01945   0.00000  Uiso   1.00
C347   C     0.75702   0.37767   0.33296   0.00000  Uiso   1.00
C348   C     0.82893   0.49935   0.43626   0.00000  Uiso   1.00
C349   C     0.95835   0.46913   0.39139   0.00000  Uiso   1.00
C350   C     0.97030   0.42999   0.48817   0.00000  Uiso   1.00
C351   C     0.84904   0.48458   0.01517   0.00000  Uiso   1.00
C352   C     0.89584   0.47124   0.48499   0.00000  Uiso   1.00
C353   C     0.90969   0.47804   0.42976   0.00000  Uiso   1.00
C354   C     0.87849   0.50047   0.41042   0.00000  Uiso   1.00
C355   C     0.83991   0.49483   0.06772   0.00000  Uiso   1.00
C356   C     0.91639   0.46794   0.06643   0.00000  Uiso   1.00
F357   F     0.94680   0.45748   0.09333   0.00000  Uiso   1.00
F358   F     0.90379   0.37584   0.17761   0.00000  Uiso   1.00
F359   F     0.76164   0.62236   0.32522   0.00000  Uiso   1.00
F360   F     0.96489   0.43223   0.21228   0.00000  Uiso   1.00
F361   F     0.94472   0.56909   0.28387   0.00000  Uiso   1.00
F362   F     0.71442   0.52503   0.41700   0.00000  Uiso   1.00
F363   F     0.89759   0.53126   0.37511   0.00000  Uiso   1.00
F364   F     0.90498   0.62440   0.17757   0.00000  Uiso   1.00
H365   H     0.71809   0.43904   0.21713   0.00000  Uiso   1.00
H366   H     0.98529   0.48802   0.40159   0.00000  Uiso   1.00
H367   H     0.96659   0.43525   0.38988   0.00000  Uiso   1.00
H368   H     0.66720   0.44817   0.46254   0.00000  Uiso   1.00
H369   H     0.98324   0.41503   0.01851   0.00000  Uiso   1.00
H370   H     0.96052   0.40378   0.46618   0.00000  Uiso   1.00
H371   H     0.69978   0.56138   0.28164   0.00000  Uiso   1.00
H372   H     0.80716   0.51077   0.08889   0.00000  Uiso   1.00
H373   H     0.75104   0.48791   0.06118   0.00000  Uiso   1.00
H374   H     0.69477   0.50992   0.01728   0.00000  Uiso   1.00
H375   H     0.77336   0.40041   0.35376   0.00000  Uiso   1.00
H376   H     0.73333   0.39458   0.31494   0.00000  Uiso   1.00
H377   H     0.73446   0.35618   0.36318   0.00000  Uiso   1.00
H378   H     0.96043   0.47737   0.35044   0.00000  Uiso   1.00
N379   N     0.71426   0.50001   0.25002   0.00000  Uiso   1.00
N380   N     0.95239   0.49998   0.25001   0.00000  Uiso   1.00
O381   O     0.79512   0.56108   0.25001   0.00000  Uiso   1.00
O382   O     0.87157   0.56107   0.25001   0.00000  Uiso   1.00
O383   O     0.77613   0.50000   0.32681   0.00000  Uiso   1.00
O384   O     0.85258   0.49999   0.32681   0.00000  Uiso   1.00
O385   O     0.79510   0.43893   0.25000   0.00000  Uiso   1.00
O386   O     0.87154   0.43892   0.25000   0.00000  Uiso   1.00
O387   O     0.81409   0.50001   0.17319   0.00000  Uiso   1.00
O388   O     0.89053   0.50000   0.17319   0.00000  Uiso   1.00
Zn389  Zn    0.78229   0.50001   0.25000   0.00000  Uiso   1.00
Zn390  Zn    0.88438   0.49999   0.25000   0.00000  Uiso   1.00
C391   C     0.16663   0.91322   0.25027   0.00000  Uiso   1.00
C392   C     0.12775   0.83927   0.40991   0.00000  Uiso   1.00
C393   C     0.20310   0.97857   0.21460   0.00000  Uiso   1.00
C394   C     0.14115   0.83588   0.35176   0.00000  Uiso   1.00
C395   C     0.20258   0.68814   0.21486   0.00000  Uiso   1.00
C396   C     0.16569   0.70925   0.25243   0.00000  Uiso   1.00
C397   C     0.12888   0.68800   0.29063   0.00000  Uiso   1.00
C398   C     0.12945   0.97796   0.28934   0.00000  Uiso   1.00
C399   C     0.16638   0.95728   0.25139   0.00000  Uiso   1.00
C400   C     0.31475   0.79944   0.23167   0.00000  Uiso   1.00
C401   C     0.02918   0.79946   0.23184   0.00000  Uiso   1.00
C402   C     0.14720   0.82561   0.49080   0.00000  Uiso   1.00
C403   C     0.01909   0.86745   0.26743   0.00000  Uiso   1.00
C404   C     0.30476   0.86764   0.26701   0.00000  Uiso   1.00
C405   C     0.16630   0.75344   0.25099   0.00000  Uiso   1.00
C406   C     0.19257   0.83111   0.14880   0.00000  Uiso   1.00
C407   C     0.26078   0.79097   0.01259   0.00000  Uiso   1.00
C408   C     0.20700   0.82179   0.09276   0.00000  Uiso   1.00
C409   C     0.08001   0.84565   0.44006   0.00000  Uiso   1.00
C410   C     0.06530   0.83969   0.49444   0.00000  Uiso   1.00
C411   C     0.09808   0.82819   0.01945   0.00000  Uiso   1.00
C412   C     0.09036   0.71100   0.33296   0.00000  Uiso   1.00
C413   C     0.16226   0.83268   0.43626   0.00000  Uiso   1.00
C414   C     0.29169   0.80246   0.39139   0.00000  Uiso   1.00
C415   C     0.30364   0.76332   0.48817   0.00000  Uiso   1.00
C416   C     0.18238   0.81791   0.01517   0.00000  Uiso   1.00
C417   C     0.22917   0.80457   0.48499   0.00000  Uiso   1.00
C418   C     0.24302   0.81138   0.42976   0.00000  Uiso   1.00
C419   C     0.21182   0.83380   0.41042   0.00000  Uiso   1.00
C420   C     0.17324   0.82816   0.06772   0.00000  Uiso   1.00
C421   C     0.24973   0.80128   0.06643   0.00000  Uiso   1.00
F422   F     0.28013   0.79081   0.09333   0.00000  Uiso   1.00
F423   F     0.23712   0.70917   0.17761   0.00000  Uiso   1.00
F424   F     0.09498   0.95569   0.32522   0.00000  Uiso   1.00
F425   F     0.29822   0.76556   0.21228   0.00000  Uiso   1.00
F426   F     0.27805   0.90243   0.28387   0.00000  Uiso   1.00
F427   F     0.04775   0.85836   0.41700   0.00000  Uiso   1.00
F428   F     0.23092   0.86459   0.37511   0.00000  Uiso   1.00
F429   F     0.23831   0.95773   0.17757   0.00000  Uiso   1.00
H430   H     0.05142   0.77237   0.21713   0.00000  Uiso   1.00
H431   H     0.31862   0.82136   0.40159   0.00000  Uiso   1.00
H432   H     0.29993   0.76859   0.38988   0.00000  Uiso   1.00
H433   H     0.00054   0.78150   0.46254   0.00000  Uiso   1.00
H434   H     0.31658   0.74836   0.01851   0.00000  Uiso   1.00
H435   H     0.29386   0.73711   0.46618   0.00000  Uiso   1.00
H436   H     0.03312   0.89471   0.28164   0.00000  Uiso   1.00
H437   H     0.14050   0.84410   0.08889   0.00000  Uiso   1.00
H438   H     0.08438   0.82124   0.06118   0.00000  Uiso   1.00
H439   H     0.02810   0.84326   0.01728   0.00000  Uiso   1.00
H440   H     0.10669   0.73374   0.35376   0.00000  Uiso   1.00
H441   H     0.06666   0.72791   0.31494   0.00000  Uiso   1.00
H442   H     0.06779   0.68951   0.36318   0.00000  Uiso   1.00
H443   H     0.29377   0.81071   0.35044   0.00000  Uiso   1.00
N444   N     0.04760   0.83334   0.25002   0.00000  Uiso   1.00
N445   N     0.28573   0.83331   0.25001   0.00000  Uiso   1.00
O446   O     0.12846   0.89442   0.25001   0.00000  Uiso   1.00
O447   O     0.20490   0.89441   0.25001   0.00000  Uiso   1.00
O448   O     0.10947   0.83333   0.32681   0.00000  Uiso   1.00
O449   O     0.18591   0.83332   0.32681   0.00000  Uiso   1.00
O450   O     0.12843   0.77226   0.25000   0.00000  Uiso   1.00
O451   O     0.20488   0.77225   0.25000   0.00000  Uiso   1.00
O452   O     0.14742   0.83335   0.17319   0.00000  Uiso   1.00
O453   O     0.22387   0.83334   0.17319   0.00000  Uiso   1.00
Zn454  Zn    0.11562   0.83334   0.25000   0.00000  Uiso   1.00
Zn455  Zn    0.21771   0.83333   0.25000   0.00000  Uiso   1.00
C456   C     0.49996   0.91322   0.25027   0.00000  Uiso   1.00
C457   C     0.46109   0.83927   0.40991   0.00000  Uiso   1.00
C458   C     0.53643   0.97857   0.21460   0.00000  Uiso   1.00
C459   C     0.47449   0.83588   0.35176   0.00000  Uiso   1.00
C460   C     0.53591   0.68814   0.21486   0.00000  Uiso   1.00
C461   C     0.49903   0.70925   0.25243   0.00000  Uiso   1.00
C462   C     0.46221   0.68800   0.29063   0.00000  Uiso   1.00
C463   C     0.46279   0.97796   0.28934   0.00000  Uiso   1.00
C464   C     0.49971   0.95728   0.25139   0.00000  Uiso   1.00
C465   C     0.64809   0.79944   0.23167   0.00000  Uiso   1.00
C466   C     0.36251   0.79946   0.23184   0.00000  Uiso   1.00
C467   C     0.48053   0.82561   0.49080   0.00000  Uiso   1.00
C468   C     0.35243   0.86745   0.26743   0.00000  Uiso   1.00
C469   C     0.63810   0.86764   0.26701   0.00000  Uiso   1.00
C470   C     0.49963   0.75344   0.25099   0.00000  Uiso   1.00
C471   C     0.52590   0.83111   0.14880   0.00000  Uiso   1.00
C472   C     0.59412   0.79097   0.01259   0.00000  Uiso   1.00
C473   C     0.54033   0.82179   0.09276   0.00000  Uiso   1.00
C474   C     0.41334   0.84565   0.44006   0.00000  Uiso   1.00
C475   C     0.39863   0.83969   0.49444   0.00000  Uiso   1.00
C476   C     0.43141   0.82819   0.01945   0.00000  Uiso   1.00
C477   C     0.42369   0.71100   0.33296   0.00000  Uiso   1.00
C478   C     0.49559   0.83268   0.43626   0.00000  Uiso   1.00
C479   C     0.62502   0.80246   0.39139   0.00000  Uiso   1.00
C480   C     0.63697   0.76332   0.48817   0.00000  Uiso   1.00
C481   C     0.51571   0.81791   0.01517   0.00000  Uiso   1.00
C482   C     0.56251   0.80457   0.48499   0.00000  Uiso   1.00
C483   C     0.57636   0.81138   0.42976   0.00000  Uiso   1.00
C484   C     0.54516   0.83380   0.41042   0.00000  Uiso   1.00
C485   C     0.50657   0.82816   0.06772   0.00000  Uiso   1.00
C486   C     0.58306   0.80128   0.06643   0.00000  Uiso   1.00
F487   F     0.61347   0.79081   0.09333   0.00000  Uiso   1.00
F488   F     0.57046   0.70917   0.17761   0.00000  Uiso   1.00
F489   F     0.42831   0.95569   0.32522   0.00000  Uiso   1.00
F490   F     0.63156   0.76556   0.21228   0.00000  Uiso   1.00
F491   F     0.61139   0.90243   0.28387   0.00000  Uiso   1.00
F492   F     0.38108   0.85836   0.41700   0.00000  Uiso   1.00
F493   F     0.56425   0.86459   0.37511   0.00000  Uiso   1.00
F494   F     0.57165   0.95773   0.17757   0.00000  Uiso   1.00
H495   H     0.38476   0.77237   0.21713   0.00000  Uiso   1.00
H496   H     0.65195   0.82136   0.40159   0.00000  Uiso   1.00
H497   H     0.63326   0.76859   0.38988   0.00000  Uiso   1.00
H498   H     0.33387   0.78150   0.46254   0.00000  Uiso   1.00
H499   H     0.64991   0.74836   0.01851   0.00000  Uiso   1.00
H500   H     0.62719   0.73711   0.46618   0.00000  Uiso   1.00
H501   H     0.36645   0.89471   0.28164   0.00000  Uiso   1.00
H502   H     0.47383   0.84410   0.08889   0.00000  Uiso   1.00
H503   H     0.41771   0.82124   0.06118   0.00000  Uiso   1.00
H504   H     0.36143   0.84326   0.01728   0.00000  Uiso   1.00
H505   H     0.44002   0.73374   0.35376   0.00000  Uiso   1.00
H506   H     0.40000   0.72791   0.31494   0.00000  Uiso   1.00
H507   H     0.40113   0.68951   0.36318   0.00000  Uiso   1.00
H508   H     0.62710   0.81071   0.35044   0.00000  Uiso   1.00
N509   N     0.38093   0.83334   0.25002   0.00000  Uiso   1.00
N510   N     0.61906   0.83331   0.25001   0.00000  Uiso   1.00
O511   O     0.46179   0.89442   0.25001   0.00000  Uiso   1.00
O512   O     0.53823   0.89441   0.25001   0.00000  Uiso   1.00
O513   O     0.44280   0.83333   0.32681   0.00000  Uiso   1.00
O514   O     0.51924   0.83332   0.32681   0.00000  Uiso   1.00
O515   O     0.46177   0.77226   0.25000   0.00000  Uiso   1.00
O516   O     0.53821   0.77225   0.25000   0.00000  Uiso   1.00
O517   O     0.48076   0.83335   0.17319   0.00000  Uiso   1.00
O518   O     0.55720   0.83334   0.17319   0.00000  Uiso   1.00
Zn519  Zn    0.44896   0.83334   0.25000   0.00000  Uiso   1.00
Zn520  Zn    0.55104   0.83333   0.25000   0.00000  Uiso   1.00
C521   C     0.83329   0.91322   0.25027   0.00000  Uiso   1.00
C522   C     0.79442   0.83927   0.40991   0.00000  Uiso   1.00
C523   C     0.86976   0.97857   0.21460   0.00000  Uiso   1.00
C524   C     0.80782   0.83588   0.35176   0.00000  Uiso   1.00
C525   C     0.86925   0.68814   0.21486   0.00000  Uiso   1.00
C526   C     0.83236   0.70925   0.25243   0.00000  Uiso   1.00
C527   C     0.79555   0.68800   0.29063   0.00000  Uiso   1.00
C528   C     0.79612   0.97796   0.28934   0.00000  Uiso   1.00
C529   C     0.83305   0.95728   0.25139   0.00000  Uiso   1.00
C530   C     0.98142   0.79944   0.23167   0.00000  Uiso   1.00
C531   C     0.69585   0.79946   0.23184   0.00000  Uiso   1.00
C532   C     0.81386   0.82561   0.49080   0.00000  Uiso   1.00
C533   C     0.68576   0.86745   0.26743   0.00000  Uiso   1.00
C534   C     0.97143   0.86764   0.26701   0.00000  Uiso   1.00
C535   C     0.83297   0.75344   0.25099   0.00000  Uiso   1.00
C536   C     0.85923   0.83111   0.14880   0.00000  Uiso   1.00
C537   C     0.92745   0.79097   0.01259   0.00000  Uiso   1.00
C538   C     0.87366   0.82179   0.09276   0.00000  Uiso   1.00
C539   C     0.74667   0.84565   0.44006   0.00000  Uiso   1.00
C540   C     0.73197   0.83969   0.49444   0.00000  Uiso   1.00
C541   C     0.76474   0.82819   0.01945   0.00000  Uiso   1.00
C542   C     0.75702   0.71100   0.33296   0.00000  Uiso   1.00
C543   C     0.82893   0.83268   0.43626   0.00000  Uiso   1.00
C544   C     0.95835   0.80246   0.39139   0.00000  Uiso   1.00
C545   C     0.97030   0.76332   0.48817   0.00000  Uiso   1.00
C546   C     0.84904   0.81791   0.01517   0.00000  Uiso   1.00
C547   C     0.89584   0.80457   0.48499   0.00000  Uiso   1.00
C548   C     0.90969   0.81138   0.42976   0.00000  Uiso   1.00
C549   C     0.87849   0.83380   0.41042   0.00000  Uiso   1.00
C550   C     0.83991   0.82816   0.06772   0.00000  Uiso   1.00
C551   C     0.91639   0.80128   0.06643   0.00000  Uiso   1.00
F552   F     0.94680   0.79081   0.09333   0.00000  Uiso   1.00
F553   F     0.90379   0.70917   0.17761   0.00000  Uiso   1.00
F554   F     0.76164   0.95569   0.32522   0.00000  Uiso   1.00
F555   F     0.96489   0.76556   0.21228   0.00000  Uiso   1.00
F556   F     0.94472   0.90243   0.28387   0.00000  Uiso   1.00
F557   F     0.71442   0.85836   0.41700   0.00000  Uiso   1.00
F558   F     0.89759   0.86459   0.37511   0.00000  Uiso   1.00
F559   F     0.90498   0.95773   0.17757   0.00000  Uiso   1.00
H560   H     0.71809   0.77237   0.21713   0.00000  Uiso   1.00
H561   H     0.98529   0.82136   0.40159   0.00000  Uiso   1.00
H562   H     0.96659   0.76859   0.38988   0.00000  Uiso   1.00
H563   H     0.66720   0.78150   0.46254   0.00000  Uiso   1.00
H564   H     0.98324   0.74836   0.01851   0.00000  Uiso   1.00
H565   H     0.96052   0.73711   0.46618   0.00000  Uiso   1.00
H566   H     0.69978   0.89471   0.28164   0.00000  Uiso   1.00
H567   H     0.80716   0.84410   0.08889   0.00000  Uiso   1.00
H568   H     0.75104   0.82124   0.06118   0.00000  Uiso   1.00
H569   H     0.69477   0.84326   0.01728   0.00000  Uiso   1.00
H570   H     0.77336   0.73374   0.35376   0.00000  Uiso   1.00
H571   H     0.73333   0.72791   0.31494   0.00000  Uiso   1.00
H572   H     0.73446   0.68951   0.36318   0.00000  Uiso   1.00
H573   H     0.96043   0.81071   0.35044   0.00000  Uiso   1.00
N574   N     0.71426   0.83334   0.25002   0.00000  Uiso   1.00
N575   N     0.95239   0.83331   0.25001   0.00000  Uiso   1.00
O576   O     0.79512   0.89442   0.25001   0.00000  Uiso   1.00
O577   O     0.87157   0.89441   0.25001   0.00000  Uiso   1.00
O578   O     0.77613   0.83333   0.32681   0.00000  Uiso   1.00
O579   O     0.85258   0.83332   0.32681   0.00000  Uiso   1.00
O580   O     0.79510   0.77226   0.25000   0.00000  Uiso   1.00
O581   O     0.87154   0.77225   0.25000   0.00000  Uiso   1.00
O582   O     0.81409   0.83335   0.17319   0.00000  Uiso   1.00
O583   O     0.89053   0.83334   0.17319   0.00000  Uiso   1.00
Zn584  Zn    0.78229   0.83334   0.25000   0.00000  Uiso   1.00
Zn585  Zn    0.88438   0.83333   0.25000   0.00000  Uiso   1.00
C586   C     0.16663   0.24655   0.75027   0.00000  Uiso   1.00
C587   C     0.12775   0.17260   0.90991   0.00000  Uiso   1.00
C588   C     0.20310   0.31190   0.71460   0.00000  Uiso   1.00
C589   C     0.14115   0.16922   0.85176   0.00000  Uiso   1.00
C590   C     0.20258   0.02147   0.71486   0.00000  Uiso   1.00
C591   C     0.16569   0.04258   0.75243   0.00000  Uiso   1.00
C592   C     0.12888   0.02134   0.79063   0.00000  Uiso   1.00
C593   C     0.12945   0.31129   0.78934   0.00000  Uiso   1.00
C594   C     0.16638   0.29062   0.75139   0.00000  Uiso   1.00
C595   C     0.31475   0.13278   0.73167   0.00000  Uiso   1.00
C596   C     0.02918   0.13280   0.73184   0.00000  Uiso   1.00
C597   C     0.14720   0.15894   0.99080   0.00000  Uiso   1.00
C598   C     0.01909   0.20078   0.76743   0.00000  Uiso   1.00
C599   C     0.30476   0.20097   0.76701   0.00000  Uiso   1.00
C600   C     0.16630   0.08677   0.75099   0.00000  Uiso   1.00
C601   C     0.19257   0.16445   0.64880   0.00000  Uiso   1.00
C602   C     0.26078   0.12430   0.51259   0.00000  Uiso   1.00
C603   C     0.20700   0.15512   0.59276   0.00000  Uiso   1.00
C604   C     0.08001   0.17899   0.94006   0.00000  Uiso   1.00
C605   C     0.06530   0.17303   0.99444   0.00000  Uiso   1.00
C606   C     0.09808   0.16152   0.51945   0.00000  Uiso   1.00
C607   C     0.09036   0.04434   0.83296   0.00000  Uiso   1.00
C608   C     0.16226   0.16601   0.93626   0.00000  Uiso   1.00
C609   C     0.29169   0.13579   0.89139   0.00000  Uiso   1.00
C610   C     0.30364   0.09665   0.98817   0.00000  Uiso   1.00
C611   C     0.18238   0.15124   0.51517   0.00000  Uiso   1.00
C612   C     0.22917   0.13791   0.98499   0.00000  Uiso   1.00
C613   C     0.24302   0.14471   0.92976   0.00000  Uiso   1.00
C614   C     0.21182   0.16714   0.91042   0.00000  Uiso   1.00
C615   C     0.17324   0.16150   0.56772   0.00000  Uiso   1.00
C616   C     0.24973   0.13461   0.56643   0.00000  Uiso   1.00
F617   F     0.28013   0.12414   0.59333   0.00000  Uiso   1.00
F618   F     0.23712   0.04250   0.67761   0.00000  Uiso   1.00
F619   F     0.09498   0.28902   0.82522   0.00000  Uiso   1.00
F620   F     0.29822   0.09890   0.71228   0.00000  Uiso   1.00
F621   F     0.27805   0.23576   0.78387   0.00000  Uiso   1.00
F622   F     0.04775   0.19169   0.91700   0.00000  Uiso   1.00
F623   F     0.23092   0.19793   0.87511   0.00000  Uiso   1.00
F624   F     0.23831   0.29107   0.67757   0.00000  Uiso   1.00
H625   H     0.05142   0.10570   0.71713   0.00000  Uiso   1.00
H626   H     0.31862   0.15469   0.90159   0.00000  Uiso   1.00
H627   H     0.29993   0.10192   0.88988   0.00000  Uiso   1.00
H628   H     0.00054   0.11483   0.96254   0.00000  Uiso   1.00
H629   H     0.31658   0.08169   0.51851   0.00000  Uiso   1.00
H630   H     0.29386   0.07045   0.96618   0.00000  Uiso   1.00
H631   H     0.03312   0.22805   0.78164   0.00000  Uiso   1.00
H632   H     0.14050   0.17743   0.58889   0.00000  Uiso   1.00
H633   H     0.08438   0.15458   0.56118   0.00000  Uiso   1.00
H634   H     0.02810   0.17659   0.51728   0.00000  Uiso   1.00
H635   H     0.10669   0.06708   0.85376   0.00000  Uiso   1.00
H636   H     0.06666   0.06124   0.81494   0.00000  Uiso   1.00
H637   H     0.06779   0.02285   0.86318   0.00000  Uiso   1.00
H638   H     0.29377   0.14404   0.85044   0.00000  Uiso   1.00
N639   N     0.04760   0.16668   0.75002   0.00000  Uiso   1.00
N640   N     0.28573   0.16665   0.75001   0.00000  Uiso   1.00
O641   O     0.12846   0.22775   0.75001   0.00000  Uiso   1.00
O642   O     0.20490   0.22774   0.75001   0.00000  Uiso   1.00
O643   O     0.10947   0.16666   0.82681   0.00000  Uiso   1.00
O644   O     0.18591   0.16665   0.82681   0.00000  Uiso   1.00
O645   O     0.12843   0.10559   0.75000   0.00000  Uiso   1.00
O646   O     0.20488   0.10558   0.75000   0.00000  Uiso   1.00
O647   O     0.14742   0.16668   0.67319   0.00000  Uiso   1.00
O648   O     0.22387   0.16667   0.67319   0.00000  Uiso   1.00
Zn649  Zn    0.11562   0.16667   0.75000   0.00000  Uiso   1.00
Zn650  Zn    0.21771   0.16666   0.75000   0.00000  Uiso   1.00
C651   C     0.49996   0.24655   0.75027   0.00000  Uiso   1.00
C652   C     0.46109   0.17260   0.90991   0.00000  Uiso   1.00
C653   C     0.53643   0.31190   0.71460   0.00000  Uiso   1.00
C654   C     0.47449   0.16922   0.85176   0.00000  Uiso   1.00
C655   C     0.53591   0.02147   0.71486   0.00000  Uiso   1.00
C656   C     0.49903   0.04258   0.75243   0.00000  Uiso   1.00
C657   C     0.46221   0.02134   0.79063   0.00000  Uiso   1.00
C658   C     0.46279   0.31129   0.78934   0.00000  Uiso   1.00
C659   C     0.49971   0.29062   0.75139   0.00000  Uiso   1.00
C660   C     0.64809   0.13278   0.73167   0.00000  Uiso   1.00
C661   C     0.36251   0.13280   0.73184   0.00000  Uiso   1.00
C662   C     0.48053   0.15894   0.99080   0.00000  Uiso   1.00
C663   C     0.35243   0.20078   0.76743   0.00000  Uiso   1.00
C664   C     0.63810   0.20097   0.76701   0.00000  Uiso   1.00
C665   C     0.49963   0.08677   0.75099   0.00000  Uiso   1.00
C666   C     0.52590   0.16445   0.64880   0.00000  Uiso   1.00
C667   C     0.59412   0.12430   0.51259   0.00000  Uiso   1.00
C668   C     0.54033   0.15512   0.59276   0.00000  Uiso   1.00
C669   C     0.41334   0.17899   0.94006   0.00000  Uiso   1.00
C670   C     0.39863   0.17303   0.99444   0.00000  Uiso   1.00
C671   C     0.43141   0.16152   0.51945   0.00000  Uiso   1.00
C672   C     0.42369   0.04434   0.83296   0.00000  Uiso   1.00
C673   C     0.49559   0.16601   0.93626   0.00000  Uiso   1.00
C674   C     0.62502   0.13579   0.89139   0.00000  Uiso   1.00
C675   C     0.63697   0.09665   0.98817   0.00000  Uiso   1.00
C676   C     0.51571   0.15124   0.51517   0.00000  Uiso   1.00
C677   C     0.56251   0.13791   0.98499   0.00000  Uiso   1.00
C678   C     0.57636   0.14471   0.92976   0.00000  Uiso   1.00
C679   C     0.54516   0.16714   0.91042   0.00000  Uiso   1.00
C680   C     0.50657   0.16150   0.56772   0.00000  Uiso   1.00
C681   C     0.58306   0.13461   0.56643   0.00000  Uiso   1.00
F682   F     0.61347   0.12414   0.59333   0.00000  Uiso   1.00
F683   F     0.57046   0.04250   0.67761   0.00000  Uiso   1.00
F684   F     0.42831   0.28902   0.82522   0.00000  Uiso   1.00
F685   F     0.63156   0.09890   0.71228   0.00000  Uiso   1.00
F686   F     0.61139   0.23576   0.78387   0.00000  Uiso   1.00
F687   F     0.38108   0.19169   0.91700   0.00000  Uiso   1.00
F688   F     0.56425   0.19793   0.87511   0.00000  Uiso   1.00
F689   F     0.57165   0.29107   0.67757   0.00000  Uiso   1.00
H690   H     0.38476   0.10570   0.71713   0.00000  Uiso   1.00
H691   H     0.65195   0.15469   0.90159   0.00000  Uiso   1.00
H692   H     0.63326   0.10192   0.88988   0.00000  Uiso   1.00
H693   H     0.33387   0.11483   0.96254   0.00000  Uiso   1.00
H694   H     0.64991   0.08169   0.51851   0.00000  Uiso   1.00
H695   H     0.62719   0.07045   0.96618   0.00000  Uiso   1.00
H696   H     0.36645   0.22805   0.78164   0.00000  Uiso   1.00
H697   H     0.47383   0.17743   0.58889   0.00000  Uiso   1.00
H698   H     0.41771   0.15458   0.56118   0.00000  Uiso   1.00
H699   H     0.36143   0.17659   0.51728   0.00000  Uiso   1.00
H700   H     0.44002   0.06708   0.85376   0.00000  Uiso   1.00
H701   H     0.40000   0.06124   0.81494   0.00000  Uiso   1.00
H702   H     0.40113   0.02285   0.86318   0.00000  Uiso   1.00
H703   H     0.62710   0.14404   0.85044   0.00000  Uiso   1.00
N704   N     0.38093   0.16668   0.75002   0.00000  Uiso   1.00
N705   N     0.61906   0.16665   0.75001   0.00000  Uiso   1.00
O706   O     0.46179   0.22775   0.75001   0.00000  Uiso   1.00
O707   O     0.53823   0.22774   0.75001   0.00000  Uiso   1.00
O708   O     0.44280   0.16666   0.82681   0.00000  Uiso   1.00
O709   O     0.51924   0.16665   0.82681   0.00000  Uiso   1.00
O710   O     0.46177   0.10559   0.75000   0.00000  Uiso   1.00
O711   O     0.53821   0.10558   0.75000   0.00000  Uiso   1.00
O712   O     0.48076   0.16668   0.67319   0.00000  Uiso   1.00
O713   O     0.55720   0.16667   0.67319   0.00000  Uiso   1.00
Zn714  Zn    0.44896   0.16667   0.75000   0.00000  Uiso   1.00
Zn715  Zn    0.55104   0.16666   0.75000   0.00000  Uiso   1.00
C716   C     0.83329   0.24655   0.75027   0.00000  Uiso   1.00
C717   C     0.79442   0.17260   0.90991   0.00000  Uiso   1.00
C718   C     0.86976   0.31190   0.71460   0.00000  Uiso   1.00
C719   C     0.80782   0.16922   0.85176   0.00000  Uiso   1.00
C720   C     0.86925   0.02147   0.71486   0.00000  Uiso   1.00
C721   C     0.83236   0.04258   0.75243   0.00000  Uiso   1.00
C722   C     0.79555   0.02134   0.79063   0.00000  Uiso   1.00
C723   C     0.79612   0.31129   0.78934   0.00000  Uiso   1.00
C724   C     0.83305   0.29062   0.75139   0.00000  Uiso   1.00
C725   C     0.98142   0.13278   0.73167   0.00000  Uiso   1.00
C726   C     0.69585   0.13280   0.73184   0.00000  Uiso   1.00
C727   C     0.81386   0.15894   0.99080   0.00000  Uiso   1.00
C728   C     0.68576   0.20078   0.76743   0.00000  Uiso   1.00
C729   C     0.97143   0.20097   0.76701   0.00000  Uiso   1.00
C730   C     0.83297   0.08677   0.75099   0.00000  Uiso   1.00
C731   C     0.85923   0.16445   0.64880   0.00000  Uiso   1.00
C732   C     0.92745   0.12430   0.51259   0.00000  Uiso   1.00
C733   C     0.87366   0.15512   0.59276   0.00000  Uiso   1.00
C734   C     0.74667   0.17899   0.94006   0.00000  Uiso   1.00
C735   C     0.73197   0.17303   0.99444   0.00000  Uiso   1.00
C736   C     0.76474   0.16152   0.51945   0.00000  Uiso   1.00
C737   C     0.75702   0.04434   0.83296   0.00000  Uiso   1.00
C738   C     0.82893   0.16601   0.93626   0.00000  Uiso   1.00
C739   C     0.95835   0.13579   0.89139   0.00000  Uiso   1.00
C740   C     0.97030   0.09665   0.98817   0.00000  Uiso   1.00
C741   C     0.84904   0.15124   0.51517   0.00000  Uiso   1.00
C742   C     0.89584   0.13791   0.98499   0.00000  Uiso   1.00
C743   C     0.90969   0.14471   0.92976   0.00000  Uiso   1.00
C744   C     0.87849   0.16714   0.91042   0.00000  Uiso   1.00
C745   C     0.83991   0.16150   0.56772   0.00000  Uiso   1.00
C746   C     0.91639   0.13461   0.56643   0.00000  Uiso   1.00
F747   F     0.94680   0.12414   0.59333   0.00000  Uiso   1.00
F748   F     0.90379   0.04250   0.67761   0.00000  Uiso   1.00
F749   F     0.76164   0.28902   0.82522   0.00000  Uiso   1.00
F750   F     0.96489   0.09890   0.71228   0.00000  Uiso   1.00
F751   F     0.94472   0.23576   0.78387   0.00000  Uiso   1.00
F752   F     0.71442   0.19169   0.91700   0.00000  Uiso   1.00
F753   F     0.89759   0.19793   0.87511   0.00000  Uiso   1.00
F754   F     0.90498   0.29107   0.67757   0.00000  Uiso   1.00
H755   H     0.71809   0.10570   0.71713   0.00000  Uiso   1.00
H756   H     0.98529   0.15469   0.90159   0.00000  Uiso   1.00
H757   H     0.96659   0.10192   0.88988   0.00000  Uiso   1.00
H758   H     0.66720   0.11483   0.96254   0.00000  Uiso   1.00
H759   H     0.98324   0.08169   0.51851   0.00000  Uiso   1.00
H760   H     0.96052   0.07045   0.96618   0.00000  Uiso   1.00
H761   H     0.69978   0.22805   0.78164   0.00000  Uiso   1.00
H762   H     0.80716   0.17743   0.58889   0.00000  Uiso   1.00
H763   H     0.75104   0.15458   0.56118   0.00000  Uiso   1.00
H764   H     0.69477   0.17659   0.51728   0.00000  Uiso   1.00
H765   H     0.77336   0.06708   0.85376   0.00000  Uiso   1.00
H766   H     0.73333   0.06124   0.81494   0.00000  Uiso   1.00
H767   H     0.73446   0.02285   0.86318   0.00000  Uiso   1.00
H768   H     0.96043   0.14404   0.85044   0.00000  Uiso   1.00
N769   N     0.71426   0.16668   0.75002   0.00000  Uiso   1.00
N770   N     0.95239   0.16665   0.75001   0.00000  Uiso   1.00
O771   O     0.79512   0.22775   0.75001   0.00000  Uiso   1.00
O772   O     0.87157   0.22774   0.75001   0.00000  Uiso   1.00
O773   O     0.77613   0.16666   0.82681   0.00000  Uiso   1.00
O774   O     0.85258   0.16665   0.82681   0.00000  Uiso   1.00
O775   O     0.79510   0.10559   0.75000   0.00000  Uiso   1.00
O776   O     0.87154   0.10558   0.75000   0.00000  Uiso   1.00
O777   O     0.81409   0.16668   0.67319   0.00000  Uiso   1.00
O778   O     0.89053   0.16667   0.67319   0.00000  Uiso   1.00
Zn779  Zn    0.78229   0.16667   0.75000   0.00000  Uiso   1.00
Zn780  Zn    0.88438   0.16666   0.75000   0.00000  Uiso   1.00
C781   C     0.16663   0.57988   0.75027   0.00000  Uiso   1.00
C782   C     0.12775   0.50593   0.90991   0.00000  Uiso   1.00
C783   C     0.20310   0.64524   0.71460   0.00000  Uiso   1.00
C784   C     0.14115   0.50255   0.85176   0.00000  Uiso   1.00
C785   C     0.20258   0.35481   0.71486   0.00000  Uiso   1.00
C786   C     0.16569   0.37591   0.75243   0.00000  Uiso   1.00
C787   C     0.12888   0.35467   0.79063   0.00000  Uiso   1.00
C788   C     0.12945   0.64462   0.78934   0.00000  Uiso   1.00
C789   C     0.16638   0.62395   0.75139   0.00000  Uiso   1.00
C790   C     0.31475   0.46611   0.73167   0.00000  Uiso   1.00
C791   C     0.02918   0.46613   0.73184   0.00000  Uiso   1.00
C792   C     0.14720   0.49228   0.99080   0.00000  Uiso   1.00
C793   C     0.01909   0.53412   0.76743   0.00000  Uiso   1.00
C794   C     0.30476   0.53430   0.76701   0.00000  Uiso   1.00
C795   C     0.16630   0.42011   0.75099   0.00000  Uiso   1.00
C796   C     0.19257   0.49778   0.64880   0.00000  Uiso   1.00
C797   C     0.26078   0.45763   0.51259   0.00000  Uiso   1.00
C798   C     0.20700   0.48845   0.59276   0.00000  Uiso   1.00
C799   C     0.08001   0.51232   0.94006   0.00000  Uiso   1.00
C800   C     0.06530   0.50636   0.99444   0.00000  Uiso   1.00
C801   C     0.09808   0.49486   0.51945   0.00000  Uiso   1.00
C802   C     0.09036   0.37767   0.83296   0.00000  Uiso   1.00
C803   C     0.16226   0.49935   0.93626   0.00000  Uiso   1.00
C804   C     0.29169   0.46913   0.89139   0.00000  Uiso   1.00
C805   C     0.30364   0.42999   0.98817   0.00000  Uiso   1.00
C806   C     0.18238   0.48458   0.51517   0.00000  Uiso   1.00
C807   C     0.22917   0.47124   0.98499   0.00000  Uiso   1.00
C808   C     0.24302   0.47804   0.92976   0.00000  Uiso   1.00
C809   C     0.21182   0.50047   0.91042   0.00000  Uiso   1.00
C810   C     0.17324   0.49483   0.56772   0.00000  Uiso   1.00
C811   C     0.24973   0.46794   0.56643   0.00000  Uiso   1.00
F812   F     0.28013   0.45748   0.59333   0.00000  Uiso   1.00
F813   F     0.23712   0.37584   0.67761   0.00000  Uiso   1.00
F814   F     0.09498   0.62236   0.82522   0.00000  Uiso   1.00
F815   F     0.29822   0.43223   0.71228   0.00000  Uiso   1.00
F816   F     0.27805   0.56909   0.78387   0.00000  Uiso   1.00
F817   F     0.04775   0.52503   0.91700   0.00000  Uiso   1.00
F818   F     0.23092   0.53126   0.87511   0.00000  Uiso   1.00
F819   F     0.23831   0.62440   0.67757   0.00000  Uiso   1.00
H820   H     0.05142   0.43904   0.71713   0.00000  Uiso   1.00
H821   H     0.31862   0.48802   0.90159   0.00000  Uiso   1.00
H822   H     0.29993   0.43525   0.88988   0.00000  Uiso   1.00
H823   H     0.00054   0.44817   0.96254   0.00000  Uiso   1.00
H824   H     0.31658   0.41503   0.51851   0.00000  Uiso   1.00
H825   H     0.29386   0.40378   0.96618   0.00000  Uiso   1.00
H826   H     0.03312   0.56138   0.78164   0.00000  Uiso   1.00
H827   H     0.14050   0.51077   0.58889   0.00000  Uiso   1.00
H828   H     0.08438   0.48791   0.56118   0.00000  Uiso   1.00
H829   H     0.02810   0.50992   0.51728   0.00000  Uiso   1.00
H830   H     0.10669   0.40041   0.85376   0.00000  Uiso   1.00
H831   H     0.06666   0.39458   0.81494   0.00000  Uiso   1.00
H832   H     0.06779   0.35618   0.86318   0.00000  Uiso   1.00
H833   H     0.29377   0.47737   0.85044   0.00000  Uiso   1.00
N834   N     0.04760   0.50001   0.75002   0.00000  Uiso   1.00
N835   N     0.28573   0.49998   0.75001   0.00000  Uiso   1.00
O836   O     0.12846   0.56108   0.75001   0.00000  Uiso   1.00
O837   O     0.20490   0.56107   0.75001   0.00000  Uiso   1.00
O838   O     0.10947   0.50000   0.82681   0.00000  Uiso   1.00
O839   O     0.18591   0.49999   0.82681   0.00000  Uiso   1.00
O840   O     0.12843   0.43893   0.75000   0.00000  Uiso   1.00
O841   O     0.20488   0.43892   0.75000   0.00000  Uiso   1.00
O842   O     0.14742   0.50001   0.67319   0.00000  Uiso   1.00
O843   O     0.22387   0.50000   0.67319   0.00000  Uiso   1.00
Zn844  Zn    0.11562   0.50001   0.75000   0.00000  Uiso   1.00
Zn845  Zn    0.21771   0.49999   0.75000   0.00000  Uiso   1.00
C846   C     0.49996   0.57988   0.75027   0.00000  Uiso   1.00
C847   C     0.46109   0.50593   0.90991   0.00000  Uiso   1.00
C848   C     0.53643   0.64524   0.71460   0.00000  Uiso   1.00
C849   C     0.47449   0.50255   0.85176   0.00000  Uiso   1.00
C850   C     0.53591   0.35481   0.71486   0.00000  Uiso   1.00
C851   C     0.49903   0.37591   0.75243   0.00000  Uiso   1.00
C852   C     0.46221   0.35467   0.79063   0.00000  Uiso   1.00
C853   C     0.46279   0.64462   0.78934   0.00000  Uiso   1.00
C854   C     0.49971   0.62395   0.75139   0.00000  Uiso   1.00
C855   C     0.64809   0.46611   0.73167   0.00000  Uiso   1.00
C856   C     0.36251   0.46613   0.73184   0.00000  Uiso   1.00
C857   C     0.48053   0.49228   0.99080   0.00000  Uiso   1.00
C858   C     0.35243   0.53412   0.76743   0.00000  Uiso   1.00
C859   C     0.63810   0.53430   0.76701   0.00000  Uiso   1.00
C860   C     0.49963   0.42011   0.75099   0.00000  Uiso   1.00
C861   C     0.52590   0.49778   0.64880   0.00000  Uiso   1.00
C862   C     0.59412   0.45763   0.51259   0.00000  Uiso   1.00
C863   C     0.54033   0.48845   0.59276   0.00000  Uiso   1.00
C864   C     0.41334   0.51232   0.94006   0.00000  Uiso   1.00
C865   C     0.39863   0.50636   0.99444   0.00000  Uiso   1.00
C866   C     0.43141   0.49486   0.51945   0.00000  Uiso   1.00
C867   C     0.42369   0.37767   0.83296   0.00000  Uiso   1.00
C868   C     0.49559   0.49935   0.93626   0.00000  Uiso   1.00
C869   C     0.62502   0.46913   0.89139   0.00000  Uiso   1.00
C870   C     0.63697   0.42999   0.98817   0.00000  Uiso   1.00
C871   C     0.51571   0.48458   0.51517   0.00000  Uiso   1.00
C872   C     0.56251   0.47124   0.98499   0.00000  Uiso   1.00
C873   C     0.57636   0.47804   0.92976   0.00000  Uiso   1.00
C874   C     0.54516   0.50047   0.91042   0.00000  Uiso   1.00
C875   C     0.50657   0.49483   0.56772   0.00000  Uiso   1.00
C876   C     0.58306   0.46794   0.56643   0.00000  Uiso   1.00
F877   F     0.61347   0.45748   0.59333   0.00000  Uiso   1.00
F878   F     0.57046   0.37584   0.67761   0.00000  Uiso   1.00
F879   F     0.42831   0.62236   0.82522   0.00000  Uiso   1.00
F880   F     0.63156   0.43223   0.71228   0.00000  Uiso   1.00
F881   F     0.61139   0.56909   0.78387   0.00000  Uiso   1.00
F882   F     0.38108   0.52503   0.91700   0.00000  Uiso   1.00
F883   F     0.56425   0.53126   0.87511   0.00000  Uiso   1.00
F884   F     0.57165   0.62440   0.67757   0.00000  Uiso   1.00
H885   H     0.38476   0.43904   0.71713   0.00000  Uiso   1.00
H886   H     0.65195   0.48802   0.90159   0.00000  Uiso   1.00
H887   H     0.63326   0.43525   0.88988   0.00000  Uiso   1.00
H888   H     0.33387   0.44817   0.96254   0.00000  Uiso   1.00
H889   H     0.64991   0.41503   0.51851   0.00000  Uiso   1.00
H890   H     0.62719   0.40378   0.96618   0.00000  Uiso   1.00
H891   H     0.36645   0.56138   0.78164   0.00000  Uiso   1.00
H892   H     0.47383   0.51077   0.58889   0.00000  Uiso   1.00
H893   H     0.41771   0.48791   0.56118   0.00000  Uiso   1.00
H894   H     0.36143   0.50992   0.51728   0.00000  Uiso   1.00
H895   H     0.44002   0.40041   0.85376   0.00000  Uiso   1.00
H896   H     0.40000   0.39458   0.81494   0.00000  Uiso   1.00
H897   H     0.40113   0.35618   0.86318   0.00000  Uiso   1.00
H898   H     0.62710   0.47737   0.85044   0.00000  Uiso   1.00
N899   N     0.38093   0.50001   0.75002   0.00000  Uiso   1.00
N900   N     0.61906   0.49998   0.75001   0.00000  Uiso   1.00
O901   O     0.46179   0.56108   0.75001   0.00000  Uiso   1.00
O902   O     0.53823   0.56107   0.75001   0.00000  Uiso   1.00
O903   O     0.44280   0.50000   0.82681   0.00000  Uiso   1.00
O904   O     0.51924   0.49999   0.82681   0.00000  Uiso   1.00
O905   O     0.46177   0.43893   0.75000   0.00000  Uiso   1.00
O906   O     0.53821   0.43892   0.75000   0.00000  Uiso   1.00
O907   O     0.48076   0.50001   0.67319   0.00000  Uiso   1.00
O908   O     0.55720   0.50000   0.67319   0.00000  Uiso   1.00
Zn909  Zn    0.44896   0.50001   0.75000   0.00000  Uiso   1.00
Zn910  Zn    0.55104   0.49999   0.75000   0.00000  Uiso   1.00
C911   C     0.83329   0.57988   0.75027   0.00000  Uiso   1.00
C912   C     0.79442   0.50593   0.90991   0.00000  Uiso   1.00
C913   C     0.86976   0.64524   0.71460   0.00000  Uiso   1.00
C914   C     0.80782   0.50255   0.85176   0.00000  Uiso   1.00
C915   C     0.86925   0.35481   0.71486   0.00000  Uiso   1.00
C916   C     0.83236   0.37591   0.75243   0.00000  Uiso   1.00
C917   C     0.79555   0.35467   0.79063   0.00000  Uiso   1.00
C918   C     0.79612   0.64462   0.78934   0.00000  Uiso   1.00
C919   C     0.83305   0.62395   0.75139   0.00000  Uiso   1.00
C920   C     0.98142   0.46611   0.73167   0.00000  Uiso   1.00
C921   C     0.69585   0.46613   0.73184   0.00000  Uiso   1.00
C922   C     0.81386   0.49228   0.99080   0.00000  Uiso   1.00
C923   C     0.68576   0.53412   0.76743   0.00000  Uiso   1.00
C924   C     0.97143   0.53430   0.76701   0.00000  Uiso   1.00
C925   C     0.83297   0.42011   0.75099   0.00000  Uiso   1.00
C926   C     0.85923   0.49778   0.64880   0.00000  Uiso   1.00
C927   C     0.92745   0.45763   0.51259   0.00000  Uiso   1.00
C928   C     0.87366   0.48845   0.59276   0.00000  Uiso   1.00
C929   C     0.74667   0.51232   0.94006   0.00000  Uiso   1.00
C930   C     0.73197   0.50636   0.99444   0.00000  Uiso   1.00
C931   C     0.76474   0.49486   0.51945   0.00000  Uiso   1.00
C932   C     0.75702   0.37767   0.83296   0.00000  Uiso   1.00
C933   C     0.82893   0.49935   0.93626   0.00000  Uiso   1.00
C934   C     0.95835   0.46913   0.89139   0.00000  Uiso   1.00
C935   C     0.97030   0.42999   0.98817   0.00000  Uiso   1.00
C936   C     0.84904   0.48458   0.51517   0.00000  Uiso   1.00
C937   C     0.89584   0.47124   0.98499   0.00000  Uiso   1.00
C938   C     0.90969   0.47804   0.92976   0.00000  Uiso   1.00
C939   C     0.87849   0.50047   0.91042   0.00000  Uiso   1.00
C940   C     0.83991   0.49483   0.56772   0.00000  Uiso   1.00
C941   C     0.91639   0.46794   0.56643   0.00000  Uiso   1.00
F942   F     0.94680   0.45748   0.59333   0.00000  Uiso   1.00
F943   F     0.90379   0.37584   0.67761   0.00000  Uiso   1.00
F944   F     0.76164   0.62236   0.82522   0.00000  Uiso   1.00
F945   F     0.96489   0.43223   0.71228   0.00000  Uiso   1.00
F946   F     0.94472   0.56909   0.78387   0.00000  Uiso   1.00
F947   F     0.71442   0.52503   0.91700   0.00000  Uiso   1.00
F948   F     0.89759   0.53126   0.87511   0.00000  Uiso   1.00
F949   F     0.90498   0.62440   0.67757   0.00000  Uiso   1.00
H950   H     0.71809   0.43904   0.71713   0.00000  Uiso   1.00
H951   H     0.98529   0.48802   0.90159   0.00000  Uiso   1.00
H952   H     0.96659   0.43525   0.88988   0.00000  Uiso   1.00
H953   H     0.66720   0.44817   0.96254   0.00000  Uiso   1.00
H954   H     0.98324   0.41503   0.51851   0.00000  Uiso   1.00
H955   H     0.96052   0.40378   0.96618   0.00000  Uiso   1.00
H956   H     0.69978   0.56138   0.78164   0.00000  Uiso   1.00
H957   H     0.80716   0.51077   0.58889   0.00000  Uiso   1.00
H958   H     0.75104   0.48791   0.56118   0.00000  Uiso   1.00
H959   H     0.69477   0.50992   0.51728   0.00000  Uiso   1.00
H960   H     0.77336   0.40041   0.85376   0.00000  Uiso   1.00
H961   H     0.73333   0.39458   0.81494   0.00000  Uiso   1.00
H962   H     0.73446   0.35618   0.86318   0.00000  Uiso   1.00
H963   H     0.96043   0.47737   0.85044   0.00000  Uiso   1.00
N964   N     0.71426   0.50001   0.75002   0.00000  Uiso   1.00
N965   N     0.95239   0.49998   0.75001   0.00000  Uiso   1.00
O966   O     0.79512   0.56108   0.75001   0.00000  Uiso   1.00
O967   O     0.87157   0.56107   0.75001   0.00000  Uiso   1.00
O968   O     0.77613   0.50000   0.82681   0.00000  Uiso   1.00
O969   O     0.85258   0.49999   0.82681   0.00000  Uiso   1.00
O970   O     0.79510   0.43893   0.75000   0.00000  Uiso   1.00
O971   O     0.87154   0.43892   0.75000   0.00000  Uiso   1.00
O972   O     0.81409   0.50001   0.67319   0.00000  Uiso   1.00
O973   O     0.89053   0.50000   0.67319   0.00000  Uiso   1.00
Zn974  Zn    0.78229   0.50001   0.75000   0.00000  Uiso   1.00
Zn975  Zn    0.88438   0.49999   0.75000   0.00000  Uiso   1.00
C976   C     0.16663   0.91322   0.75027   0.00000  Uiso   1.00
C977   C     0.12775   0.83927   0.90991   0.00000  Uiso   1.00
C978   C     0.20310   0.97857   0.71460   0.00000  Uiso   1.00
C979   C     0.14115   0.83588   0.85176   0.00000  Uiso   1.00
C980   C     0.20258   0.68814   0.71486   0.00000  Uiso   1.00
C981   C     0.16569   0.70925   0.75243   0.00000  Uiso   1.00
C982   C     0.12888   0.68800   0.79063   0.00000  Uiso   1.00
C983   C     0.12945   0.97796   0.78934   0.00000  Uiso   1.00
C984   C     0.16638   0.95728   0.75139   0.00000  Uiso   1.00
C985   C     0.31475   0.79944   0.73167   0.00000  Uiso   1.00
C986   C     0.02918   0.79946   0.73184   0.00000  Uiso   1.00
C987   C     0.14720   0.82561   0.99080   0.00000  Uiso   1.00
C988   C     0.01909   0.86745   0.76743   0.00000  Uiso   1.00
C989   C     0.30476   0.86764   0.76701   0.00000  Uiso   1.00
C990   C     0.16630   0.75344   0.75099   0.00000  Uiso   1.00
C991   C     0.19257   0.83111   0.64880   0.00000  Uiso   1.00
C992   C     0.26078   0.79097   0.51259   0.00000  Uiso   1.00
C993   C     0.20700   0.82179   0.59276   0.00000  Uiso   1.00
C994   C     0.08001   0.84565   0.94006   0.00000  Uiso   1.00
C995   C     0.06530   0.83969   0.99444   0.00000  Uiso   1.00
C996   C     0.09808   0.82819   0.51945   0.00000  Uiso   1.00
C997   C     0.09036   0.71100   0.83296   0.00000  Uiso   1.00
C998   C     0.16226   0.83268   0.93626   0.00000  Uiso   1.00
C999   C     0.29169   0.80246   0.89139   0.00000  Uiso   1.00
C1000  C     0.30364   0.76332   0.98817   0.00000  Uiso   1.00
C1001  C     0.18238   0.81791   0.51517   0.00000  Uiso   1.00
C1002  C     0.22917   0.80457   0.98499   0.00000  Uiso   1.00
C1003  C     0.24302   0.81138   0.92976   0.00000  Uiso   1.00
C1004  C     0.21182   0.83380   0.91042   0.00000  Uiso   1.00
C1005  C     0.17324   0.82816   0.56772   0.00000  Uiso   1.00
C1006  C     0.24973   0.80128   0.56643   0.00000  Uiso   1.00
F1007  F     0.28013   0.79081   0.59333   0.00000  Uiso   1.00
F1008  F     0.23712   0.70917   0.67761   0.00000  Uiso   1.00
F1009  F     0.09498   0.95569   0.82522   0.00000  Uiso   1.00
F1010  F     0.29822   0.76556   0.71228   0.00000  Uiso   1.00
F1011  F     0.27805   0.90243   0.78387   0.00000  Uiso   1.00
F1012  F     0.04775   0.85836   0.91700   0.00000  Uiso   1.00
F1013  F     0.23092   0.86459   0.87511   0.00000  Uiso   1.00
F1014  F     0.23831   0.95773   0.67757   0.00000  Uiso   1.00
H1015  H     0.05142   0.77237   0.71713   0.00000  Uiso   1.00
H1016  H     0.31862   0.82136   0.90159   0.00000  Uiso   1.00
H1017  H     0.29993   0.76859   0.88988   0.00000  Uiso   1.00
H1018  H     0.00054   0.78150   0.96254   0.00000  Uiso   1.00
H1019  H     0.31658   0.74836   0.51851   0.00000  Uiso   1.00
H1020  H     0.29386   0.73711   0.96618   0.00000  Uiso   1.00
H1021  H     0.03312   0.89471   0.78164   0.00000  Uiso   1.00
H1022  H     0.14050   0.84410   0.58889   0.00000  Uiso   1.00
H1023  H     0.08438   0.82124   0.56118   0.00000  Uiso   1.00
H1024  H     0.02810   0.84326   0.51728   0.00000  Uiso   1.00
H1025  H     0.10669   0.73374   0.85376   0.00000  Uiso   1.00
H1026  H     0.06666   0.72791   0.81494   0.00000  Uiso   1.00
H1027  H     0.06779   0.68951   0.86318   0.00000  Uiso   1.00
H1028  H     0.29377   0.81071   0.85044   0.00000  Uiso   1.00
N1029  N     0.04760   0.83334   0.75002   0.00000  Uiso   1.00
N1030  N     0.28573   0.83331   0.75001   0.00000  Uiso   1.00
O1031  O     0.12846   0.89442   0.75001   0.00000  Uiso   1.00
O1032  O     0.20490   0.89441   0.75001   0.00000  Uiso   1.00
O1033  O     0.10947   0.83333   0.82681   0.00000  Uiso   1.00
O1034  O     0.18591   0.83332   0.82681   0.00000  Uiso   1.00
O1035  O     0.12843   0.77226   0.75000   0.00000  Uiso   1.00
O1036  O     0.20488   0.77225   0.75000   0.00000  Uiso   1.00
O1037  O     0.14742   0.83335   0.67319   0.00000  Uiso   1.00
O1038  O     0.22387   0.83334   0.67319   0.00000  Uiso   1.00
Zn1039 Zn    0.11562   0.83334   0.75000   0.00000  Uiso   1.00
Zn1040 Zn    0.21771   0.83333   0.75000   0.00000  Uiso   1.00
C1041  C     0.49996   0.91322   0.75027   0.00000  Uiso   1.00
C1042  C     0.46109   0.83927   0.90991   0.00000  Uiso   1.00
C1043  C     0.53643   0.97857   0.71460   0.00000  Uiso   1.00
C1044  C     0.47449   0.83588   0.85176   0.00000  Uiso   1.00
C1045  C     0.53591   0.68814   0.71486   0.00000  Uiso   1.00
C1046  C     0.49903   0.70925   0.75243   0.00000  Uiso   1.00
C1047  C     0.46221   0.68800   0.79063   0.00000  Uiso   1.00
C1048  C     0.46279   0.97796   0.78934   0.00000  Uiso   1.00
C1049  C     0.49971   0.95728   0.75139   0.00000  Uiso   1.00
C1050  C     0.64809   0.79944   0.73167   0.00000  Uiso   1.00
C1051  C     0.36251   0.79946   0.73184   0.00000  Uiso   1.00
C1052  C     0.48053   0.82561   0.99080   0.00000  Uiso   1.00
C1053  C     0.35243   0.86745   0.76743   0.00000  Uiso   1.00
C1054  C     0.63810   0.86764   0.76701   0.00000  Uiso   1.00
C1055  C     0.49963   0.75344   0.75099   0.00000  Uiso   1.00
C1056  C     0.52590   0.83111   0.64880   0.00000  Uiso   1.00
C1057  C     0.59412   0.79097   0.51259   0.00000  Uiso   1.00
C1058  C     0.54033   0.82179   0.59276   0.00000  Uiso   1.00
C1059  C     0.41334   0.84565   0.94006   0.00000  Uiso   1.00
C1060  C     0.39863   0.83969   0.99444   0.00000  Uiso   1.00
C1061  C     0.43141   0.82819   0.51945   0.00000  Uiso   1.00
C1062  C     0.42369   0.71100   0.83296   0.00000  Uiso   1.00
C1063  C     0.49559   0.83268   0.93626   0.00000  Uiso   1.00
C1064  C     0.62502   0.80246   0.89139   0.00000  Uiso   1.00
C1065  C     0.63697   0.76332   0.98817   0.00000  Uiso   1.00
C1066  C     0.51571   0.81791   0.51517   0.00000  Uiso   1.00
C1067  C     0.56251   0.80457   0.98499   0.00000  Uiso   1.00
C1068  C     0.57636   0.81138   0.92976   0.00000  Uiso   1.00
C1069  C     0.54516   0.83380   0.91042   0.00000  Uiso   1.00
C1070  C     0.50657   0.82816   0.56772   0.00000  Uiso   1.00
C1071  C     0.58306   0.80128   0.56643   0.00000  Uiso   1.00
F1072  F     0.61347   0.79081   0.59333   0.00000  Uiso   1.00
F1073  F     0.57046   0.70917   0.67761   0.00000  Uiso   1.00
F1074  F     0.42831   0.95569   0.82522   0.00000  Uiso   1.00
F1075  F     0.63156   0.76556   0.71228   0.00000  Uiso   1.00
F1076  F     0.61139   0.90243   0.78387   0.00000  Uiso   1.00
F1077  F     0.38108   0.85836   0.91700   0.00000  Uiso   1.00
F1078  F     0.56425   0.86459   0.87511   0.00000  Uiso   1.00
F1079  F     0.57165   0.95773   0.67757   0.00000  Uiso   1.00
H1080  H     0.38476   0.77237   0.71713   0.00000  Uiso   1.00
H1081  H     0.65195   0.82136   0.90159   0.00000  Uiso   1.00
H1082  H     0.63326   0.76859   0.88988   0.00000  Uiso   1.00
H1083  H     0.33387   0.78150   0.96254   0.00000  Uiso   1.00
H1084  H     0.64991   0.74836   0.51851   0.00000  Uiso   1.00
H1085  H     0.62719   0.73711   0.96618   0.00000  Uiso   1.00
H1086  H     0.36645   0.89471   0.78164   0.00000  Uiso   1.00
H1087  H     0.47383   0.84410   0.58889   0.00000  Uiso   1.00
H1088  H     0.41771   0.82124   0.56118   0.00000  Uiso   1.00
H1089  H     0.36143   0.84326   0.51728   0.00000  Uiso   1.00
H1090  H     0.44002   0.73374   0.85376   0.00000  Uiso   1.00
H1091  H     0.40000   0.72791   0.81494   0.00000  Uiso   1.00
H1092  H     0.40113   0.68951   0.86318   0.00000  Uiso   1.00
H1093  H     0.62710   0.81071   0.85044   0.00000  Uiso   1.00
N1094  N     0.38093   0.83334   0.75002   0.00000  Uiso   1.00
N1095  N     0.61906   0.83331   0.75001   0.00000  Uiso   1.00
O1096  O     0.46179   0.89442   0.75001   0.00000  Uiso   1.00
O1097  O     0.53823   0.89441   0.75001   0.00000  Uiso   1.00
O1098  O     0.44280   0.83333   0.82681   0.00000  Uiso   1.00
O1099  O     0.51924   0.83332   0.82681   0.00000  Uiso   1.00
O1100  O     0.46177   0.77226   0.75000   0.00000  Uiso   1.00
O1101  O     0.53821   0.77225   0.75000   0.00000  Uiso   1.00
O1102  O     0.48076   0.83335   0.67319   0.00000  Uiso   1.00
O1103  O     0.55720   0.83334   0.67319   0.00000  Uiso   1.00
Zn1104 Zn    0.44896   0.83334   0.75000   0.00000  Uiso   1.00
Zn1105 Zn    0.55104   0.83333   0.75000   0.00000  Uiso   1.00
C1106  C     0.83329   0.91322   0.75027   0.00000  Uiso   1.00
C1107  C     0.79442   0.83927   0.90991   0.00000  Uiso   1.00
C1108  C     0.86976   0.97857   0.71460   0.00000  Uiso   1.00
C1109  C     0.80782   0.83588   0.85176   0.00000  Uiso   1.00
C1110  C     0.86925   0.68814   0.71486   0.00000  Uiso   1.00
C1111  C     0.83236   0.70925   0.75243   0.00000  Uiso   1.00
C1112  C     0.79555   0.68800   0.79063   0.00000  Uiso   1.00
C1113  C     0.79612   0.97796   0.78934   0.00000  Uiso   1.00
C1114  C     0.83305   0.95728   0.75139   0.00000  Uiso   1.00
C1115  C     0.98142   0.79944   0.73167   0.00000  Uiso   1.00
C1116  C     0.69585   0.79946   0.73184   0.00000  Uiso   1.00
C1117  C     0.81386   0.82561   0.99080   0.00000  Uiso   1.00
C1118  C     0.68576   0.86745   0.76743   0.00000  Uiso   1.00
C1119  C     0.97143   0.86764   0.76701   0.00000  Uiso   1.00
C1120  C     0.83297   0.75344   0.75099   0.00000  Uiso   1.00
C1121  C     0.85923   0.83111   0.64880   0.00000  Uiso   1.00
C1122  C     0.92745   0.79097   0.51259   0.00000  Uiso   1.00
C1123  C     0.87366   0.82179   0.59276   0.00000  Uiso   1.00
C1124  C     0.74667   0.84565   0.94006   0.00000  Uiso   1.00
C1125  C     0.73197   0.83969   0.99444   0.00000  Uiso   1.00
C1126  C     0.76474   0.82819   0.51945   0.00000  Uiso   1.00
C1127  C     0.75702   0.71100   0.83296   0.00000  Uiso   1.00
C1128  C     0.82893   0.83268   0.93626   0.00000  Uiso   1.00
C1129  C     0.95835   0.80246   0.89139   0.00000  Uiso   1.00
C1130  C     0.97030   0.76332   0.98817   0.00000  Uiso   1.00
C1131  C     0.84904   0.81791   0.51517   0.00000  Uiso   1.00
C1132  C     0.89584   0.80457   0.98499   0.00000  Uiso   1.00
C1133  C     0.90969   0.81138   0.92976   0.00000  Uiso   1.00
C1134  C     0.87849   0.83380   0.91042   0.00000  Uiso   1.00
C1135  C     0.83991   0.82816   0.56772   0.00000  Uiso   1.00
C1136  C     0.91639   0.80128   0.56643   0.00000  Uiso   1.00
F1137  F     0.94680   0.79081   0.59333   0.00000  Uiso   1.00
F1138  F     0.90379   0.70917   0.67761   0.00000  Uiso   1.00
F1139  F     0.76164   0.95569   0.82522   0.00000  Uiso   1.00
F1140  F     0.96489   0.76556   0.71228   0.00000  Uiso   1.00
F1141  F     0.94472   0.90243   0.78387   0.00000  Uiso   1.00
F1142  F     0.71442   0.85836   0.91700   0.00000  Uiso   1.00
F1143  F     0.89759   0.86459   0.87511   0.00000  Uiso   1.00
F1144  F     0.90498   0.95773   0.67757   0.00000  Uiso   1.00
H1145  H     0.71809   0.77237   0.71713   0.00000  Uiso   1.00
H1146  H     0.98529   0.82136   0.90159   0.00000  Uiso   1.00
H1147  H     0.96659   0.76859   0.88988   0.00000  Uiso   1.00
H1148  H     0.66720   0.78150   0.96254   0.00000  Uiso   1.00
H1149  H     0.98324   0.74836   0.51851   0.00000  Uiso   1.00
H1150  H     0.96052   0.73711   0.96618   0.00000  Uiso   1.00
H1151  H     0.69978   0.89471   0.78164   0.00000  Uiso   1.00
H1152  H     0.80716   0.84410   0.58889   0.00000  Uiso   1.00
H1153  H     0.75104   0.82124   0.56118   0.00000  Uiso   1.00
H1154  H     0.69477   0.84326   0.51728   0.00000  Uiso   1.00
H1155  H     0.77336   0.73374   0.85376   0.00000  Uiso   1.00
H1156  H     0.73333   0.72791   0.81494   0.00000  Uiso   1.00
H1157  H     0.73446   0.68951   0.86318   0.00000  Uiso   1.00
H1158  H     0.96043   0.81071   0.85044   0.00000  Uiso   1.00
N1159  N     0.71426   0.83334   0.75002   0.00000  Uiso   1.00
N1160  N     0.95239   0.83331   0.75001   0.00000  Uiso   1.00
O1161  O     0.79512   0.89442   0.75001   0.00000  Uiso   1.00
O1162  O     0.87157   0.89441   0.75001   0.00000  Uiso   1.00
O1163  O     0.77613   0.83333   0.82681   0.00000  Uiso   1.00
O1164  O     0.85258   0.83332   0.82681   0.00000  Uiso   1.00
O1165  O     0.79510   0.77226   0.75000   0.00000  Uiso   1.00
O1166  O     0.87154   0.77225   0.75000   0.00000  Uiso   1.00
O1167  O     0.81409   0.83335   0.67319   0.00000  Uiso   1.00
O1168  O     0.89053   0.83334   0.67319   0.00000  Uiso   1.00
Zn1169 Zn    0.78229   0.83334   0.75000   0.00000  Uiso   1.00
Zn1170 Zn    0.88438   0.83333   0.75000   0.00000  Uiso   1.00
loop_
_geom_bond_atom_site_label_1
_geom_bond_atom_site_label_2
_geom_bond_distance
_geom_bond_site_symmetry_2
_ccdc_geom_bond_type
C1     O57     1.281   .     A
C1     O56     1.282   .     A
C1     C9      1.407   .     S
C2     C4      1.478   .     S
C2     C23     1.428   .     A
C2     C19     1.403   .     A
C3     C9      1.392   .     A
C3     F39     1.359   .     S
C3     C200    1.370   .     S
C4     O59     1.284   .     A
C4     O58     1.314   .     A
C5     C6      1.397   .     A
C5     F33     1.359   .     S
C5     C393    1.370   1_545 S
C6     C7      1.411   .     A
C6     C15     1.411   .     S
C7     C22     1.514   .     S
C7     C398    1.385   1_545 S
C8     F34     1.361   .     S
C8     C9      1.396   .     A
C8     C202    1.385   .     S
C10    N55     1.370   .     A
C10    F35     1.353   .     S
C10    C76     1.416   .     S
C11    N54     1.365   .     A
C11    H40     1.081   .     S
C11    C140    1.416   1_455 S
C12    C23     1.399   .     A
C12    C606    1.415   .     S
C12    C611    1.414   .     S
C13    N54     1.364   .     A
C13    H46     1.081   .     S
C13    C144    1.416   1_455 S
C14    N55     1.371   .     A
C14    F36     1.354   .     S
C14    C78     1.416   .     S
C15    O60     1.281   .     A
C15    O61     1.283   .     A
C16    O63     1.292   .     A
C16    C18     1.448   .     S
C16    O62     1.291   .     A
C17    C31     1.405   .     A
C17    C610    1.512   1_554 S
C17    C612    1.431   1_554 S
C18    C30     1.383   .     A
C18    C31     1.399   .     A
C19    F37     1.353   .     S
C19    C20     1.390   .     A
C20    C606    1.391   .     S
C20    H634    1.083   .     S
C21    H48     1.081   .     S
C21    C605    1.391   1_554 S
C21    C597    1.415   1_554 S
C22    H50     1.111   .     S
C22    H52     1.110   .     S
C22    H51     1.110   .     S
C23    C29     1.411   .     A
C24    H53     1.108   .     S
C24    H42     1.106   .     S
C24    H41     1.100   .     S
C24    C28     1.507   .     S
C25    H45     1.109   .     S
C25    C602    1.512   .     S
C25    H108    1.105   .     S
C25    H629    1.109   .     S
C26    C30     1.378   .     A
C26    C597    1.414   1_554 S
C26    C612    1.429   1_554 S
C27    C28     1.416   .     A
C27    C602    1.431   .     S
C27    C611    1.429   .     S
C28    C29     1.393   .     A
C29    F38     1.358   .     S
C30    H47     1.081   .     S
C31    F32     1.360   .     S
H43    C155    1.105   1_455 S
H44    C610    1.109   1_554 S
H49    C605    1.083   1_554 S
N54    Zn64    2.015   .     S
N55    Zn65    2.015   .     S
O56    Zn64    1.986   .     S
O57    Zn65    1.987   .     S
O58    Zn64    1.998   .     S
O59    Zn65    1.965   .     S
O60    Zn64    1.987   .     S
O61    Zn65    1.986   .     S
O62    Zn64    1.965   .     S
O63    Zn65    1.998   .     S
C66    O122    1.281   .     A
C66    O121    1.282   .     A
C66    C74     1.407   .     S
C67    C69     1.478   .     S
C67    C88     1.428   .     A
C67    C84     1.403   .     A
C68    C74     1.392   .     A
C68    F104    1.359   .     S
C68    C265    1.370   .     S
C69    O124    1.284   .     A
C69    O123    1.314   .     A
C70    C71     1.397   .     A
C70    F98     1.359   .     S
C70    C458    1.370   1_545 S
C71    C72     1.411   .     A
C71    C80     1.411   .     S
C72    C87     1.514   .     S
C72    C463    1.385   1_545 S
C73    F99     1.361   .     S
C73    C74     1.396   .     A
C73    C267    1.385   .     S
C75    N120    1.370   .     A
C75    F100    1.353   .     S
C75    C141    1.416   .     S
C76    N119    1.365   .     A
C76    H105    1.081   .     S
C77    C88     1.399   .     A
C77    C671    1.415   .     S
C77    C676    1.414   .     S
C78    N119    1.364   .     A
C78    H111    1.081   .     S
C79    N120    1.371   .     A
C79    F101    1.354   .     S
C79    C143    1.416   .     S
C80    O125    1.281   .     A
C80    O126    1.283   .     A
C81    O128    1.292   .     A
C81    C83     1.448   .     S
C81    O127    1.291   .     A
C82    C96     1.405   .     A
C82    C675    1.512   1_554 S
C82    C677    1.431   1_554 S
C83    C95     1.383   .     A
C83    C96     1.399   .     A
C84    F102    1.353   .     S
C84    C85     1.390   .     A
C85    C671    1.391   .     S
C85    H699    1.083   .     S
C86    H113    1.081   .     S
C86    C670    1.391   1_554 S
C86    C662    1.415   1_554 S
C87    H115    1.111   .     S
C87    H117    1.110   .     S
C87    H116    1.110   .     S
C88    C94     1.411   .     A
C89    H118    1.108   .     S
C89    H107    1.106   .     S
C89    H106    1.100   .     S
C89    C93     1.507   .     S
C90    H110    1.109   .     S
C90    C667    1.512   .     S
C90    H173    1.105   .     S
C90    H694    1.109   .     S
C91    C95     1.378   .     A
C91    C662    1.414   1_554 S
C91    C677    1.429   1_554 S
C92    C93     1.416   .     A
C92    C667    1.431   .     S
C92    C676    1.429   .     S
C93    C94     1.393   .     A
C94    F103    1.358   .     S
C95    H112    1.081   .     S
C96    F97     1.360   .     S
H109   C675    1.109   1_554 S
H114   C670    1.083   1_554 S
N119   Zn129   2.015   .     S
N120   Zn130   2.015   .     S
O121   Zn129   1.986   .     S
O122   Zn130   1.987   .     S
O123   Zn129   1.998   .     S
O124   Zn130   1.965   .     S
O125   Zn129   1.987   .     S
O126   Zn130   1.986   .     S
O127   Zn129   1.965   .     S
O128   Zn130   1.998   .     S
C131   O187    1.281   .     A
C131   O186    1.282   .     A
C131   C139    1.407   .     S
C132   C134    1.478   .     S
C132   C153    1.428   .     A
C132   C149    1.403   .     A
C133   C139    1.392   .     A
C133   F169    1.359   .     S
C133   C330    1.370   .     S
C134   O189    1.284   .     A
C134   O188    1.314   .     A
C135   C136    1.397   .     A
C135   F163    1.359   .     S
C135   C523    1.370   1_545 S
C136   C137    1.411   .     A
C136   C145    1.411   .     S
C137   C152    1.514   .     S
C137   C528    1.385   1_545 S
C138   F164    1.361   .     S
C138   C139    1.396   .     A
C138   C332    1.385   .     S
C140   N185    1.370   .     A
C140   F165    1.353   .     S
C140   C11     1.416   1_655 S
C141   N184    1.365   .     A
C141   H170    1.081   .     S
C142   C153    1.399   .     A
C142   C736    1.415   .     S
C142   C741    1.414   .     S
C143   N184    1.364   .     A
C143   H176    1.081   .     S
C144   N185    1.371   .     A
C144   F166    1.354   .     S
C144   C13     1.416   1_655 S
C145   O190    1.281   .     A
C145   O191    1.283   .     A
C146   O193    1.292   .     A
C146   C148    1.448   .     S
C146   O192    1.291   .     A
C147   C161    1.405   .     A
C147   C740    1.512   1_554 S
C147   C742    1.431   1_554 S
C148   C160    1.383   .     A
C148   C161    1.399   .     A
C149   F167    1.353   .     S
C149   C150    1.390   .     A
C150   C736    1.391   .     S
C150   H764    1.083   .     S
C151   H178    1.081   .     S
C151   C735    1.391   1_554 S
C151   C727    1.415   1_554 S
C152   H180    1.111   .     S
C152   H182    1.110   .     S
C152   H181    1.110   .     S
C153   C159    1.411   .     A
C154   H183    1.108   .     S
C154   H172    1.106   .     S
C154   H171    1.100   .     S
C154   C158    1.507   .     S
C155   H175    1.109   .     S
C155   C732    1.512   .     S
C155   H43     1.105   1_655 S
C155   H759    1.109   .     S
C156   C160    1.378   .     A
C156   C727    1.414   1_554 S
C156   C742    1.429   1_554 S
C157   C158    1.416   .     A
C157   C732    1.431   .     S
C157   C741    1.429   .     S
C158   C159    1.393   .     A
C159   F168    1.358   .     S
C160   H177    1.081   .     S
C161   F162    1.360   .     S
H174   C740    1.109   1_554 S
H179   C735    1.083   1_554 S
N184   Zn194   2.015   .     S
N185   Zn195   2.015   .     S
O186   Zn194   1.986   .     S
O187   Zn195   1.987   .     S
O188   Zn194   1.998   .     S
O189   Zn195   1.965   .     S
O190   Zn194   1.987   .     S
O191   Zn195   1.986   .     S
O192   Zn194   1.965   .     S
O193   Zn195   1.998   .     S
C196   O252    1.281   .     A
C196   O251    1.282   .     A
C196   C204    1.407   .     S
C197   C199    1.478   .     S
C197   C218    1.428   .     A
C197   C214    1.403   .     A
C198   C204    1.392   .     A
C198   F234    1.359   .     S
C198   C395    1.370   .     S
C199   O254    1.284   .     A
C199   O253    1.314   .     A
C200   C201    1.397   .     A
C200   F228    1.359   .     S
C201   C202    1.411   .     A
C201   C210    1.411   .     S
C202   C217    1.514   .     S
C203   F229    1.361   .     S
C203   C204    1.396   .     A
C203   C397    1.385   .     S
C205   N250    1.370   .     A
C205   F230    1.353   .     S
C205   C271    1.416   .     S
C206   N249    1.365   .     A
C206   H235    1.081   .     S
C206   C335    1.416   1_455 S
C207   C218    1.399   .     A
C207   C801    1.415   .     S
C207   C806    1.414   .     S
C208   N249    1.364   .     A
C208   H241    1.081   .     S
C208   C339    1.416   1_455 S
C209   N250    1.371   .     A
C209   F231    1.354   .     S
C209   C273    1.416   .     S
C210   O255    1.281   .     A
C210   O256    1.283   .     A
C211   O258    1.292   .     A
C211   C213    1.448   .     S
C211   O257    1.291   .     A
C212   C226    1.405   .     A
C212   C805    1.512   1_554 S
C212   C807    1.431   1_554 S
C213   C225    1.383   .     A
C213   C226    1.399   .     A
C214   F232    1.353   .     S
C214   C215    1.390   .     A
C215   C801    1.391   .     S
C215   H829    1.083   .     S
C216   H243    1.081   .     S
C216   C800    1.391   1_554 S
C216   C792    1.415   1_554 S
C217   H245    1.111   .     S
C217   H247    1.110   .     S
C217   H246    1.110   .     S
C218   C224    1.411   .     A
C219   H248    1.108   .     S
C219   H237    1.106   .     S
C219   H236    1.100   .     S
C219   C223    1.507   .     S
C220   H240    1.109   .     S
C220   C797    1.512   .     S
C220   H303    1.105   .     S
C220   H824    1.109   .     S
C221   C225    1.378   .     A
C221   C792    1.414   1_554 S
C221   C807    1.429   1_554 S
C222   C223    1.416   .     A
C222   C797    1.431   .     S
C222   C806    1.429   .     S
C223   C224    1.393   .     A
C224   F233    1.358   .     S
C225   H242    1.081   .     S
C226   F227    1.360   .     S
H238   C350    1.105   1_455 S
H239   C805    1.109   1_554 S
H244   C800    1.083   1_554 S
N249   Zn259   2.015   .     S
N250   Zn260   2.015   .     S
O251   Zn259   1.986   .     S
O252   Zn260   1.987   .     S
O253   Zn259   1.998   .     S
O254   Zn260   1.965   .     S
O255   Zn259   1.987   .     S
O256   Zn260   1.986   .     S
O257   Zn259   1.965   .     S
O258   Zn260   1.998   .     S
C261   O317    1.281   .     A
C261   O316    1.282   .     A
C261   C269    1.407   .     S
C262   C264    1.478   .     S
C262   C283    1.428   .     A
C262   C279    1.403   .     A
C263   C269    1.392   .     A
C263   F299    1.359   .     S
C263   C460    1.370   .     S
C264   O319    1.284   .     A
C264   O318    1.314   .     A
C265   C266    1.397   .     A
C265   F293    1.359   .     S
C266   C267    1.411   .     A
C266   C275    1.411   .     S
C267   C282    1.514   .     S
C268   F294    1.361   .     S
C268   C269    1.396   .     A
C268   C462    1.385   .     S
C270   N315    1.370   .     A
C270   F295    1.353   .     S
C270   C336    1.416   .     S
C271   N314    1.365   .     A
C271   H300    1.081   .     S
C272   C283    1.399   .     A
C272   C866    1.415   .     S
C272   C871    1.414   .     S
C273   N314    1.364   .     A
C273   H306    1.081   .     S
C274   N315    1.371   .     A
C274   F296    1.354   .     S
C274   C338    1.416   .     S
C275   O320    1.281   .     A
C275   O321    1.283   .     A
C276   O323    1.292   .     A
C276   C278    1.448   .     S
C276   O322    1.291   .     A
C277   C291    1.405   .     A
C277   C870    1.512   1_554 S
C277   C872    1.431   1_554 S
C278   C290    1.383   .     A
C278   C291    1.399   .     A
C279   F297    1.353   .     S
C279   C280    1.390   .     A
C280   C866    1.391   .     S
C280   H894    1.083   .     S
C281   H308    1.081   .     S
C281   C865    1.391   1_554 S
C281   C857    1.415   1_554 S
C282   H310    1.111   .     S
C282   H312    1.110   .     S
C282   H311    1.110   .     S
C283   C289    1.411   .     A
C284   H313    1.108   .     S
C284   H302    1.106   .     S
C284   H301    1.100   .     S
C284   C288    1.507   .     S
C285   H305    1.109   .     S
C285   C862    1.512   .     S
C285   H368    1.105   .     S
C285   H889    1.109   .     S
C286   C290    1.378   .     A
C286   C857    1.414   1_554 S
C286   C872    1.429   1_554 S
C287   C288    1.416   .     A
C287   C862    1.431   .     S
C287   C871    1.429   .     S
C288   C289    1.393   .     A
C289   F298    1.358   .     S
C290   H307    1.081   .     S
C291   F292    1.360   .     S
H304   C870    1.109   1_554 S
H309   C865    1.083   1_554 S
N314   Zn324   2.015   .     S
N315   Zn325   2.015   .     S
O316   Zn324   1.986   .     S
O317   Zn325   1.987   .     S
O318   Zn324   1.998   .     S
O319   Zn325   1.965   .     S
O320   Zn324   1.987   .     S
O321   Zn325   1.986   .     S
O322   Zn324   1.965   .     S
O323   Zn325   1.998   .     S
C326   O382    1.281   .     A
C326   O381    1.282   .     A
C326   C334    1.407   .     S
C327   C329    1.478   .     S
C327   C348    1.428   .     A
C327   C344    1.403   .     A
C328   C334    1.392   .     A
C328   F364    1.359   .     S
C328   C525    1.370   .     S
C329   O384    1.284   .     A
C329   O383    1.314   .     A
C330   C331    1.397   .     A
C330   F358    1.359   .     S
C331   C332    1.411   .     A
C331   C340    1.411   .     S
C332   C347    1.514   .     S
C333   F359    1.361   .     S
C333   C334    1.396   .     A
C333   C527    1.385   .     S
C335   N380    1.370   .     A
C335   F360    1.353   .     S
C335   C206    1.416   1_655 S
C336   N379    1.365   .     A
C336   H365    1.081   .     S
C337   C348    1.399   .     A
C337   C931    1.415   .     S
C337   C936    1.414   .     S
C338   N379    1.364   .     A
C338   H371    1.081   .     S
C339   N380    1.371   .     A
C339   F361    1.354   .     S
C339   C208    1.416   1_655 S
C340   O385    1.281   .     A
C340   O386    1.283   .     A
C341   O388    1.292   .     A
C341   C343    1.448   .     S
C341   O387    1.291   .     A
C342   C356    1.405   .     A
C342   C935    1.512   1_554 S
C342   C937    1.431   1_554 S
C343   C355    1.383   .     A
C343   C356    1.399   .     A
C344   F362    1.353   .     S
C344   C345    1.390   .     A
C345   C931    1.391   .     S
C345   H959    1.083   .     S
C346   H373    1.081   .     S
C346   C930    1.391   1_554 S
C346   C922    1.415   1_554 S
C347   H375    1.111   .     S
C347   H377    1.110   .     S
C347   H376    1.110   .     S
C348   C354    1.411   .     A
C349   H378    1.108   .     S
C349   H367    1.106   .     S
C349   H366    1.100   .     S
C349   C353    1.507   .     S
C350   H370    1.109   .     S
C350   C927    1.512   .     S
C350   H238    1.105   1_655 S
C350   H954    1.109   .     S
C351   C355    1.378   .     A
C351   C922    1.414   1_554 S
C351   C937    1.429   1_554 S
C352   C353    1.416   .     A
C352   C927    1.431   .     S
C352   C936    1.429   .     S
C353   C354    1.393   .     A
C354   F363    1.358   .     S
C355   H372    1.081   .     S
C356   F357    1.360   .     S
H369   C935    1.109   1_554 S
H374   C930    1.083   1_554 S
N379   Zn389   2.015   .     S
N380   Zn390   2.015   .     S
O381   Zn389   1.986   .     S
O382   Zn390   1.987   .     S
O383   Zn389   1.998   .     S
O384   Zn390   1.965   .     S
O385   Zn389   1.987   .     S
O386   Zn390   1.986   .     S
O387   Zn389   1.965   .     S
O388   Zn390   1.998   .     S
C391   O447    1.281   .     A
C391   O446    1.282   .     A
C391   C399    1.407   .     S
C392   C394    1.478   .     S
C392   C413    1.428   .     A
C392   C409    1.403   .     A
C393   C399    1.392   .     A
C393   F429    1.359   .     S
C393   C5      1.370   1_565 S
C394   O449    1.284   .     A
C394   O448    1.314   .     A
C395   C396    1.397   .     A
C395   F423    1.359   .     S
C396   C397    1.411   .     A
C396   C405    1.411   .     S
C397   C412    1.514   .     S
C398   F424    1.361   .     S
C398   C399    1.396   .     A
C398   C7      1.385   1_565 S
C400   N445    1.370   .     A
C400   F425    1.353   .     S
C400   C466    1.416   .     S
C401   N444    1.365   .     A
C401   H430    1.081   .     S
C401   C530    1.416   1_455 S
C402   C413    1.399   .     A
C402   C996    1.415   .     S
C402   C1001   1.414   .     S
C403   N444    1.364   .     A
C403   H436    1.081   .     S
C403   C534    1.416   1_455 S
C404   N445    1.371   .     A
C404   F426    1.354   .     S
C404   C468    1.416   .     S
C405   O450    1.281   .     A
C405   O451    1.283   .     A
C406   O453    1.292   .     A
C406   C408    1.448   .     S
C406   O452    1.291   .     A
C407   C421    1.405   .     A
C407   C1000   1.512   1_554 S
C407   C1002   1.431   1_554 S
C408   C420    1.383   .     A
C408   C421    1.399   .     A
C409   F427    1.353   .     S
C409   C410    1.390   .     A
C410   C996    1.391   .     S
C410   H1024   1.083   .     S
C411   H438    1.081   .     S
C411   C995    1.391   1_554 S
C411   C987    1.415   1_554 S
C412   H440    1.111   .     S
C412   H442    1.110   .     S
C412   H441    1.110   .     S
C413   C419    1.411   .     A
C414   H443    1.108   .     S
C414   H432    1.106   .     S
C414   H431    1.100   .     S
C414   C418    1.507   .     S
C415   H435    1.109   .     S
C415   C992    1.512   .     S
C415   H498    1.105   .     S
C415   H1019   1.109   .     S
C416   C420    1.378   .     A
C416   C987    1.414   1_554 S
C416   C1002   1.429   1_554 S
C417   C418    1.416   .     A
C417   C992    1.431   .     S
C417   C1001   1.429   .     S
C418   C419    1.393   .     A
C419   F428    1.358   .     S
C420   H437    1.081   .     S
C421   F422    1.360   .     S
H433   C545    1.105   1_455 S
H434   C1000   1.109   1_554 S
H439   C995    1.083   1_554 S
N444   Zn454   2.015   .     S
N445   Zn455   2.015   .     S
O446   Zn454   1.986   .     S
O447   Zn455   1.987   .     S
O448   Zn454   1.998   .     S
O449   Zn455   1.965   .     S
O450   Zn454   1.987   .     S
O451   Zn455   1.986   .     S
O452   Zn454   1.965   .     S
O453   Zn455   1.998   .     S
C456   O512    1.281   .     A
C456   O511    1.282   .     A
C456   C464    1.407   .     S
C457   C459    1.478   .     S
C457   C478    1.428   .     A
C457   C474    1.403   .     A
C458   C464    1.392   .     A
C458   F494    1.359   .     S
C458   C70     1.370   1_565 S
C459   O514    1.284   .     A
C459   O513    1.314   .     A
C460   C461    1.397   .     A
C460   F488    1.359   .     S
C461   C462    1.411   .     A
C461   C470    1.411   .     S
C462   C477    1.514   .     S
C463   F489    1.361   .     S
C463   C464    1.396   .     A
C463   C72     1.385   1_565 S
C465   N510    1.370   .     A
C465   F490    1.353   .     S
C465   C531    1.416   .     S
C466   N509    1.365   .     A
C466   H495    1.081   .     S
C467   C478    1.399   .     A
C467   C1061   1.415   .     S
C467   C1066   1.414   .     S
C468   N509    1.364   .     A
C468   H501    1.081   .     S
C469   N510    1.371   .     A
C469   F491    1.354   .     S
C469   C533    1.416   .     S
C470   O515    1.281   .     A
C470   O516    1.283   .     A
C471   O518    1.292   .     A
C471   C473    1.448   .     S
C471   O517    1.291   .     A
C472   C486    1.405   .     A
C472   C1065   1.512   1_554 S
C472   C1067   1.431   1_554 S
C473   C485    1.383   .     A
C473   C486    1.399   .     A
C474   F492    1.353   .     S
C474   C475    1.390   .     A
C475   C1061   1.391   .     S
C475   H1089   1.083   .     S
C476   H503    1.081   .     S
C476   C1060   1.391   1_554 S
C476   C1052   1.415   1_554 S
C477   H505    1.111   .     S
C477   H507    1.110   .     S
C477   H506    1.110   .     S
C478   C484    1.411   .     A
C479   H508    1.108   .     S
C479   H497    1.106   .     S
C479   H496    1.100   .     S
C479   C483    1.507   .     S
C480   H500    1.109   .     S
C480   C1057   1.512   .     S
C480   H563    1.105   .     S
C480   H1084   1.109   .     S
C481   C485    1.378   .     A
C481   C1052   1.414   1_554 S
C481   C1067   1.429   1_554 S
C482   C483    1.416   .     A
C482   C1057   1.431   .     S
C482   C1066   1.429   .     S
C483   C484    1.393   .     A
C484   F493    1.358   .     S
C485   H502    1.081   .     S
C486   F487    1.360   .     S
H499   C1065   1.109   1_554 S
H504   C1060   1.083   1_554 S
N509   Zn519   2.015   .     S
N510   Zn520   2.015   .     S
O511   Zn519   1.986   .     S
O512   Zn520   1.987   .     S
O513   Zn519   1.998   .     S
O514   Zn520   1.965   .     S
O515   Zn519   1.987   .     S
O516   Zn520   1.986   .     S
O517   Zn519   1.965   .     S
O518   Zn520   1.998   .     S
C521   O577    1.281   .     A
C521   O576    1.282   .     A
C521   C529    1.407   .     S
C522   C524    1.478   .     S
C522   C543    1.428   .     A
C522   C539    1.403   .     A
C523   C529    1.392   .     A
C523   F559    1.359   .     S
C523   C135    1.370   1_565 S
C524   O579    1.284   .     A
C524   O578    1.314   .     A
C525   C526    1.397   .     A
C525   F553    1.359   .     S
C526   C527    1.411   .     A
C526   C535    1.411   .     S
C527   C542    1.514   .     S
C528   F554    1.361   .     S
C528   C529    1.396   .     A
C528   C137    1.385   1_565 S
C530   N575    1.370   .     A
C530   F555    1.353   .     S
C530   C401    1.416   1_655 S
C531   N574    1.365   .     A
C531   H560    1.081   .     S
C532   C543    1.399   .     A
C532   C1126   1.415   .     S
C532   C1131   1.414   .     S
C533   N574    1.364   .     A
C533   H566    1.081   .     S
C534   N575    1.371   .     A
C534   F556    1.354   .     S
C534   C403    1.416   1_655 S
C535   O580    1.281   .     A
C535   O581    1.283   .     A
C536   O583    1.292   .     A
C536   C538    1.448   .     S
C536   O582    1.291   .     A
C537   C551    1.405   .     A
C537   C1130   1.512   1_554 S
C537   C1132   1.431   1_554 S
C538   C550    1.383   .     A
C538   C551    1.399   .     A
C539   F557    1.353   .     S
C539   C540    1.390   .     A
C540   C1126   1.391   .     S
C540   H1154   1.083   .     S
C541   H568    1.081   .     S
C541   C1125   1.391   1_554 S
C541   C1117   1.415   1_554 S
C542   H570    1.111   .     S
C542   H572    1.110   .     S
C542   H571    1.110   .     S
C543   C549    1.411   .     A
C544   H573    1.108   .     S
C544   H562    1.106   .     S
C544   H561    1.100   .     S
C544   C548    1.507   .     S
C545   H565    1.109   .     S
C545   C1122   1.512   .     S
C545   H433    1.105   1_655 S
C545   H1149   1.109   .     S
C546   C550    1.378   .     A
C546   C1117   1.414   1_554 S
C546   C1132   1.429   1_554 S
C547   C548    1.416   .     A
C547   C1122   1.431   .     S
C547   C1131   1.429   .     S
C548   C549    1.393   .     A
C549   F558    1.358   .     S
C550   H567    1.081   .     S
C551   F552    1.360   .     S
H564   C1130   1.109   1_554 S
H569   C1125   1.083   1_554 S
N574   Zn584   2.015   .     S
N575   Zn585   2.015   .     S
O576   Zn584   1.986   .     S
O577   Zn585   1.987   .     S
O578   Zn584   1.998   .     S
O579   Zn585   1.965   .     S
O580   Zn584   1.987   .     S
O581   Zn585   1.986   .     S
O582   Zn584   1.965   .     S
O583   Zn585   1.998   .     S
C586   O642    1.281   .     A
C586   O641    1.282   .     A
C586   C594    1.407   .     S
C587   C589    1.478   .     S
C587   C608    1.428   .     A
C587   C604    1.403   .     A
C588   C594    1.392   .     A
C588   F624    1.359   .     S
C588   C785    1.370   .     S
C589   O644    1.284   .     A
C589   O643    1.314   .     A
C590   C591    1.397   .     A
C590   F618    1.359   .     S
C590   C978    1.370   1_545 S
C591   C592    1.411   .     A
C591   C600    1.411   .     S
C592   C607    1.514   .     S
C592   C983    1.385   1_545 S
C593   F619    1.361   .     S
C593   C594    1.396   .     A
C593   C787    1.385   .     S
C595   N640    1.370   .     A
C595   F620    1.353   .     S
C595   C661    1.416   .     S
C596   N639    1.365   .     A
C596   H625    1.081   .     S
C596   C725    1.416   1_455 S
C597   C608    1.399   .     A
C597   C21     1.415   1_556 S
C597   C26     1.414   1_556 S
C598   N639    1.364   .     A
C598   H631    1.081   .     S
C598   C729    1.416   1_455 S
C599   N640    1.371   .     A
C599   F621    1.354   .     S
C599   C663    1.416   .     S
C600   O645    1.281   .     A
C600   O646    1.283   .     A
C601   O648    1.292   .     A
C601   C603    1.448   .     S
C601   O647    1.291   .     A
C602   C616    1.405   .     A
C603   C615    1.383   .     A
C603   C616    1.399   .     A
C604   F622    1.353   .     S
C604   C605    1.390   .     A
C605   C21     1.391   1_556 S
C605   H49     1.083   1_556 S
C606   H633    1.081   .     S
C607   H635    1.111   .     S
C607   H637    1.110   .     S
C607   H636    1.110   .     S
C608   C614    1.411   .     A
C609   H638    1.108   .     S
C609   H627    1.106   .     S
C609   H626    1.100   .     S
C609   C613    1.507   .     S
C610   H630    1.109   .     S
C610   C17     1.512   1_556 S
C610   H693    1.105   .     S
C610   H44     1.109   1_556 S
C611   C615    1.378   .     A
C612   C613    1.416   .     A
C612   C17     1.431   1_556 S
C612   C26     1.429   1_556 S
C613   C614    1.393   .     A
C614   F623    1.358   .     S
C615   H632    1.081   .     S
C616   F617    1.360   .     S
H628   C740    1.105   1_455 S
N639   Zn649   2.015   .     S
N640   Zn650   2.015   .     S
O641   Zn649   1.986   .     S
O642   Zn650   1.987   .     S
O643   Zn649   1.998   .     S
O644   Zn650   1.965   .     S
O645   Zn649   1.987   .     S
O646   Zn650   1.986   .     S
O647   Zn649   1.965   .     S
O648   Zn650   1.998   .     S
C651   O707    1.281   .     A
C651   O706    1.282   .     A
C651   C659    1.407   .     S
C652   C654    1.478   .     S
C652   C673    1.428   .     A
C652   C669    1.403   .     A
C653   C659    1.392   .     A
C653   F689    1.359   .     S
C653   C850    1.370   .     S
C654   O709    1.284   .     A
C654   O708    1.314   .     A
C655   C656    1.397   .     A
C655   F683    1.359   .     S
C655   C1043   1.370   1_545 S
C656   C657    1.411   .     A
C656   C665    1.411   .     S
C657   C672    1.514   .     S
C657   C1048   1.385   1_545 S
C658   F684    1.361   .     S
C658   C659    1.396   .     A
C658   C852    1.385   .     S
C660   N705    1.370   .     A
C660   F685    1.353   .     S
C660   C726    1.416   .     S
C661   N704    1.365   .     A
C661   H690    1.081   .     S
C662   C673    1.399   .     A
C662   C86     1.415   1_556 S
C662   C91     1.414   1_556 S
C663   N704    1.364   .     A
C663   H696    1.081   .     S
C664   N705    1.371   .     A
C664   F686    1.354   .     S
C664   C728    1.416   .     S
C665   O710    1.281   .     A
C665   O711    1.283   .     A
C666   O713    1.292   .     A
C666   C668    1.448   .     S
C666   O712    1.291   .     A
C667   C681    1.405   .     A
C668   C680    1.383   .     A
C668   C681    1.399   .     A
C669   F687    1.353   .     S
C669   C670    1.390   .     A
C670   C86     1.391   1_556 S
C670   H114    1.083   1_556 S
C671   H698    1.081   .     S
C672   H700    1.111   .     S
C672   H702    1.110   .     S
C672   H701    1.110   .     S
C673   C679    1.411   .     A
C674   H703    1.108   .     S
C674   H692    1.106   .     S
C674   H691    1.100   .     S
C674   C678    1.507   .     S
C675   H695    1.109   .     S
C675   C82     1.512   1_556 S
C675   H758    1.105   .     S
C675   H109    1.109   1_556 S
C676   C680    1.378   .     A
C677   C678    1.416   .     A
C677   C82     1.431   1_556 S
C677   C91     1.429   1_556 S
C678   C679    1.393   .     A
C679   F688    1.358   .     S
C680   H697    1.081   .     S
C681   F682    1.360   .     S
N704   Zn714   2.015   .     S
N705   Zn715   2.015   .     S
O706   Zn714   1.986   .     S
O707   Zn715   1.987   .     S
O708   Zn714   1.998   .     S
O709   Zn715   1.965   .     S
O710   Zn714   1.987   .     S
O711   Zn715   1.986   .     S
O712   Zn714   1.965   .     S
O713   Zn715   1.998   .     S
C716   O772    1.281   .     A
C716   O771    1.282   .     A
C716   C724    1.407   .     S
C717   C719    1.478   .     S
C717   C738    1.428   .     A
C717   C734    1.403   .     A
C718   C724    1.392   .     A
C718   F754    1.359   .     S
C718   C915    1.370   .     S
C719   O774    1.284   .     A
C719   O773    1.314   .     A
C720   C721    1.397   .     A
C720   F748    1.359   .     S
C720   C1108   1.370   1_545 S
C721   C722    1.411   .     A
C721   C730    1.411   .     S
C722   C737    1.514   .     S
C722   C1113   1.385   1_545 S
C723   F749    1.361   .     S
C723   C724    1.396   .     A
C723   C917    1.385   .     S
C725   N770    1.370   .     A
C725   F750    1.353   .     S
C725   C596    1.416   1_655 S
C726   N769    1.365   .     A
C726   H755    1.081   .     S
C727   C738    1.399   .     A
C727   C151    1.415   1_556 S
C727   C156    1.414   1_556 S
C728   N769    1.364   .     A
C728   H761    1.081   .     S
C729   N770    1.371   .     A
C729   F751    1.354   .     S
C729   C598    1.416   1_655 S
C730   O775    1.281   .     A
C730   O776    1.283   .     A
C731   O778    1.292   .     A
C731   C733    1.448   .     S
C731   O777    1.291   .     A
C732   C746    1.405   .     A
C733   C745    1.383   .     A
C733   C746    1.399   .     A
C734   F752    1.353   .     S
C734   C735    1.390   .     A
C735   C151    1.391   1_556 S
C735   H179    1.083   1_556 S
C736   H763    1.081   .     S
C737   H765    1.111   .     S
C737   H767    1.110   .     S
C737   H766    1.110   .     S
C738   C744    1.411   .     A
C739   H768    1.108   .     S
C739   H757    1.106   .     S
C739   H756    1.100   .     S
C739   C743    1.507   .     S
C740   H760    1.109   .     S
C740   C147    1.512   1_556 S
C740   H628    1.105   1_655 S
C740   H174    1.109   1_556 S
C741   C745    1.378   .     A
C742   C743    1.416   .     A
C742   C147    1.431   1_556 S
C742   C156    1.429   1_556 S
C743   C744    1.393   .     A
C744   F753    1.358   .     S
C745   H762    1.081   .     S
C746   F747    1.360   .     S
N769   Zn779   2.015   .     S
N770   Zn780   2.015   .     S
O771   Zn779   1.986   .     S
O772   Zn780   1.987   .     S
O773   Zn779   1.998   .     S
O774   Zn780   1.965   .     S
O775   Zn779   1.987   .     S
O776   Zn780   1.986   .     S
O777   Zn779   1.965   .     S
O778   Zn780   1.998   .     S
C781   O837    1.281   .     A
C781   O836    1.282   .     A
C781   C789    1.407   .     S
C782   C784    1.478   .     S
C782   C803    1.428   .     A
C782   C799    1.403   .     A
C783   C789    1.392   .     A
C783   F819    1.359   .     S
C783   C980    1.370   .     S
C784   O839    1.284   .     A
C784   O838    1.314   .     A
C785   C786    1.397   .     A
C785   F813    1.359   .     S
C786   C787    1.411   .     A
C786   C795    1.411   .     S
C787   C802    1.514   .     S
C788   F814    1.361   .     S
C788   C789    1.396   .     A
C788   C982    1.385   .     S
C790   N835    1.370   .     A
C790   F815    1.353   .     S
C790   C856    1.416   .     S
C791   N834    1.365   .     A
C791   H820    1.081   .     S
C791   C920    1.416   1_455 S
C792   C803    1.399   .     A
C792   C216    1.415   1_556 S
C792   C221    1.414   1_556 S
C793   N834    1.364   .     A
C793   H826    1.081   .     S
C793   C924    1.416   1_455 S
C794   N835    1.371   .     A
C794   F816    1.354   .     S
C794   C858    1.416   .     S
C795   O840    1.281   .     A
C795   O841    1.283   .     A
C796   O843    1.292   .     A
C796   C798    1.448   .     S
C796   O842    1.291   .     A
C797   C811    1.405   .     A
C798   C810    1.383   .     A
C798   C811    1.399   .     A
C799   F817    1.353   .     S
C799   C800    1.390   .     A
C800   C216    1.391   1_556 S
C800   H244    1.083   1_556 S
C801   H828    1.081   .     S
C802   H830    1.111   .     S
C802   H832    1.110   .     S
C802   H831    1.110   .     S
C803   C809    1.411   .     A
C804   H833    1.108   .     S
C804   H822    1.106   .     S
C804   H821    1.100   .     S
C804   C808    1.507   .     S
C805   H825    1.109   .     S
C805   C212    1.512   1_556 S
C805   H888    1.105   .     S
C805   H239    1.109   1_556 S
C806   C810    1.378   .     A
C807   C808    1.416   .     A
C807   C212    1.431   1_556 S
C807   C221    1.429   1_556 S
C808   C809    1.393   .     A
C809   F818    1.358   .     S
C810   H827    1.081   .     S
C811   F812    1.360   .     S
H823   C935    1.105   1_455 S
N834   Zn844   2.015   .     S
N835   Zn845   2.015   .     S
O836   Zn844   1.986   .     S
O837   Zn845   1.987   .     S
O838   Zn844   1.998   .     S
O839   Zn845   1.965   .     S
O840   Zn844   1.987   .     S
O841   Zn845   1.986   .     S
O842   Zn844   1.965   .     S
O843   Zn845   1.998   .     S
C846   O902    1.281   .     A
C846   O901    1.282   .     A
C846   C854    1.407   .     S
C847   C849    1.478   .     S
C847   C868    1.428   .     A
C847   C864    1.403   .     A
C848   C854    1.392   .     A
C848   F884    1.359   .     S
C848   C1045   1.370   .     S
C849   O904    1.284   .     A
C849   O903    1.314   .     A
C850   C851    1.397   .     A
C850   F878    1.359   .     S
C851   C852    1.411   .     A
C851   C860    1.411   .     S
C852   C867    1.514   .     S
C853   F879    1.361   .     S
C853   C854    1.396   .     A
C853   C1047   1.385   .     S
C855   N900    1.370   .     A
C855   F880    1.353   .     S
C855   C921    1.416   .     S
C856   N899    1.365   .     A
C856   H885    1.081   .     S
C857   C868    1.399   .     A
C857   C281    1.415   1_556 S
C857   C286    1.414   1_556 S
C858   N899    1.364   .     A
C858   H891    1.081   .     S
C859   N900    1.371   .     A
C859   F881    1.354   .     S
C859   C923    1.416   .     S
C860   O905    1.281   .     A
C860   O906    1.283   .     A
C861   O908    1.292   .     A
C861   C863    1.448   .     S
C861   O907    1.291   .     A
C862   C876    1.405   .     A
C863   C875    1.383   .     A
C863   C876    1.399   .     A
C864   F882    1.353   .     S
C864   C865    1.390   .     A
C865   C281    1.391   1_556 S
C865   H309    1.083   1_556 S
C866   H893    1.081   .     S
C867   H895    1.111   .     S
C867   H897    1.110   .     S
C867   H896    1.110   .     S
C868   C874    1.411   .     A
C869   H898    1.108   .     S
C869   H887    1.106   .     S
C869   H886    1.100   .     S
C869   C873    1.507   .     S
C870   H890    1.109   .     S
C870   C277    1.512   1_556 S
C870   H953    1.105   .     S
C870   H304    1.109   1_556 S
C871   C875    1.378   .     A
C872   C873    1.416   .     A
C872   C277    1.431   1_556 S
C872   C286    1.429   1_556 S
C873   C874    1.393   .     A
C874   F883    1.358   .     S
C875   H892    1.081   .     S
C876   F877    1.360   .     S
N899   Zn909   2.015   .     S
N900   Zn910   2.015   .     S
O901   Zn909   1.986   .     S
O902   Zn910   1.987   .     S
O903   Zn909   1.998   .     S
O904   Zn910   1.965   .     S
O905   Zn909   1.987   .     S
O906   Zn910   1.986   .     S
O907   Zn909   1.965   .     S
O908   Zn910   1.998   .     S
C911   O967    1.281   .     A
C911   O966    1.282   .     A
C911   C919    1.407   .     S
C912   C914    1.478   .     S
C912   C933    1.428   .     A
C912   C929    1.403   .     A
C913   C919    1.392   .     A
C913   F949    1.359   .     S
C913   C1110   1.370   .     S
C914   O969    1.284   .     A
C914   O968    1.314   .     A
C915   C916    1.397   .     A
C915   F943    1.359   .     S
C916   C917    1.411   .     A
C916   C925    1.411   .     S
C917   C932    1.514   .     S
C918   F944    1.361   .     S
C918   C919    1.396   .     A
C918   C1112   1.385   .     S
C920   N965    1.370   .     A
C920   F945    1.353   .     S
C920   C791    1.416   1_655 S
C921   N964    1.365   .     A
C921   H950    1.081   .     S
C922   C933    1.399   .     A
C922   C346    1.415   1_556 S
C922   C351    1.414   1_556 S
C923   N964    1.364   .     A
C923   H956    1.081   .     S
C924   N965    1.371   .     A
C924   F946    1.354   .     S
C924   C793    1.416   1_655 S
C925   O970    1.281   .     A
C925   O971    1.283   .     A
C926   O973    1.292   .     A
C926   C928    1.448   .     S
C926   O972    1.291   .     A
C927   C941    1.405   .     A
C928   C940    1.383   .     A
C928   C941    1.399   .     A
C929   F947    1.353   .     S
C929   C930    1.390   .     A
C930   C346    1.391   1_556 S
C930   H374    1.083   1_556 S
C931   H958    1.081   .     S
C932   H960    1.111   .     S
C932   H962    1.110   .     S
C932   H961    1.110   .     S
C933   C939    1.411   .     A
C934   H963    1.108   .     S
C934   H952    1.106   .     S
C934   H951    1.100   .     S
C934   C938    1.507   .     S
C935   H955    1.109   .     S
C935   C342    1.512   1_556 S
C935   H823    1.105   1_655 S
C935   H369    1.109   1_556 S
C936   C940    1.378   .     A
C937   C938    1.416   .     A
C937   C342    1.431   1_556 S
C937   C351    1.429   1_556 S
C938   C939    1.393   .     A
C939   F948    1.358   .     S
C940   H957    1.081   .     S
C941   F942    1.360   .     S
N964   Zn974   2.015   .     S
N965   Zn975   2.015   .     S
O966   Zn974   1.986   .     S
O967   Zn975   1.987   .     S
O968   Zn974   1.998   .     S
O969   Zn975   1.965   .     S
O970   Zn974   1.987   .     S
O971   Zn975   1.986   .     S
O972   Zn974   1.965   .     S
O973   Zn975   1.998   .     S
C976   O1032   1.281   .     A
C976   O1031   1.282   .     A
C976   C984    1.407   .     S
C977   C979    1.478   .     S
C977   C998    1.428   .     A
C977   C994    1.403   .     A
C978   C984    1.392   .     A
C978   F1014   1.359   .     S
C978   C590    1.370   1_565 S
C979   O1034   1.284   .     A
C979   O1033   1.314   .     A
C980   C981    1.397   .     A
C980   F1008   1.359   .     S
C981   C982    1.411   .     A
C981   C990    1.411   .     S
C982   C997    1.514   .     S
C983   F1009   1.361   .     S
C983   C984    1.396   .     A
C983   C592    1.385   1_565 S
C985   N1030   1.370   .     A
C985   F1010   1.353   .     S
C985   C1051   1.416   .     S
C986   N1029   1.365   .     A
C986   H1015   1.081   .     S
C986   C1115   1.416   1_455 S
C987   C998    1.399   .     A
C987   C411    1.415   1_556 S
C987   C416    1.414   1_556 S
C988   N1029   1.364   .     A
C988   H1021   1.081   .     S
C988   C1119   1.416   1_455 S
C989   N1030   1.371   .     A
C989   F1011   1.354   .     S
C989   C1053   1.416   .     S
C990   O1035   1.281   .     A
C990   O1036   1.283   .     A
C991   O1038   1.292   .     A
C991   C993    1.448   .     S
C991   O1037   1.291   .     A
C992   C1006   1.405   .     A
C993   C1005   1.383   .     A
C993   C1006   1.399   .     A
C994   F1012   1.353   .     S
C994   C995    1.390   .     A
C995   C411    1.391   1_556 S
C995   H439    1.083   1_556 S
C996   H1023   1.081   .     S
C997   H1025   1.111   .     S
C997   H1027   1.110   .     S
C997   H1026   1.110   .     S
C998   C1004   1.411   .     A
C999   H1028   1.108   .     S
C999   H1017   1.106   .     S
C999   H1016   1.100   .     S
C999   C1003   1.507   .     S
C1000  H1020   1.109   .     S
C1000  C407    1.512   1_556 S
C1000  H1083   1.105   .     S
C1000  H434    1.109   1_556 S
C1001  C1005   1.378   .     A
C1002  C1003   1.416   .     A
C1002  C407    1.431   1_556 S
C1002  C416    1.429   1_556 S
C1003  C1004   1.393   .     A
C1004  F1013   1.358   .     S
C1005  H1022   1.081   .     S
C1006  F1007   1.360   .     S
H1018  C1130   1.105   1_455 S
N1029  Zn1039  2.015   .     S
N1030  Zn1040  2.015   .     S
O1031  Zn1039  1.986   .     S
O1032  Zn1040  1.987   .     S
O1033  Zn1039  1.998   .     S
O1034  Zn1040  1.965   .     S
O1035  Zn1039  1.987   .     S
O1036  Zn1040  1.986   .     S
O1037  Zn1039  1.965   .     S
O1038  Zn1040  1.998   .     S
C1041  O1097   1.281   .     A
C1041  O1096   1.282   .     A
C1041  C1049   1.407   .     S
C1042  C1044   1.478   .     S
C1042  C1063   1.428   .     A
C1042  C1059   1.403   .     A
C1043  C1049   1.392   .     A
C1043  F1079   1.359   .     S
C1043  C655    1.370   1_565 S
C1044  O1099   1.284   .     A
C1044  O1098   1.314   .     A
C1045  C1046   1.397   .     A
C1045  F1073   1.359   .     S
C1046  C1047   1.411   .     A
C1046  C1055   1.411   .     S
C1047  C1062   1.514   .     S
C1048  F1074   1.361   .     S
C1048  C1049   1.396   .     A
C1048  C657    1.385   1_565 S
C1050  N1095   1.370   .     A
C1050  F1075   1.353   .     S
C1050  C1116   1.416   .     S
C1051  N1094   1.365   .     A
C1051  H1080   1.081   .     S
C1052  C1063   1.399   .     A
C1052  C476    1.415   1_556 S
C1052  C481    1.414   1_556 S
C1053  N1094   1.364   .     A
C1053  H1086   1.081   .     S
C1054  N1095   1.371   .     A
C1054  F1076   1.354   .     S
C1054  C1118   1.416   .     S
C1055  O1100   1.281   .     A
C1055  O1101   1.283   .     A
C1056  O1103   1.292   .     A
C1056  C1058   1.448   .     S
C1056  O1102   1.291   .     A
C1057  C1071   1.405   .     A
C1058  C1070   1.383   .     A
C1058  C1071   1.399   .     A
C1059  F1077   1.353   .     S
C1059  C1060   1.390   .     A
C1060  C476    1.391   1_556 S
C1060  H504    1.083   1_556 S
C1061  H1088   1.081   .     S
C1062  H1090   1.111   .     S
C1062  H1092   1.110   .     S
C1062  H1091   1.110   .     S
C1063  C1069   1.411   .     A
C1064  H1093   1.108   .     S
C1064  H1082   1.106   .     S
C1064  H1081   1.100   .     S
C1064  C1068   1.507   .     S
C1065  H1085   1.109   .     S
C1065  C472    1.512   1_556 S
C1065  H1148   1.105   .     S
C1065  H499    1.109   1_556 S
C1066  C1070   1.378   .     A
C1067  C1068   1.416   .     A
C1067  C472    1.431   1_556 S
C1067  C481    1.429   1_556 S
C1068  C1069   1.393   .     A
C1069  F1078   1.358   .     S
C1070  H1087   1.081   .     S
C1071  F1072   1.360   .     S
N1094  Zn1104  2.015   .     S
N1095  Zn1105  2.015   .     S
O1096  Zn1104  1.986   .     S
O1097  Zn1105  1.987   .     S
O1098  Zn1104  1.998   .     S
O1099  Zn1105  1.965   .     S
O1100  Zn1104  1.987   .     S
O1101  Zn1105  1.986   .     S
O1102  Zn1104  1.965   .     S
O1103  Zn1105  1.998   .     S
C1106  O1162   1.281   .     A
C1106  O1161   1.282   .     A
C1106  C1114   1.407   .     S
C1107  C1109   1.478   .     S
C1107  C1128   1.428   .     A
C1107  C1124   1.403   .     A
C1108  C1114   1.392   .     A
C1108  F1144   1.359   .     S
C1108  C720    1.370   1_565 S
C1109  O1164   1.284   .     A
C1109  O1163   1.314   .     A
C1110  C1111   1.397   .     A
C1110  F1138   1.359   .     S
C1111  C1112   1.411   .     A
C1111  C1120   1.411   .     S
C1112  C1127   1.514   .     S
C1113  F1139   1.361   .     S
C1113  C1114   1.396   .     A
C1113  C722    1.385   1_565 S
C1115  N1160   1.370   .     A
C1115  F1140   1.353   .     S
C1115  C986    1.416   1_655 S
C1116  N1159   1.365   .     A
C1116  H1145   1.081   .     S
C1117  C1128   1.399   .     A
C1117  C541    1.415   1_556 S
C1117  C546    1.414   1_556 S
C1118  N1159   1.364   .     A
C1118  H1151   1.081   .     S
C1119  N1160   1.371   .     A
C1119  F1141   1.354   .     S
C1119  C988    1.416   1_655 S
C1120  O1165   1.281   .     A
C1120  O1166   1.283   .     A
C1121  O1168   1.292   .     A
C1121  C1123   1.448   .     S
C1121  O1167   1.291   .     A
C1122  C1136   1.405   .     A
C1123  C1135   1.383   .     A
C1123  C1136   1.399   .     A
C1124  F1142   1.353   .     S
C1124  C1125   1.390   .     A
C1125  C541    1.391   1_556 S
C1125  H569    1.083   1_556 S
C1126  H1153   1.081   .     S
C1127  H1155   1.111   .     S
C1127  H1157   1.110   .     S
C1127  H1156   1.110   .     S
C1128  C1134   1.411   .     A
C1129  H1158   1.108   .     S
C1129  H1147   1.106   .     S
C1129  H1146   1.100   .     S
C1129  C1133   1.507   .     S
C1130  H1150   1.109   .     S
C1130  C537    1.512   1_556 S
C1130  H1018   1.105   1_655 S
C1130  H564    1.109   1_556 S
C1131  C1135   1.378   .     A
C1132  C1133   1.416   .     A
C1132  C537    1.431   1_556 S
C1132  C546    1.429   1_556 S
C1133  C1134   1.393   .     A
C1134  F1143   1.358   .     S
C1135  H1152   1.081   .     S
C1136  F1137   1.360   .     S
N1159  Zn1169  2.015   .     S
N1160  Zn1170  2.015   .     S
O1161  Zn1169  1.986   .     S
O1162  Zn1170  1.987   .     S
O1163  Zn1169  1.998   .     S
O1164  Zn1170  1.965   .     S
O1165  Zn1169  1.987   .     S
O1166  Zn1170  1.986   .     S
O1167  Zn1169  1.965   .     S
O1168  Zn1170  1.998   .     S
