data_str_m1_o10_o16_pcu_sym.106
_audit_creation_date              2020-01-03
_audit_creation_method            'Materials Studio'
_symmetry_space_group_name_H-M    'P1'
_symmetry_Int_Tables_number       1
_symmetry_cell_setting            triclinic
loop_
_symmetry_equiv_pos_as_xyz
  x,y,z
_cell_length_a                    32.7590
_cell_length_b                    32.4766
_cell_length_c                    30.8994
_cell_angle_alpha                 96.2725
_cell_angle_beta                  74.9841
_cell_angle_gamma                 98.5056
loop_
_atom_site_label
_atom_site_type_symbol
_atom_site_fract_x
_atom_site_fract_y
_atom_site_fract_z
_atom_site_U_iso_or_equiv
_atom_site_adp_type
_atom_site_occupancy
C1     C     0.05306   0.15947   0.26002   0.00000  Uiso   1.00
C2     C     0.17947   0.16559   0.05629   0.00000  Uiso   1.00
C3     C     0.20038   0.09880   0.06264   0.00000  Uiso   1.00
C4     C     0.28080   0.17374   0.24007   0.00000  Uiso   1.00
C5     C     0.14119   0.19320   0.42077   0.00000  Uiso   1.00
C6     C     0.32648   0.17863   0.23797   0.00000  Uiso   1.00
C7     C     0.00813   0.15609   0.26372   0.00000  Uiso   1.00
C8     C     0.17734   0.32148   0.23216   0.00000  Uiso   1.00
C9     C     0.15368   0.01192   0.26419   0.00000  Uiso   1.00
C10    C     0.15602   0.05593   0.26060   0.00000  Uiso   1.00
C11    C     0.17597   0.27765   0.23926   0.00000  Uiso   1.00
C12    C     0.11939   0.23986   0.48802   0.00000  Uiso   1.00
C13    C     0.18521   0.14796   0.12932   0.00000  Uiso   1.00
C14    C     0.14842   0.18451   0.37121   0.00000  Uiso   1.00
C15    C     0.19670   0.08533   0.01912   0.00000  Uiso   1.00
C16    C     0.19165   0.13861   0.08110   0.00000  Uiso   1.00
C17    C     0.12864   0.23219   0.44097   0.00000  Uiso   1.00
C18    C     0.31213   0.08356   0.26848   0.00000  Uiso   1.00
C19    C     0.24378   0.02478   0.19208   0.00000  Uiso   1.00
C20    C     0.21268   0.04514   0.49926   0.00000  Uiso   1.00
C21    C     0.16358   0.29154   0.39910   0.00000  Uiso   1.00
C22    C     0.10886   0.21464   0.06393   0.00000  Uiso   1.00
C23    C     0.12825   0.21129   0.01467   0.00000  Uiso   1.00
C24    C     0.09939   0.27753   0.00910   0.00000  Uiso   1.00
C25    C     0.02172   0.20996   0.20821   0.00000  Uiso   1.00
C26    C     0.14884   0.17593   0.49339   0.00000  Uiso   1.00
C27    C     0.14854   0.16397   0.44798   0.00000  Uiso   1.00
C28    C     0.16840   0.15099   0.01575   0.00000  Uiso   1.00
C29    C     0.17846   0.11067   0.49623   0.00000  Uiso   1.00
C30    C     0.16809   0.09613   0.45558   0.00000  Uiso   1.00
C31    C     0.15411   0.12243   0.43162   0.00000  Uiso   1.00
H32    H     0.21056   0.07847   0.08235   0.00000  Uiso   1.00
H33    H     0.20264   0.31618   0.16348   0.00000  Uiso   1.00
H34    H     0.25995   0.03719   0.15901   0.00000  Uiso   1.00
H35    H     0.26317   0.00233   0.19946   0.00000  Uiso   1.00
H36    H     0.24154   0.05136   0.21797   0.00000  Uiso   1.00
H37    H     0.22282   0.32101   0.00992   0.00000  Uiso   1.00
H38    H     0.09836   0.27895   0.42559   0.00000  Uiso   1.00
H39    H     0.15870   0.31308   0.37585   0.00000  Uiso   1.00
H40    H     0.19012   0.27364   0.38094   0.00000  Uiso   1.00
H41    H     0.17222   0.31027   0.42845   0.00000  Uiso   1.00
H42    H     0.10049   0.25045   0.12230   0.00000  Uiso   1.00
H43    H     0.13599   0.33322   0.29609   0.00000  Uiso   1.00
H44    H     0.10685   0.00251   0.03830   0.00000  Uiso   1.00
H45    H     0.06929   0.25794   0.20105   0.00000  Uiso   1.00
H46    H     0.17061   0.06434   0.44165   0.00000  Uiso   1.00
H47    H     0.17693   0.19728   0.07038   0.00000  Uiso   1.00
H48    H     0.14629   0.10901   0.40079   0.00000  Uiso   1.00
H49    H     0.32225   0.12474   0.32162   0.00000  Uiso   1.00
H50    H     0.28615   0.06289   0.28938   0.00000  Uiso   1.00
H51    H     0.00923   0.07027   0.26325   0.00000  Uiso   1.00
H52    H     0.30500   0.08460   0.23543   0.00000  Uiso   1.00
N53    N     0.31501   0.12494   0.29108   0.00000  Uiso   1.00
N54    N     0.20177   0.00431   0.19080   0.00000  Uiso   1.00
N55    N     0.12487   0.26355   0.41373   0.00000  Uiso   1.00
O56    O     0.16667   0.16667   0.25000   0.00000  Uiso   1.00
O57    O     0.15451   0.12637   0.15459   0.00000  Uiso   1.00
O58    O     0.12940   0.20391   0.34968   0.00000  Uiso   1.00
O59    O     0.20824   0.17759   0.14606   0.00000  Uiso   1.00
O60    O     0.17451   0.15880   0.34968   0.00000  Uiso   1.00
O61    O     0.22965   0.04050   0.45915   0.00000  Uiso   1.00
O62    O     0.21061   0.01333   0.02713   0.00000  Uiso   1.00
O63    O     0.08827   0.18399   0.08237   0.00000  Uiso   1.00
O64    O     0.11470   0.25244   0.08922   0.00000  Uiso   1.00
O65    O     0.06156   0.27848   0.01222   0.00000  Uiso   1.00
O66    O     0.12393   0.31188   0.02495   0.00000  Uiso   1.00
O67    O     0.17930   0.08019   0.28214   0.00000  Uiso   1.00
O68    O     0.01702   0.21251   0.17064   0.00000  Uiso   1.00
O69    O     0.05292   0.23734   0.22369   0.00000  Uiso   1.00
O70    O     0.14632   0.26085   0.27014   0.00000  Uiso   1.00
O71    O     0.07412   0.13291   0.23413   0.00000  Uiso   1.00
O72    O     0.26693   0.19272   0.21361   0.00000  Uiso   1.00
O73    O     0.07071   0.18878   0.28213   0.00000  Uiso   1.00
O74    O     0.25491   0.15226   0.27014   0.00000  Uiso   1.00
O75    O     0.13760   0.06944   0.23413   0.00000  Uiso   1.00
O76    O     0.20345   0.25620   0.21361   0.00000  Uiso   1.00
Zn77   Zn    0.19338   0.13994   0.28734   0.00000  Uiso   1.00
Zn78   Zn    0.13379   0.12458   0.21876   0.00000  Uiso   1.00
Zn79   Zn    0.21056   0.19775   0.20657   0.00000  Uiso   1.00
Zn80   Zn    0.12893   0.20439   0.28734   0.00000  Uiso   1.00
C81    C     0.38639   0.15947   0.26002   0.00000  Uiso   1.00
C82    C     0.51281   0.16559   0.05629   0.00000  Uiso   1.00
C83    C     0.53372   0.09880   0.06264   0.00000  Uiso   1.00
C84    C     0.61413   0.17374   0.24007   0.00000  Uiso   1.00
C85    C     0.47453   0.19320   0.42077   0.00000  Uiso   1.00
C86    C     0.65981   0.17863   0.23797   0.00000  Uiso   1.00
C87    C     0.34147   0.15609   0.26372   0.00000  Uiso   1.00
C88    C     0.51068   0.32148   0.23216   0.00000  Uiso   1.00
C89    C     0.48702   0.01192   0.26419   0.00000  Uiso   1.00
C90    C     0.48936   0.05593   0.26060   0.00000  Uiso   1.00
C91    C     0.50930   0.27765   0.23926   0.00000  Uiso   1.00
C92    C     0.45273   0.23986   0.48802   0.00000  Uiso   1.00
C93    C     0.51854   0.14796   0.12932   0.00000  Uiso   1.00
C94    C     0.48176   0.18451   0.37121   0.00000  Uiso   1.00
C95    C     0.53003   0.08533   0.01912   0.00000  Uiso   1.00
C96    C     0.52498   0.13861   0.08110   0.00000  Uiso   1.00
C97    C     0.46197   0.23219   0.44097   0.00000  Uiso   1.00
C98    C     0.64546   0.08356   0.26848   0.00000  Uiso   1.00
C99    C     0.57711   0.02478   0.19208   0.00000  Uiso   1.00
C100   C     0.54601   0.04514   0.49926   0.00000  Uiso   1.00
C101   C     0.49691   0.29154   0.39910   0.00000  Uiso   1.00
C102   C     0.44220   0.21464   0.06393   0.00000  Uiso   1.00
C103   C     0.46158   0.21129   0.01467   0.00000  Uiso   1.00
C104   C     0.43273   0.27753   0.00910   0.00000  Uiso   1.00
C105   C     0.35505   0.20996   0.20821   0.00000  Uiso   1.00
C106   C     0.48217   0.17593   0.49339   0.00000  Uiso   1.00
C107   C     0.48187   0.16397   0.44798   0.00000  Uiso   1.00
C108   C     0.50173   0.15099   0.01575   0.00000  Uiso   1.00
C109   C     0.51179   0.11067   0.49623   0.00000  Uiso   1.00
C110   C     0.50143   0.09613   0.45558   0.00000  Uiso   1.00
C111   C     0.48744   0.12243   0.43162   0.00000  Uiso   1.00
H112   H     0.54389   0.07847   0.08235   0.00000  Uiso   1.00
H113   H     0.53597   0.31618   0.16348   0.00000  Uiso   1.00
H114   H     0.59329   0.03719   0.15901   0.00000  Uiso   1.00
H115   H     0.59650   0.00233   0.19946   0.00000  Uiso   1.00
H116   H     0.57487   0.05136   0.21797   0.00000  Uiso   1.00
H117   H     0.55615   0.32101   0.00992   0.00000  Uiso   1.00
H118   H     0.43170   0.27895   0.42559   0.00000  Uiso   1.00
H119   H     0.49204   0.31308   0.37585   0.00000  Uiso   1.00
H120   H     0.52346   0.27364   0.38094   0.00000  Uiso   1.00
H121   H     0.50555   0.31027   0.42845   0.00000  Uiso   1.00
H122   H     0.43383   0.25045   0.12230   0.00000  Uiso   1.00
H123   H     0.46932   0.33322   0.29609   0.00000  Uiso   1.00
H124   H     0.44019   0.00251   0.03830   0.00000  Uiso   1.00
H125   H     0.40263   0.25794   0.20105   0.00000  Uiso   1.00
H126   H     0.50394   0.06434   0.44165   0.00000  Uiso   1.00
H127   H     0.51026   0.19728   0.07038   0.00000  Uiso   1.00
H128   H     0.47962   0.10901   0.40079   0.00000  Uiso   1.00
H129   H     0.65558   0.12474   0.32162   0.00000  Uiso   1.00
H130   H     0.61949   0.06289   0.28938   0.00000  Uiso   1.00
H131   H     0.34256   0.07027   0.26325   0.00000  Uiso   1.00
H132   H     0.63833   0.08460   0.23543   0.00000  Uiso   1.00
N133   N     0.64835   0.12494   0.29108   0.00000  Uiso   1.00
N134   N     0.53510   0.00431   0.19080   0.00000  Uiso   1.00
N135   N     0.45820   0.26355   0.41373   0.00000  Uiso   1.00
O136   O     0.50000   0.16667   0.25000   0.00000  Uiso   1.00
O137   O     0.48784   0.12637   0.15459   0.00000  Uiso   1.00
O138   O     0.46274   0.20391   0.34968   0.00000  Uiso   1.00
O139   O     0.54157   0.17759   0.14606   0.00000  Uiso   1.00
O140   O     0.50785   0.15880   0.34968   0.00000  Uiso   1.00
O141   O     0.56299   0.04050   0.45915   0.00000  Uiso   1.00
O142   O     0.54394   0.01333   0.02713   0.00000  Uiso   1.00
O143   O     0.42160   0.18399   0.08237   0.00000  Uiso   1.00
O144   O     0.44804   0.25244   0.08922   0.00000  Uiso   1.00
O145   O     0.39490   0.27848   0.01222   0.00000  Uiso   1.00
O146   O     0.45726   0.31188   0.02495   0.00000  Uiso   1.00
O147   O     0.51264   0.08019   0.28214   0.00000  Uiso   1.00
O148   O     0.35036   0.21251   0.17064   0.00000  Uiso   1.00
O149   O     0.38625   0.23734   0.22369   0.00000  Uiso   1.00
O150   O     0.47965   0.26085   0.27014   0.00000  Uiso   1.00
O151   O     0.40745   0.13291   0.23413   0.00000  Uiso   1.00
O152   O     0.60026   0.19272   0.21361   0.00000  Uiso   1.00
O153   O     0.40405   0.18878   0.28213   0.00000  Uiso   1.00
O154   O     0.58824   0.15226   0.27014   0.00000  Uiso   1.00
O155   O     0.47093   0.06944   0.23413   0.00000  Uiso   1.00
O156   O     0.53678   0.25620   0.21361   0.00000  Uiso   1.00
Zn157  Zn    0.52672   0.13994   0.28734   0.00000  Uiso   1.00
Zn158  Zn    0.46713   0.12458   0.21876   0.00000  Uiso   1.00
Zn159  Zn    0.54389   0.19775   0.20657   0.00000  Uiso   1.00
Zn160  Zn    0.46226   0.20439   0.28734   0.00000  Uiso   1.00
C161   C     0.71973   0.15947   0.26002   0.00000  Uiso   1.00
C162   C     0.84614   0.16559   0.05629   0.00000  Uiso   1.00
C163   C     0.86705   0.09880   0.06264   0.00000  Uiso   1.00
C164   C     0.94747   0.17374   0.24007   0.00000  Uiso   1.00
C165   C     0.80786   0.19320   0.42077   0.00000  Uiso   1.00
C166   C     0.99314   0.17863   0.23797   0.00000  Uiso   1.00
C167   C     0.67480   0.15609   0.26372   0.00000  Uiso   1.00
C168   C     0.84401   0.32148   0.23216   0.00000  Uiso   1.00
C169   C     0.82035   0.01192   0.26419   0.00000  Uiso   1.00
C170   C     0.82269   0.05593   0.26060   0.00000  Uiso   1.00
C171   C     0.84264   0.27765   0.23926   0.00000  Uiso   1.00
C172   C     0.78606   0.23986   0.48802   0.00000  Uiso   1.00
C173   C     0.85188   0.14796   0.12932   0.00000  Uiso   1.00
C174   C     0.81509   0.18451   0.37121   0.00000  Uiso   1.00
C175   C     0.86337   0.08533   0.01912   0.00000  Uiso   1.00
C176   C     0.85831   0.13861   0.08110   0.00000  Uiso   1.00
C177   C     0.79530   0.23219   0.44097   0.00000  Uiso   1.00
C178   C     0.97880   0.08356   0.26848   0.00000  Uiso   1.00
C179   C     0.91044   0.02478   0.19208   0.00000  Uiso   1.00
C180   C     0.87934   0.04514   0.49926   0.00000  Uiso   1.00
C181   C     0.83025   0.29154   0.39910   0.00000  Uiso   1.00
C182   C     0.77553   0.21464   0.06393   0.00000  Uiso   1.00
C183   C     0.79492   0.21129   0.01467   0.00000  Uiso   1.00
C184   C     0.76606   0.27753   0.00910   0.00000  Uiso   1.00
C185   C     0.68838   0.20996   0.20821   0.00000  Uiso   1.00
C186   C     0.81550   0.17593   0.49339   0.00000  Uiso   1.00
C187   C     0.81520   0.16397   0.44798   0.00000  Uiso   1.00
C188   C     0.83507   0.15099   0.01575   0.00000  Uiso   1.00
C189   C     0.84513   0.11067   0.49623   0.00000  Uiso   1.00
C190   C     0.83476   0.09613   0.45558   0.00000  Uiso   1.00
C191   C     0.82078   0.12243   0.43162   0.00000  Uiso   1.00
H192   H     0.87723   0.07847   0.08235   0.00000  Uiso   1.00
H193   H     0.86930   0.31618   0.16348   0.00000  Uiso   1.00
H194   H     0.92662   0.03719   0.15901   0.00000  Uiso   1.00
H195   H     0.92984   0.00233   0.19946   0.00000  Uiso   1.00
H196   H     0.90820   0.05136   0.21797   0.00000  Uiso   1.00
H197   H     0.88948   0.32101   0.00992   0.00000  Uiso   1.00
H198   H     0.76503   0.27895   0.42559   0.00000  Uiso   1.00
H199   H     0.82537   0.31308   0.37585   0.00000  Uiso   1.00
H200   H     0.85679   0.27364   0.38094   0.00000  Uiso   1.00
H201   H     0.83889   0.31027   0.42845   0.00000  Uiso   1.00
H202   H     0.76716   0.25045   0.12230   0.00000  Uiso   1.00
H203   H     0.80265   0.33322   0.29609   0.00000  Uiso   1.00
H204   H     0.77352   0.00251   0.03830   0.00000  Uiso   1.00
H205   H     0.73596   0.25794   0.20105   0.00000  Uiso   1.00
H206   H     0.83728   0.06434   0.44165   0.00000  Uiso   1.00
H207   H     0.84360   0.19728   0.07038   0.00000  Uiso   1.00
H208   H     0.81295   0.10901   0.40079   0.00000  Uiso   1.00
H209   H     0.98892   0.12474   0.32162   0.00000  Uiso   1.00
H210   H     0.95282   0.06289   0.28938   0.00000  Uiso   1.00
H211   H     0.67590   0.07027   0.26325   0.00000  Uiso   1.00
H212   H     0.97166   0.08460   0.23543   0.00000  Uiso   1.00
N213   N     0.98168   0.12494   0.29108   0.00000  Uiso   1.00
N214   N     0.86843   0.00431   0.19080   0.00000  Uiso   1.00
N215   N     0.79153   0.26355   0.41373   0.00000  Uiso   1.00
O216   O     0.83333   0.16667   0.25000   0.00000  Uiso   1.00
O217   O     0.82118   0.12637   0.15459   0.00000  Uiso   1.00
O218   O     0.79607   0.20391   0.34968   0.00000  Uiso   1.00
O219   O     0.87491   0.17759   0.14606   0.00000  Uiso   1.00
O220   O     0.84118   0.15880   0.34968   0.00000  Uiso   1.00
O221   O     0.89632   0.04050   0.45915   0.00000  Uiso   1.00
O222   O     0.87727   0.01333   0.02713   0.00000  Uiso   1.00
O223   O     0.75494   0.18399   0.08237   0.00000  Uiso   1.00
O224   O     0.78137   0.25244   0.08922   0.00000  Uiso   1.00
O225   O     0.72823   0.27848   0.01222   0.00000  Uiso   1.00
O226   O     0.79060   0.31188   0.02495   0.00000  Uiso   1.00
O227   O     0.84597   0.08019   0.28214   0.00000  Uiso   1.00
O228   O     0.68369   0.21251   0.17064   0.00000  Uiso   1.00
O229   O     0.71958   0.23734   0.22369   0.00000  Uiso   1.00
O230   O     0.81298   0.26085   0.27014   0.00000  Uiso   1.00
O231   O     0.74078   0.13291   0.23413   0.00000  Uiso   1.00
O232   O     0.93360   0.19272   0.21361   0.00000  Uiso   1.00
O233   O     0.73738   0.18878   0.28213   0.00000  Uiso   1.00
O234   O     0.92158   0.15226   0.27014   0.00000  Uiso   1.00
O235   O     0.80426   0.06944   0.23413   0.00000  Uiso   1.00
O236   O     0.87012   0.25620   0.21361   0.00000  Uiso   1.00
Zn237  Zn    0.86005   0.13994   0.28734   0.00000  Uiso   1.00
Zn238  Zn    0.80046   0.12458   0.21876   0.00000  Uiso   1.00
Zn239  Zn    0.87723   0.19775   0.20657   0.00000  Uiso   1.00
Zn240  Zn    0.79560   0.20439   0.28734   0.00000  Uiso   1.00
C241   C     0.05306   0.49280   0.26002   0.00000  Uiso   1.00
C242   C     0.17947   0.49892   0.05629   0.00000  Uiso   1.00
C243   C     0.20038   0.43214   0.06264   0.00000  Uiso   1.00
C244   C     0.28080   0.50707   0.24007   0.00000  Uiso   1.00
C245   C     0.14119   0.52654   0.42077   0.00000  Uiso   1.00
C246   C     0.32648   0.51196   0.23797   0.00000  Uiso   1.00
C247   C     0.00813   0.48943   0.26372   0.00000  Uiso   1.00
C248   C     0.17734   0.65482   0.23216   0.00000  Uiso   1.00
C249   C     0.15368   0.34526   0.26419   0.00000  Uiso   1.00
C250   C     0.15602   0.38927   0.26060   0.00000  Uiso   1.00
C251   C     0.17597   0.61099   0.23926   0.00000  Uiso   1.00
C252   C     0.11939   0.57319   0.48802   0.00000  Uiso   1.00
C253   C     0.18521   0.48129   0.12932   0.00000  Uiso   1.00
C254   C     0.14842   0.51784   0.37121   0.00000  Uiso   1.00
C255   C     0.19670   0.41866   0.01912   0.00000  Uiso   1.00
C256   C     0.19165   0.47194   0.08110   0.00000  Uiso   1.00
C257   C     0.12864   0.56553   0.44097   0.00000  Uiso   1.00
C258   C     0.31213   0.41689   0.26848   0.00000  Uiso   1.00
C259   C     0.24378   0.35812   0.19208   0.00000  Uiso   1.00
C260   C     0.21268   0.37847   0.49926   0.00000  Uiso   1.00
C261   C     0.16358   0.62488   0.39910   0.00000  Uiso   1.00
C262   C     0.10886   0.54797   0.06393   0.00000  Uiso   1.00
C263   C     0.12825   0.54462   0.01467   0.00000  Uiso   1.00
C264   C     0.09939   0.61087   0.00910   0.00000  Uiso   1.00
C265   C     0.02172   0.54330   0.20821   0.00000  Uiso   1.00
C266   C     0.14884   0.50926   0.49339   0.00000  Uiso   1.00
C267   C     0.14854   0.49730   0.44798   0.00000  Uiso   1.00
C268   C     0.16840   0.48433   0.01575   0.00000  Uiso   1.00
C269   C     0.17846   0.44400   0.49623   0.00000  Uiso   1.00
C270   C     0.16809   0.42946   0.45558   0.00000  Uiso   1.00
C271   C     0.15411   0.45576   0.43162   0.00000  Uiso   1.00
H272   H     0.21056   0.41180   0.08235   0.00000  Uiso   1.00
H273   H     0.20264   0.64951   0.16348   0.00000  Uiso   1.00
H274   H     0.25995   0.37052   0.15901   0.00000  Uiso   1.00
H275   H     0.26317   0.33567   0.19946   0.00000  Uiso   1.00
H276   H     0.24154   0.38469   0.21797   0.00000  Uiso   1.00
H277   H     0.22282   0.65434   0.00992   0.00000  Uiso   1.00
H278   H     0.09836   0.61229   0.42559   0.00000  Uiso   1.00
H279   H     0.15870   0.64641   0.37585   0.00000  Uiso   1.00
H280   H     0.19012   0.60697   0.38094   0.00000  Uiso   1.00
H281   H     0.17222   0.64360   0.42845   0.00000  Uiso   1.00
H282   H     0.10049   0.58378   0.12230   0.00000  Uiso   1.00
H283   H     0.13599   0.66655   0.29609   0.00000  Uiso   1.00
H284   H     0.10685   0.33584   0.03830   0.00000  Uiso   1.00
H285   H     0.06929   0.59127   0.20105   0.00000  Uiso   1.00
H286   H     0.17061   0.39767   0.44165   0.00000  Uiso   1.00
H287   H     0.17693   0.53061   0.07038   0.00000  Uiso   1.00
H288   H     0.14629   0.44234   0.40079   0.00000  Uiso   1.00
H289   H     0.32225   0.45807   0.32162   0.00000  Uiso   1.00
H290   H     0.28615   0.39622   0.28938   0.00000  Uiso   1.00
H291   H     0.00923   0.40360   0.26325   0.00000  Uiso   1.00
H292   H     0.30500   0.41794   0.23543   0.00000  Uiso   1.00
N293   N     0.31501   0.45827   0.29108   0.00000  Uiso   1.00
N294   N     0.20177   0.33764   0.19080   0.00000  Uiso   1.00
N295   N     0.12487   0.59688   0.41373   0.00000  Uiso   1.00
O296   O     0.16667   0.50000   0.25000   0.00000  Uiso   1.00
O297   O     0.15451   0.45970   0.15459   0.00000  Uiso   1.00
O298   O     0.12940   0.53724   0.34968   0.00000  Uiso   1.00
O299   O     0.20824   0.51092   0.14606   0.00000  Uiso   1.00
O300   O     0.17451   0.49213   0.34968   0.00000  Uiso   1.00
O301   O     0.22965   0.37383   0.45915   0.00000  Uiso   1.00
O302   O     0.21061   0.34666   0.02713   0.00000  Uiso   1.00
O303   O     0.08827   0.51732   0.08237   0.00000  Uiso   1.00
O304   O     0.11470   0.58578   0.08922   0.00000  Uiso   1.00
O305   O     0.06156   0.61181   0.01222   0.00000  Uiso   1.00
O306   O     0.12393   0.64521   0.02495   0.00000  Uiso   1.00
O307   O     0.17930   0.41352   0.28214   0.00000  Uiso   1.00
O308   O     0.01702   0.54585   0.17064   0.00000  Uiso   1.00
O309   O     0.05292   0.57068   0.22369   0.00000  Uiso   1.00
O310   O     0.14632   0.59418   0.27014   0.00000  Uiso   1.00
O311   O     0.07412   0.46625   0.23413   0.00000  Uiso   1.00
O312   O     0.26693   0.52605   0.21361   0.00000  Uiso   1.00
O313   O     0.07071   0.52211   0.28213   0.00000  Uiso   1.00
O314   O     0.25491   0.48559   0.27014   0.00000  Uiso   1.00
O315   O     0.13760   0.40277   0.23413   0.00000  Uiso   1.00
O316   O     0.20345   0.58953   0.21361   0.00000  Uiso   1.00
Zn317  Zn    0.19338   0.47327   0.28734   0.00000  Uiso   1.00
Zn318  Zn    0.13379   0.45791   0.21876   0.00000  Uiso   1.00
Zn319  Zn    0.21056   0.53109   0.20657   0.00000  Uiso   1.00
Zn320  Zn    0.12893   0.53773   0.28734   0.00000  Uiso   1.00
C321   C     0.38639   0.49280   0.26002   0.00000  Uiso   1.00
C322   C     0.51281   0.49892   0.05629   0.00000  Uiso   1.00
C323   C     0.53372   0.43214   0.06264   0.00000  Uiso   1.00
C324   C     0.61413   0.50707   0.24007   0.00000  Uiso   1.00
C325   C     0.47453   0.52654   0.42077   0.00000  Uiso   1.00
C326   C     0.65981   0.51196   0.23797   0.00000  Uiso   1.00
C327   C     0.34147   0.48943   0.26372   0.00000  Uiso   1.00
C328   C     0.51068   0.65482   0.23216   0.00000  Uiso   1.00
C329   C     0.48702   0.34526   0.26419   0.00000  Uiso   1.00
C330   C     0.48936   0.38927   0.26060   0.00000  Uiso   1.00
C331   C     0.50930   0.61099   0.23926   0.00000  Uiso   1.00
C332   C     0.45273   0.57319   0.48802   0.00000  Uiso   1.00
C333   C     0.51854   0.48129   0.12932   0.00000  Uiso   1.00
C334   C     0.48176   0.51784   0.37121   0.00000  Uiso   1.00
C335   C     0.53003   0.41866   0.01912   0.00000  Uiso   1.00
C336   C     0.52498   0.47194   0.08110   0.00000  Uiso   1.00
C337   C     0.46197   0.56553   0.44097   0.00000  Uiso   1.00
C338   C     0.64546   0.41689   0.26848   0.00000  Uiso   1.00
C339   C     0.57711   0.35812   0.19208   0.00000  Uiso   1.00
C340   C     0.54601   0.37847   0.49926   0.00000  Uiso   1.00
C341   C     0.49691   0.62488   0.39910   0.00000  Uiso   1.00
C342   C     0.44220   0.54797   0.06393   0.00000  Uiso   1.00
C343   C     0.46158   0.54462   0.01467   0.00000  Uiso   1.00
C344   C     0.43273   0.61087   0.00910   0.00000  Uiso   1.00
C345   C     0.35505   0.54330   0.20821   0.00000  Uiso   1.00
C346   C     0.48217   0.50926   0.49339   0.00000  Uiso   1.00
C347   C     0.48187   0.49730   0.44798   0.00000  Uiso   1.00
C348   C     0.50173   0.48433   0.01575   0.00000  Uiso   1.00
C349   C     0.51179   0.44400   0.49623   0.00000  Uiso   1.00
C350   C     0.50143   0.42946   0.45558   0.00000  Uiso   1.00
C351   C     0.48744   0.45576   0.43162   0.00000  Uiso   1.00
H352   H     0.54389   0.41180   0.08235   0.00000  Uiso   1.00
H353   H     0.53597   0.64951   0.16348   0.00000  Uiso   1.00
H354   H     0.59329   0.37052   0.15901   0.00000  Uiso   1.00
H355   H     0.59650   0.33567   0.19946   0.00000  Uiso   1.00
H356   H     0.57487   0.38469   0.21797   0.00000  Uiso   1.00
H357   H     0.55615   0.65434   0.00992   0.00000  Uiso   1.00
H358   H     0.43170   0.61229   0.42559   0.00000  Uiso   1.00
H359   H     0.49204   0.64641   0.37585   0.00000  Uiso   1.00
H360   H     0.52346   0.60697   0.38094   0.00000  Uiso   1.00
H361   H     0.50555   0.64360   0.42845   0.00000  Uiso   1.00
H362   H     0.43383   0.58378   0.12230   0.00000  Uiso   1.00
H363   H     0.46932   0.66655   0.29609   0.00000  Uiso   1.00
H364   H     0.44019   0.33584   0.03830   0.00000  Uiso   1.00
H365   H     0.40263   0.59127   0.20105   0.00000  Uiso   1.00
H366   H     0.50394   0.39767   0.44165   0.00000  Uiso   1.00
H367   H     0.51026   0.53061   0.07038   0.00000  Uiso   1.00
H368   H     0.47962   0.44234   0.40079   0.00000  Uiso   1.00
H369   H     0.65558   0.45807   0.32162   0.00000  Uiso   1.00
H370   H     0.61949   0.39622   0.28938   0.00000  Uiso   1.00
H371   H     0.34256   0.40360   0.26325   0.00000  Uiso   1.00
H372   H     0.63833   0.41794   0.23543   0.00000  Uiso   1.00
N373   N     0.64835   0.45827   0.29108   0.00000  Uiso   1.00
N374   N     0.53510   0.33764   0.19080   0.00000  Uiso   1.00
N375   N     0.45820   0.59688   0.41373   0.00000  Uiso   1.00
O376   O     0.50000   0.50000   0.25000   0.00000  Uiso   1.00
O377   O     0.48784   0.45970   0.15459   0.00000  Uiso   1.00
O378   O     0.46274   0.53724   0.34968   0.00000  Uiso   1.00
O379   O     0.54157   0.51092   0.14606   0.00000  Uiso   1.00
O380   O     0.50785   0.49213   0.34968   0.00000  Uiso   1.00
O381   O     0.56299   0.37383   0.45915   0.00000  Uiso   1.00
O382   O     0.54394   0.34666   0.02713   0.00000  Uiso   1.00
O383   O     0.42160   0.51732   0.08237   0.00000  Uiso   1.00
O384   O     0.44804   0.58578   0.08922   0.00000  Uiso   1.00
O385   O     0.39490   0.61181   0.01222   0.00000  Uiso   1.00
O386   O     0.45726   0.64521   0.02495   0.00000  Uiso   1.00
O387   O     0.51264   0.41352   0.28214   0.00000  Uiso   1.00
O388   O     0.35036   0.54585   0.17064   0.00000  Uiso   1.00
O389   O     0.38625   0.57068   0.22369   0.00000  Uiso   1.00
O390   O     0.47965   0.59418   0.27014   0.00000  Uiso   1.00
O391   O     0.40745   0.46625   0.23413   0.00000  Uiso   1.00
O392   O     0.60026   0.52605   0.21361   0.00000  Uiso   1.00
O393   O     0.40405   0.52211   0.28213   0.00000  Uiso   1.00
O394   O     0.58824   0.48559   0.27014   0.00000  Uiso   1.00
O395   O     0.47093   0.40277   0.23413   0.00000  Uiso   1.00
O396   O     0.53678   0.58953   0.21361   0.00000  Uiso   1.00
Zn397  Zn    0.52672   0.47327   0.28734   0.00000  Uiso   1.00
Zn398  Zn    0.46713   0.45791   0.21876   0.00000  Uiso   1.00
Zn399  Zn    0.54389   0.53109   0.20657   0.00000  Uiso   1.00
Zn400  Zn    0.46226   0.53773   0.28734   0.00000  Uiso   1.00
C401   C     0.71973   0.49280   0.26002   0.00000  Uiso   1.00
C402   C     0.84614   0.49892   0.05629   0.00000  Uiso   1.00
C403   C     0.86705   0.43214   0.06264   0.00000  Uiso   1.00
C404   C     0.94747   0.50707   0.24007   0.00000  Uiso   1.00
C405   C     0.80786   0.52654   0.42077   0.00000  Uiso   1.00
C406   C     0.99314   0.51196   0.23797   0.00000  Uiso   1.00
C407   C     0.67480   0.48943   0.26372   0.00000  Uiso   1.00
C408   C     0.84401   0.65482   0.23216   0.00000  Uiso   1.00
C409   C     0.82035   0.34526   0.26419   0.00000  Uiso   1.00
C410   C     0.82269   0.38927   0.26060   0.00000  Uiso   1.00
C411   C     0.84264   0.61099   0.23926   0.00000  Uiso   1.00
C412   C     0.78606   0.57319   0.48802   0.00000  Uiso   1.00
C413   C     0.85188   0.48129   0.12932   0.00000  Uiso   1.00
C414   C     0.81509   0.51784   0.37121   0.00000  Uiso   1.00
C415   C     0.86337   0.41866   0.01912   0.00000  Uiso   1.00
C416   C     0.85831   0.47194   0.08110   0.00000  Uiso   1.00
C417   C     0.79530   0.56553   0.44097   0.00000  Uiso   1.00
C418   C     0.97880   0.41689   0.26848   0.00000  Uiso   1.00
C419   C     0.91044   0.35812   0.19208   0.00000  Uiso   1.00
C420   C     0.87934   0.37847   0.49926   0.00000  Uiso   1.00
C421   C     0.83025   0.62488   0.39910   0.00000  Uiso   1.00
C422   C     0.77553   0.54797   0.06393   0.00000  Uiso   1.00
C423   C     0.79492   0.54462   0.01467   0.00000  Uiso   1.00
C424   C     0.76606   0.61087   0.00910   0.00000  Uiso   1.00
C425   C     0.68838   0.54330   0.20821   0.00000  Uiso   1.00
C426   C     0.81550   0.50926   0.49339   0.00000  Uiso   1.00
C427   C     0.81520   0.49730   0.44798   0.00000  Uiso   1.00
C428   C     0.83507   0.48433   0.01575   0.00000  Uiso   1.00
C429   C     0.84513   0.44400   0.49623   0.00000  Uiso   1.00
C430   C     0.83476   0.42946   0.45558   0.00000  Uiso   1.00
C431   C     0.82078   0.45576   0.43162   0.00000  Uiso   1.00
H432   H     0.87723   0.41180   0.08235   0.00000  Uiso   1.00
H433   H     0.86930   0.64951   0.16348   0.00000  Uiso   1.00
H434   H     0.92662   0.37052   0.15901   0.00000  Uiso   1.00
H435   H     0.92984   0.33567   0.19946   0.00000  Uiso   1.00
H436   H     0.90820   0.38469   0.21797   0.00000  Uiso   1.00
H437   H     0.88948   0.65434   0.00992   0.00000  Uiso   1.00
H438   H     0.76503   0.61229   0.42559   0.00000  Uiso   1.00
H439   H     0.82537   0.64641   0.37585   0.00000  Uiso   1.00
H440   H     0.85679   0.60697   0.38094   0.00000  Uiso   1.00
H441   H     0.83889   0.64360   0.42845   0.00000  Uiso   1.00
H442   H     0.76716   0.58378   0.12230   0.00000  Uiso   1.00
H443   H     0.80265   0.66655   0.29609   0.00000  Uiso   1.00
H444   H     0.77352   0.33584   0.03830   0.00000  Uiso   1.00
H445   H     0.73596   0.59127   0.20105   0.00000  Uiso   1.00
H446   H     0.83728   0.39767   0.44165   0.00000  Uiso   1.00
H447   H     0.84360   0.53061   0.07038   0.00000  Uiso   1.00
H448   H     0.81295   0.44234   0.40079   0.00000  Uiso   1.00
H449   H     0.98892   0.45807   0.32162   0.00000  Uiso   1.00
H450   H     0.95282   0.39622   0.28938   0.00000  Uiso   1.00
H451   H     0.67590   0.40360   0.26325   0.00000  Uiso   1.00
H452   H     0.97166   0.41794   0.23543   0.00000  Uiso   1.00
N453   N     0.98168   0.45827   0.29108   0.00000  Uiso   1.00
N454   N     0.86843   0.33764   0.19080   0.00000  Uiso   1.00
N455   N     0.79153   0.59688   0.41373   0.00000  Uiso   1.00
O456   O     0.83333   0.50000   0.25000   0.00000  Uiso   1.00
O457   O     0.82118   0.45970   0.15459   0.00000  Uiso   1.00
O458   O     0.79607   0.53724   0.34968   0.00000  Uiso   1.00
O459   O     0.87491   0.51092   0.14606   0.00000  Uiso   1.00
O460   O     0.84118   0.49213   0.34968   0.00000  Uiso   1.00
O461   O     0.89632   0.37383   0.45915   0.00000  Uiso   1.00
O462   O     0.87727   0.34666   0.02713   0.00000  Uiso   1.00
O463   O     0.75494   0.51732   0.08237   0.00000  Uiso   1.00
O464   O     0.78137   0.58578   0.08922   0.00000  Uiso   1.00
O465   O     0.72823   0.61181   0.01222   0.00000  Uiso   1.00
O466   O     0.79060   0.64521   0.02495   0.00000  Uiso   1.00
O467   O     0.84597   0.41352   0.28214   0.00000  Uiso   1.00
O468   O     0.68369   0.54585   0.17064   0.00000  Uiso   1.00
O469   O     0.71958   0.57068   0.22369   0.00000  Uiso   1.00
O470   O     0.81298   0.59418   0.27014   0.00000  Uiso   1.00
O471   O     0.74078   0.46625   0.23413   0.00000  Uiso   1.00
O472   O     0.93360   0.52605   0.21361   0.00000  Uiso   1.00
O473   O     0.73738   0.52211   0.28213   0.00000  Uiso   1.00
O474   O     0.92158   0.48559   0.27014   0.00000  Uiso   1.00
O475   O     0.80426   0.40277   0.23413   0.00000  Uiso   1.00
O476   O     0.87012   0.58953   0.21361   0.00000  Uiso   1.00
Zn477  Zn    0.86005   0.47327   0.28734   0.00000  Uiso   1.00
Zn478  Zn    0.80046   0.45791   0.21876   0.00000  Uiso   1.00
Zn479  Zn    0.87723   0.53109   0.20657   0.00000  Uiso   1.00
Zn480  Zn    0.79560   0.53773   0.28734   0.00000  Uiso   1.00
C481   C     0.05306   0.82614   0.26002   0.00000  Uiso   1.00
C482   C     0.17947   0.83226   0.05629   0.00000  Uiso   1.00
C483   C     0.20038   0.76547   0.06264   0.00000  Uiso   1.00
C484   C     0.28080   0.84040   0.24007   0.00000  Uiso   1.00
C485   C     0.14119   0.85987   0.42077   0.00000  Uiso   1.00
C486   C     0.32648   0.84530   0.23797   0.00000  Uiso   1.00
C487   C     0.00813   0.82276   0.26372   0.00000  Uiso   1.00
C488   C     0.17734   0.98815   0.23216   0.00000  Uiso   1.00
C489   C     0.15368   0.67859   0.26419   0.00000  Uiso   1.00
C490   C     0.15602   0.72260   0.26060   0.00000  Uiso   1.00
C491   C     0.17597   0.94432   0.23926   0.00000  Uiso   1.00
C492   C     0.11939   0.90653   0.48802   0.00000  Uiso   1.00
C493   C     0.18521   0.81463   0.12932   0.00000  Uiso   1.00
C494   C     0.14842   0.85118   0.37121   0.00000  Uiso   1.00
C495   C     0.19670   0.75199   0.01912   0.00000  Uiso   1.00
C496   C     0.19165   0.80528   0.08110   0.00000  Uiso   1.00
C497   C     0.12864   0.89886   0.44097   0.00000  Uiso   1.00
C498   C     0.31213   0.75022   0.26848   0.00000  Uiso   1.00
C499   C     0.24378   0.69145   0.19208   0.00000  Uiso   1.00
C500   C     0.21268   0.71180   0.49926   0.00000  Uiso   1.00
C501   C     0.16358   0.95821   0.39910   0.00000  Uiso   1.00
C502   C     0.10886   0.88130   0.06393   0.00000  Uiso   1.00
C503   C     0.12825   0.87796   0.01467   0.00000  Uiso   1.00
C504   C     0.09939   0.94420   0.00910   0.00000  Uiso   1.00
C505   C     0.02172   0.87663   0.20821   0.00000  Uiso   1.00
C506   C     0.14884   0.84260   0.49339   0.00000  Uiso   1.00
C507   C     0.14854   0.83063   0.44798   0.00000  Uiso   1.00
C508   C     0.16840   0.81766   0.01575   0.00000  Uiso   1.00
C509   C     0.17846   0.77734   0.49623   0.00000  Uiso   1.00
C510   C     0.16809   0.76279   0.45558   0.00000  Uiso   1.00
C511   C     0.15411   0.78910   0.43162   0.00000  Uiso   1.00
H512   H     0.21056   0.74514   0.08235   0.00000  Uiso   1.00
H513   H     0.20264   0.98285   0.16348   0.00000  Uiso   1.00
H514   H     0.25995   0.70385   0.15901   0.00000  Uiso   1.00
H515   H     0.26317   0.66900   0.19946   0.00000  Uiso   1.00
H516   H     0.24154   0.71803   0.21797   0.00000  Uiso   1.00
H517   H     0.22282   0.98768   0.00992   0.00000  Uiso   1.00
H518   H     0.09836   0.94562   0.42559   0.00000  Uiso   1.00
H519   H     0.15870   0.97975   0.37585   0.00000  Uiso   1.00
H520   H     0.19012   0.94030   0.38094   0.00000  Uiso   1.00
H521   H     0.17222   0.97694   0.42845   0.00000  Uiso   1.00
H522   H     0.10049   0.91712   0.12230   0.00000  Uiso   1.00
H523   H     0.13599   0.99988   0.29609   0.00000  Uiso   1.00
H524   H     0.10685   0.66918   0.03830   0.00000  Uiso   1.00
H525   H     0.06929   0.92461   0.20105   0.00000  Uiso   1.00
H526   H     0.17061   0.73101   0.44165   0.00000  Uiso   1.00
H527   H     0.17693   0.86395   0.07038   0.00000  Uiso   1.00
H528   H     0.14629   0.77568   0.40079   0.00000  Uiso   1.00
H529   H     0.32225   0.79141   0.32162   0.00000  Uiso   1.00
H530   H     0.28615   0.72956   0.28938   0.00000  Uiso   1.00
H531   H     0.00923   0.73694   0.26325   0.00000  Uiso   1.00
H532   H     0.30500   0.75127   0.23543   0.00000  Uiso   1.00
N533   N     0.31501   0.79161   0.29108   0.00000  Uiso   1.00
N534   N     0.20177   0.67098   0.19080   0.00000  Uiso   1.00
N535   N     0.12487   0.93022   0.41373   0.00000  Uiso   1.00
O536   O     0.16667   0.83333   0.25000   0.00000  Uiso   1.00
O537   O     0.15451   0.79304   0.15459   0.00000  Uiso   1.00
O538   O     0.12940   0.87058   0.34968   0.00000  Uiso   1.00
O539   O     0.20824   0.84425   0.14606   0.00000  Uiso   1.00
O540   O     0.17451   0.82546   0.34968   0.00000  Uiso   1.00
O541   O     0.22965   0.70717   0.45915   0.00000  Uiso   1.00
O542   O     0.21061   0.67999   0.02713   0.00000  Uiso   1.00
O543   O     0.08827   0.85066   0.08237   0.00000  Uiso   1.00
O544   O     0.11470   0.91911   0.08922   0.00000  Uiso   1.00
O545   O     0.06156   0.94515   0.01222   0.00000  Uiso   1.00
O546   O     0.12393   0.97855   0.02495   0.00000  Uiso   1.00
O547   O     0.17930   0.74686   0.28214   0.00000  Uiso   1.00
O548   O     0.01702   0.87918   0.17064   0.00000  Uiso   1.00
O549   O     0.05292   0.90401   0.22369   0.00000  Uiso   1.00
O550   O     0.14632   0.92751   0.27014   0.00000  Uiso   1.00
O551   O     0.07412   0.79958   0.23413   0.00000  Uiso   1.00
O552   O     0.26693   0.85939   0.21361   0.00000  Uiso   1.00
O553   O     0.07071   0.85544   0.28213   0.00000  Uiso   1.00
O554   O     0.25491   0.81892   0.27014   0.00000  Uiso   1.00
O555   O     0.13760   0.73610   0.23413   0.00000  Uiso   1.00
O556   O     0.20345   0.92286   0.21361   0.00000  Uiso   1.00
Zn557  Zn    0.19338   0.80661   0.28734   0.00000  Uiso   1.00
Zn558  Zn    0.13379   0.79124   0.21876   0.00000  Uiso   1.00
Zn559  Zn    0.21056   0.86442   0.20657   0.00000  Uiso   1.00
Zn560  Zn    0.12893   0.87106   0.28734   0.00000  Uiso   1.00
C561   C     0.38639   0.82614   0.26002   0.00000  Uiso   1.00
C562   C     0.51281   0.83226   0.05629   0.00000  Uiso   1.00
C563   C     0.53372   0.76547   0.06264   0.00000  Uiso   1.00
C564   C     0.61413   0.84040   0.24007   0.00000  Uiso   1.00
C565   C     0.47453   0.85987   0.42077   0.00000  Uiso   1.00
C566   C     0.65981   0.84530   0.23797   0.00000  Uiso   1.00
C567   C     0.34147   0.82276   0.26372   0.00000  Uiso   1.00
C568   C     0.51068   0.98815   0.23216   0.00000  Uiso   1.00
C569   C     0.48702   0.67859   0.26419   0.00000  Uiso   1.00
C570   C     0.48936   0.72260   0.26060   0.00000  Uiso   1.00
C571   C     0.50930   0.94432   0.23926   0.00000  Uiso   1.00
C572   C     0.45273   0.90653   0.48802   0.00000  Uiso   1.00
C573   C     0.51854   0.81463   0.12932   0.00000  Uiso   1.00
C574   C     0.48176   0.85118   0.37121   0.00000  Uiso   1.00
C575   C     0.53003   0.75199   0.01912   0.00000  Uiso   1.00
C576   C     0.52498   0.80528   0.08110   0.00000  Uiso   1.00
C577   C     0.46197   0.89886   0.44097   0.00000  Uiso   1.00
C578   C     0.64546   0.75022   0.26848   0.00000  Uiso   1.00
C579   C     0.57711   0.69145   0.19208   0.00000  Uiso   1.00
C580   C     0.54601   0.71180   0.49926   0.00000  Uiso   1.00
C581   C     0.49691   0.95821   0.39910   0.00000  Uiso   1.00
C582   C     0.44220   0.88130   0.06393   0.00000  Uiso   1.00
C583   C     0.46158   0.87796   0.01467   0.00000  Uiso   1.00
C584   C     0.43273   0.94420   0.00910   0.00000  Uiso   1.00
C585   C     0.35505   0.87663   0.20821   0.00000  Uiso   1.00
C586   C     0.48217   0.84260   0.49339   0.00000  Uiso   1.00
C587   C     0.48187   0.83063   0.44798   0.00000  Uiso   1.00
C588   C     0.50173   0.81766   0.01575   0.00000  Uiso   1.00
C589   C     0.51179   0.77734   0.49623   0.00000  Uiso   1.00
C590   C     0.50143   0.76279   0.45558   0.00000  Uiso   1.00
C591   C     0.48744   0.78910   0.43162   0.00000  Uiso   1.00
H592   H     0.54389   0.74514   0.08235   0.00000  Uiso   1.00
H593   H     0.53597   0.98285   0.16348   0.00000  Uiso   1.00
H594   H     0.59329   0.70385   0.15901   0.00000  Uiso   1.00
H595   H     0.59650   0.66900   0.19946   0.00000  Uiso   1.00
H596   H     0.57487   0.71803   0.21797   0.00000  Uiso   1.00
H597   H     0.55615   0.98768   0.00992   0.00000  Uiso   1.00
H598   H     0.43170   0.94562   0.42559   0.00000  Uiso   1.00
H599   H     0.49204   0.97975   0.37585   0.00000  Uiso   1.00
H600   H     0.52346   0.94030   0.38094   0.00000  Uiso   1.00
H601   H     0.50555   0.97694   0.42845   0.00000  Uiso   1.00
H602   H     0.43383   0.91712   0.12230   0.00000  Uiso   1.00
H603   H     0.46932   0.99988   0.29609   0.00000  Uiso   1.00
H604   H     0.44019   0.66918   0.03830   0.00000  Uiso   1.00
H605   H     0.40263   0.92461   0.20105   0.00000  Uiso   1.00
H606   H     0.50394   0.73101   0.44165   0.00000  Uiso   1.00
H607   H     0.51026   0.86395   0.07038   0.00000  Uiso   1.00
H608   H     0.47962   0.77568   0.40079   0.00000  Uiso   1.00
H609   H     0.65558   0.79141   0.32162   0.00000  Uiso   1.00
H610   H     0.61949   0.72956   0.28938   0.00000  Uiso   1.00
H611   H     0.34256   0.73694   0.26325   0.00000  Uiso   1.00
H612   H     0.63833   0.75127   0.23543   0.00000  Uiso   1.00
N613   N     0.64835   0.79161   0.29108   0.00000  Uiso   1.00
N614   N     0.53510   0.67098   0.19080   0.00000  Uiso   1.00
N615   N     0.45820   0.93022   0.41373   0.00000  Uiso   1.00
O616   O     0.50000   0.83333   0.25000   0.00000  Uiso   1.00
O617   O     0.48784   0.79304   0.15459   0.00000  Uiso   1.00
O618   O     0.46274   0.87058   0.34968   0.00000  Uiso   1.00
O619   O     0.54157   0.84425   0.14606   0.00000  Uiso   1.00
O620   O     0.50785   0.82546   0.34968   0.00000  Uiso   1.00
O621   O     0.56299   0.70717   0.45915   0.00000  Uiso   1.00
O622   O     0.54394   0.67999   0.02713   0.00000  Uiso   1.00
O623   O     0.42160   0.85066   0.08237   0.00000  Uiso   1.00
O624   O     0.44804   0.91911   0.08922   0.00000  Uiso   1.00
O625   O     0.39490   0.94515   0.01222   0.00000  Uiso   1.00
O626   O     0.45726   0.97855   0.02495   0.00000  Uiso   1.00
O627   O     0.51264   0.74686   0.28214   0.00000  Uiso   1.00
O628   O     0.35036   0.87918   0.17064   0.00000  Uiso   1.00
O629   O     0.38625   0.90401   0.22369   0.00000  Uiso   1.00
O630   O     0.47965   0.92751   0.27014   0.00000  Uiso   1.00
O631   O     0.40745   0.79958   0.23413   0.00000  Uiso   1.00
O632   O     0.60026   0.85939   0.21361   0.00000  Uiso   1.00
O633   O     0.40405   0.85544   0.28213   0.00000  Uiso   1.00
O634   O     0.58824   0.81892   0.27014   0.00000  Uiso   1.00
O635   O     0.47093   0.73610   0.23413   0.00000  Uiso   1.00
O636   O     0.53678   0.92286   0.21361   0.00000  Uiso   1.00
Zn637  Zn    0.52672   0.80661   0.28734   0.00000  Uiso   1.00
Zn638  Zn    0.46713   0.79124   0.21876   0.00000  Uiso   1.00
Zn639  Zn    0.54389   0.86442   0.20657   0.00000  Uiso   1.00
Zn640  Zn    0.46226   0.87106   0.28734   0.00000  Uiso   1.00
C641   C     0.71973   0.82614   0.26002   0.00000  Uiso   1.00
C642   C     0.84614   0.83226   0.05629   0.00000  Uiso   1.00
C643   C     0.86705   0.76547   0.06264   0.00000  Uiso   1.00
C644   C     0.94747   0.84040   0.24007   0.00000  Uiso   1.00
C645   C     0.80786   0.85987   0.42077   0.00000  Uiso   1.00
C646   C     0.99314   0.84530   0.23797   0.00000  Uiso   1.00
C647   C     0.67480   0.82276   0.26372   0.00000  Uiso   1.00
C648   C     0.84401   0.98815   0.23216   0.00000  Uiso   1.00
C649   C     0.82035   0.67859   0.26419   0.00000  Uiso   1.00
C650   C     0.82269   0.72260   0.26060   0.00000  Uiso   1.00
C651   C     0.84264   0.94432   0.23926   0.00000  Uiso   1.00
C652   C     0.78606   0.90653   0.48802   0.00000  Uiso   1.00
C653   C     0.85188   0.81463   0.12932   0.00000  Uiso   1.00
C654   C     0.81509   0.85118   0.37121   0.00000  Uiso   1.00
C655   C     0.86337   0.75199   0.01912   0.00000  Uiso   1.00
C656   C     0.85831   0.80528   0.08110   0.00000  Uiso   1.00
C657   C     0.79530   0.89886   0.44097   0.00000  Uiso   1.00
C658   C     0.97880   0.75022   0.26848   0.00000  Uiso   1.00
C659   C     0.91044   0.69145   0.19208   0.00000  Uiso   1.00
C660   C     0.87934   0.71180   0.49926   0.00000  Uiso   1.00
C661   C     0.83025   0.95821   0.39910   0.00000  Uiso   1.00
C662   C     0.77553   0.88130   0.06393   0.00000  Uiso   1.00
C663   C     0.79492   0.87796   0.01467   0.00000  Uiso   1.00
C664   C     0.76606   0.94420   0.00910   0.00000  Uiso   1.00
C665   C     0.68838   0.87663   0.20821   0.00000  Uiso   1.00
C666   C     0.81550   0.84260   0.49339   0.00000  Uiso   1.00
C667   C     0.81520   0.83063   0.44798   0.00000  Uiso   1.00
C668   C     0.83507   0.81766   0.01575   0.00000  Uiso   1.00
C669   C     0.84513   0.77734   0.49623   0.00000  Uiso   1.00
C670   C     0.83476   0.76279   0.45558   0.00000  Uiso   1.00
C671   C     0.82078   0.78910   0.43162   0.00000  Uiso   1.00
H672   H     0.87723   0.74514   0.08235   0.00000  Uiso   1.00
H673   H     0.86930   0.98285   0.16348   0.00000  Uiso   1.00
H674   H     0.92662   0.70385   0.15901   0.00000  Uiso   1.00
H675   H     0.92984   0.66900   0.19946   0.00000  Uiso   1.00
H676   H     0.90820   0.71803   0.21797   0.00000  Uiso   1.00
H677   H     0.88948   0.98768   0.00992   0.00000  Uiso   1.00
H678   H     0.76503   0.94562   0.42559   0.00000  Uiso   1.00
H679   H     0.82537   0.97975   0.37585   0.00000  Uiso   1.00
H680   H     0.85679   0.94030   0.38094   0.00000  Uiso   1.00
H681   H     0.83889   0.97694   0.42845   0.00000  Uiso   1.00
H682   H     0.76716   0.91712   0.12230   0.00000  Uiso   1.00
H683   H     0.80265   0.99988   0.29609   0.00000  Uiso   1.00
H684   H     0.77352   0.66918   0.03830   0.00000  Uiso   1.00
H685   H     0.73596   0.92461   0.20105   0.00000  Uiso   1.00
H686   H     0.83728   0.73101   0.44165   0.00000  Uiso   1.00
H687   H     0.84360   0.86395   0.07038   0.00000  Uiso   1.00
H688   H     0.81295   0.77568   0.40079   0.00000  Uiso   1.00
H689   H     0.98892   0.79141   0.32162   0.00000  Uiso   1.00
H690   H     0.95282   0.72956   0.28938   0.00000  Uiso   1.00
H691   H     0.67590   0.73694   0.26325   0.00000  Uiso   1.00
H692   H     0.97166   0.75127   0.23543   0.00000  Uiso   1.00
N693   N     0.98168   0.79161   0.29108   0.00000  Uiso   1.00
N694   N     0.86843   0.67098   0.19080   0.00000  Uiso   1.00
N695   N     0.79153   0.93022   0.41373   0.00000  Uiso   1.00
O696   O     0.83333   0.83333   0.25000   0.00000  Uiso   1.00
O697   O     0.82118   0.79304   0.15459   0.00000  Uiso   1.00
O698   O     0.79607   0.87058   0.34968   0.00000  Uiso   1.00
O699   O     0.87491   0.84425   0.14606   0.00000  Uiso   1.00
O700   O     0.84118   0.82546   0.34968   0.00000  Uiso   1.00
O701   O     0.89632   0.70717   0.45915   0.00000  Uiso   1.00
O702   O     0.87727   0.67999   0.02713   0.00000  Uiso   1.00
O703   O     0.75494   0.85066   0.08237   0.00000  Uiso   1.00
O704   O     0.78137   0.91911   0.08922   0.00000  Uiso   1.00
O705   O     0.72823   0.94515   0.01222   0.00000  Uiso   1.00
O706   O     0.79060   0.97855   0.02495   0.00000  Uiso   1.00
O707   O     0.84597   0.74686   0.28214   0.00000  Uiso   1.00
O708   O     0.68369   0.87918   0.17064   0.00000  Uiso   1.00
O709   O     0.71958   0.90401   0.22369   0.00000  Uiso   1.00
O710   O     0.81298   0.92751   0.27014   0.00000  Uiso   1.00
O711   O     0.74078   0.79958   0.23413   0.00000  Uiso   1.00
O712   O     0.93360   0.85939   0.21361   0.00000  Uiso   1.00
O713   O     0.73738   0.85544   0.28213   0.00000  Uiso   1.00
O714   O     0.92158   0.81892   0.27014   0.00000  Uiso   1.00
O715   O     0.80426   0.73610   0.23413   0.00000  Uiso   1.00
O716   O     0.87012   0.92286   0.21361   0.00000  Uiso   1.00
Zn717  Zn    0.86005   0.80661   0.28734   0.00000  Uiso   1.00
Zn718  Zn    0.80046   0.79124   0.21876   0.00000  Uiso   1.00
Zn719  Zn    0.87723   0.86442   0.20657   0.00000  Uiso   1.00
Zn720  Zn    0.79560   0.87106   0.28734   0.00000  Uiso   1.00
C721   C     0.05306   0.15947   0.76002   0.00000  Uiso   1.00
C722   C     0.17947   0.16559   0.55629   0.00000  Uiso   1.00
C723   C     0.20038   0.09880   0.56264   0.00000  Uiso   1.00
C724   C     0.28080   0.17374   0.74007   0.00000  Uiso   1.00
C725   C     0.14119   0.19320   0.92077   0.00000  Uiso   1.00
C726   C     0.32648   0.17863   0.73797   0.00000  Uiso   1.00
C727   C     0.00813   0.15609   0.76372   0.00000  Uiso   1.00
C728   C     0.17734   0.32148   0.73216   0.00000  Uiso   1.00
C729   C     0.15368   0.01192   0.76419   0.00000  Uiso   1.00
C730   C     0.15602   0.05593   0.76060   0.00000  Uiso   1.00
C731   C     0.17597   0.27765   0.73926   0.00000  Uiso   1.00
C732   C     0.11939   0.23986   0.98802   0.00000  Uiso   1.00
C733   C     0.18521   0.14796   0.62932   0.00000  Uiso   1.00
C734   C     0.14842   0.18451   0.87121   0.00000  Uiso   1.00
C735   C     0.19670   0.08533   0.51912   0.00000  Uiso   1.00
C736   C     0.19165   0.13861   0.58110   0.00000  Uiso   1.00
C737   C     0.12864   0.23219   0.94097   0.00000  Uiso   1.00
C738   C     0.31213   0.08356   0.76848   0.00000  Uiso   1.00
C739   C     0.24378   0.02478   0.69208   0.00000  Uiso   1.00
C740   C     0.21268   0.04514   0.99926   0.00000  Uiso   1.00
C741   C     0.16358   0.29154   0.89910   0.00000  Uiso   1.00
C742   C     0.10886   0.21464   0.56393   0.00000  Uiso   1.00
C743   C     0.12825   0.21129   0.51467   0.00000  Uiso   1.00
C744   C     0.09939   0.27753   0.50910   0.00000  Uiso   1.00
C745   C     0.02172   0.20996   0.70821   0.00000  Uiso   1.00
C746   C     0.14884   0.17593   0.99339   0.00000  Uiso   1.00
C747   C     0.14854   0.16397   0.94798   0.00000  Uiso   1.00
C748   C     0.16840   0.15099   0.51575   0.00000  Uiso   1.00
C749   C     0.17846   0.11067   0.99623   0.00000  Uiso   1.00
C750   C     0.16809   0.09613   0.95558   0.00000  Uiso   1.00
C751   C     0.15411   0.12243   0.93162   0.00000  Uiso   1.00
H752   H     0.21056   0.07847   0.58235   0.00000  Uiso   1.00
H753   H     0.20264   0.31618   0.66348   0.00000  Uiso   1.00
H754   H     0.25995   0.03719   0.65901   0.00000  Uiso   1.00
H755   H     0.26317   0.00233   0.69946   0.00000  Uiso   1.00
H756   H     0.24154   0.05136   0.71797   0.00000  Uiso   1.00
H757   H     0.22282   0.32101   0.50992   0.00000  Uiso   1.00
H758   H     0.09836   0.27895   0.92559   0.00000  Uiso   1.00
H759   H     0.15870   0.31308   0.87585   0.00000  Uiso   1.00
H760   H     0.19012   0.27364   0.88094   0.00000  Uiso   1.00
H761   H     0.17222   0.31027   0.92845   0.00000  Uiso   1.00
H762   H     0.10049   0.25045   0.62230   0.00000  Uiso   1.00
H763   H     0.13599   0.33322   0.79609   0.00000  Uiso   1.00
H764   H     0.10685   0.00251   0.53830   0.00000  Uiso   1.00
H765   H     0.06929   0.25794   0.70105   0.00000  Uiso   1.00
H766   H     0.17061   0.06434   0.94165   0.00000  Uiso   1.00
H767   H     0.17693   0.19728   0.57038   0.00000  Uiso   1.00
H768   H     0.14629   0.10901   0.90079   0.00000  Uiso   1.00
H769   H     0.32225   0.12474   0.82162   0.00000  Uiso   1.00
H770   H     0.28615   0.06289   0.78938   0.00000  Uiso   1.00
H771   H     0.00923   0.07027   0.76325   0.00000  Uiso   1.00
H772   H     0.30500   0.08460   0.73543   0.00000  Uiso   1.00
N773   N     0.31501   0.12494   0.79108   0.00000  Uiso   1.00
N774   N     0.20177   0.00431   0.69080   0.00000  Uiso   1.00
N775   N     0.12487   0.26355   0.91373   0.00000  Uiso   1.00
O776   O     0.16667   0.16667   0.75000   0.00000  Uiso   1.00
O777   O     0.15451   0.12637   0.65459   0.00000  Uiso   1.00
O778   O     0.12940   0.20391   0.84968   0.00000  Uiso   1.00
O779   O     0.20824   0.17759   0.64606   0.00000  Uiso   1.00
O780   O     0.17451   0.15880   0.84968   0.00000  Uiso   1.00
O781   O     0.22965   0.04050   0.95915   0.00000  Uiso   1.00
O782   O     0.21061   0.01333   0.52713   0.00000  Uiso   1.00
O783   O     0.08827   0.18399   0.58237   0.00000  Uiso   1.00
O784   O     0.11470   0.25244   0.58922   0.00000  Uiso   1.00
O785   O     0.06156   0.27848   0.51222   0.00000  Uiso   1.00
O786   O     0.12393   0.31188   0.52495   0.00000  Uiso   1.00
O787   O     0.17930   0.08019   0.78214   0.00000  Uiso   1.00
O788   O     0.01702   0.21251   0.67064   0.00000  Uiso   1.00
O789   O     0.05292   0.23734   0.72369   0.00000  Uiso   1.00
O790   O     0.14632   0.26085   0.77014   0.00000  Uiso   1.00
O791   O     0.07412   0.13291   0.73413   0.00000  Uiso   1.00
O792   O     0.26693   0.19272   0.71361   0.00000  Uiso   1.00
O793   O     0.07071   0.18878   0.78213   0.00000  Uiso   1.00
O794   O     0.25491   0.15226   0.77014   0.00000  Uiso   1.00
O795   O     0.13760   0.06944   0.73413   0.00000  Uiso   1.00
O796   O     0.20345   0.25620   0.71361   0.00000  Uiso   1.00
Zn797  Zn    0.19338   0.13994   0.78734   0.00000  Uiso   1.00
Zn798  Zn    0.13379   0.12458   0.71876   0.00000  Uiso   1.00
Zn799  Zn    0.21056   0.19775   0.70657   0.00000  Uiso   1.00
Zn800  Zn    0.12893   0.20439   0.78734   0.00000  Uiso   1.00
C801   C     0.38639   0.15947   0.76002   0.00000  Uiso   1.00
C802   C     0.51281   0.16559   0.55629   0.00000  Uiso   1.00
C803   C     0.53372   0.09880   0.56264   0.00000  Uiso   1.00
C804   C     0.61413   0.17374   0.74007   0.00000  Uiso   1.00
C805   C     0.47453   0.19320   0.92077   0.00000  Uiso   1.00
C806   C     0.65981   0.17863   0.73797   0.00000  Uiso   1.00
C807   C     0.34147   0.15609   0.76372   0.00000  Uiso   1.00
C808   C     0.51068   0.32148   0.73216   0.00000  Uiso   1.00
C809   C     0.48702   0.01192   0.76419   0.00000  Uiso   1.00
C810   C     0.48936   0.05593   0.76060   0.00000  Uiso   1.00
C811   C     0.50930   0.27765   0.73926   0.00000  Uiso   1.00
C812   C     0.45273   0.23986   0.98802   0.00000  Uiso   1.00
C813   C     0.51854   0.14796   0.62932   0.00000  Uiso   1.00
C814   C     0.48176   0.18451   0.87121   0.00000  Uiso   1.00
C815   C     0.53003   0.08533   0.51912   0.00000  Uiso   1.00
C816   C     0.52498   0.13861   0.58110   0.00000  Uiso   1.00
C817   C     0.46197   0.23219   0.94097   0.00000  Uiso   1.00
C818   C     0.64546   0.08356   0.76848   0.00000  Uiso   1.00
C819   C     0.57711   0.02478   0.69208   0.00000  Uiso   1.00
C820   C     0.54601   0.04514   0.99926   0.00000  Uiso   1.00
C821   C     0.49691   0.29154   0.89910   0.00000  Uiso   1.00
C822   C     0.44220   0.21464   0.56393   0.00000  Uiso   1.00
C823   C     0.46158   0.21129   0.51467   0.00000  Uiso   1.00
C824   C     0.43273   0.27753   0.50910   0.00000  Uiso   1.00
C825   C     0.35505   0.20996   0.70821   0.00000  Uiso   1.00
C826   C     0.48217   0.17593   0.99339   0.00000  Uiso   1.00
C827   C     0.48187   0.16397   0.94798   0.00000  Uiso   1.00
C828   C     0.50173   0.15099   0.51575   0.00000  Uiso   1.00
C829   C     0.51179   0.11067   0.99623   0.00000  Uiso   1.00
C830   C     0.50143   0.09613   0.95558   0.00000  Uiso   1.00
C831   C     0.48744   0.12243   0.93162   0.00000  Uiso   1.00
H832   H     0.54389   0.07847   0.58235   0.00000  Uiso   1.00
H833   H     0.53597   0.31618   0.66348   0.00000  Uiso   1.00
H834   H     0.59329   0.03719   0.65901   0.00000  Uiso   1.00
H835   H     0.59650   0.00233   0.69946   0.00000  Uiso   1.00
H836   H     0.57487   0.05136   0.71797   0.00000  Uiso   1.00
H837   H     0.55615   0.32101   0.50992   0.00000  Uiso   1.00
H838   H     0.43170   0.27895   0.92559   0.00000  Uiso   1.00
H839   H     0.49204   0.31308   0.87585   0.00000  Uiso   1.00
H840   H     0.52346   0.27364   0.88094   0.00000  Uiso   1.00
H841   H     0.50555   0.31027   0.92845   0.00000  Uiso   1.00
H842   H     0.43383   0.25045   0.62230   0.00000  Uiso   1.00
H843   H     0.46932   0.33322   0.79609   0.00000  Uiso   1.00
H844   H     0.44019   0.00251   0.53830   0.00000  Uiso   1.00
H845   H     0.40263   0.25794   0.70105   0.00000  Uiso   1.00
H846   H     0.50394   0.06434   0.94165   0.00000  Uiso   1.00
H847   H     0.51026   0.19728   0.57038   0.00000  Uiso   1.00
H848   H     0.47962   0.10901   0.90079   0.00000  Uiso   1.00
H849   H     0.65558   0.12474   0.82162   0.00000  Uiso   1.00
H850   H     0.61949   0.06289   0.78938   0.00000  Uiso   1.00
H851   H     0.34256   0.07027   0.76325   0.00000  Uiso   1.00
H852   H     0.63833   0.08460   0.73543   0.00000  Uiso   1.00
N853   N     0.64835   0.12494   0.79108   0.00000  Uiso   1.00
N854   N     0.53510   0.00431   0.69080   0.00000  Uiso   1.00
N855   N     0.45820   0.26355   0.91373   0.00000  Uiso   1.00
O856   O     0.50000   0.16667   0.75000   0.00000  Uiso   1.00
O857   O     0.48784   0.12637   0.65459   0.00000  Uiso   1.00
O858   O     0.46274   0.20391   0.84968   0.00000  Uiso   1.00
O859   O     0.54157   0.17759   0.64606   0.00000  Uiso   1.00
O860   O     0.50785   0.15880   0.84968   0.00000  Uiso   1.00
O861   O     0.56299   0.04050   0.95915   0.00000  Uiso   1.00
O862   O     0.54394   0.01333   0.52713   0.00000  Uiso   1.00
O863   O     0.42160   0.18399   0.58237   0.00000  Uiso   1.00
O864   O     0.44804   0.25244   0.58922   0.00000  Uiso   1.00
O865   O     0.39490   0.27848   0.51222   0.00000  Uiso   1.00
O866   O     0.45726   0.31188   0.52495   0.00000  Uiso   1.00
O867   O     0.51264   0.08019   0.78214   0.00000  Uiso   1.00
O868   O     0.35036   0.21251   0.67064   0.00000  Uiso   1.00
O869   O     0.38625   0.23734   0.72369   0.00000  Uiso   1.00
O870   O     0.47965   0.26085   0.77014   0.00000  Uiso   1.00
O871   O     0.40745   0.13291   0.73413   0.00000  Uiso   1.00
O872   O     0.60026   0.19272   0.71361   0.00000  Uiso   1.00
O873   O     0.40405   0.18878   0.78213   0.00000  Uiso   1.00
O874   O     0.58824   0.15226   0.77014   0.00000  Uiso   1.00
O875   O     0.47093   0.06944   0.73413   0.00000  Uiso   1.00
O876   O     0.53678   0.25620   0.71361   0.00000  Uiso   1.00
Zn877  Zn    0.52672   0.13994   0.78734   0.00000  Uiso   1.00
Zn878  Zn    0.46713   0.12458   0.71876   0.00000  Uiso   1.00
Zn879  Zn    0.54389   0.19775   0.70657   0.00000  Uiso   1.00
Zn880  Zn    0.46226   0.20439   0.78734   0.00000  Uiso   1.00
C881   C     0.71973   0.15947   0.76002   0.00000  Uiso   1.00
C882   C     0.84614   0.16559   0.55629   0.00000  Uiso   1.00
C883   C     0.86705   0.09880   0.56264   0.00000  Uiso   1.00
C884   C     0.94747   0.17374   0.74007   0.00000  Uiso   1.00
C885   C     0.80786   0.19320   0.92077   0.00000  Uiso   1.00
C886   C     0.99314   0.17863   0.73797   0.00000  Uiso   1.00
C887   C     0.67480   0.15609   0.76372   0.00000  Uiso   1.00
C888   C     0.84401   0.32148   0.73216   0.00000  Uiso   1.00
C889   C     0.82035   0.01192   0.76419   0.00000  Uiso   1.00
C890   C     0.82269   0.05593   0.76060   0.00000  Uiso   1.00
C891   C     0.84264   0.27765   0.73926   0.00000  Uiso   1.00
C892   C     0.78606   0.23986   0.98802   0.00000  Uiso   1.00
C893   C     0.85188   0.14796   0.62932   0.00000  Uiso   1.00
C894   C     0.81509   0.18451   0.87121   0.00000  Uiso   1.00
C895   C     0.86337   0.08533   0.51912   0.00000  Uiso   1.00
C896   C     0.85831   0.13861   0.58110   0.00000  Uiso   1.00
C897   C     0.79530   0.23219   0.94097   0.00000  Uiso   1.00
C898   C     0.97880   0.08356   0.76848   0.00000  Uiso   1.00
C899   C     0.91044   0.02478   0.69208   0.00000  Uiso   1.00
C900   C     0.87934   0.04514   0.99926   0.00000  Uiso   1.00
C901   C     0.83025   0.29154   0.89910   0.00000  Uiso   1.00
C902   C     0.77553   0.21464   0.56393   0.00000  Uiso   1.00
C903   C     0.79492   0.21129   0.51467   0.00000  Uiso   1.00
C904   C     0.76606   0.27753   0.50910   0.00000  Uiso   1.00
C905   C     0.68838   0.20996   0.70821   0.00000  Uiso   1.00
C906   C     0.81550   0.17593   0.99339   0.00000  Uiso   1.00
C907   C     0.81520   0.16397   0.94798   0.00000  Uiso   1.00
C908   C     0.83507   0.15099   0.51575   0.00000  Uiso   1.00
C909   C     0.84513   0.11067   0.99623   0.00000  Uiso   1.00
C910   C     0.83476   0.09613   0.95558   0.00000  Uiso   1.00
C911   C     0.82078   0.12243   0.93162   0.00000  Uiso   1.00
H912   H     0.87723   0.07847   0.58235   0.00000  Uiso   1.00
H913   H     0.86930   0.31618   0.66348   0.00000  Uiso   1.00
H914   H     0.92662   0.03719   0.65901   0.00000  Uiso   1.00
H915   H     0.92984   0.00233   0.69946   0.00000  Uiso   1.00
H916   H     0.90820   0.05136   0.71797   0.00000  Uiso   1.00
H917   H     0.88948   0.32101   0.50992   0.00000  Uiso   1.00
H918   H     0.76503   0.27895   0.92559   0.00000  Uiso   1.00
H919   H     0.82537   0.31308   0.87585   0.00000  Uiso   1.00
H920   H     0.85679   0.27364   0.88094   0.00000  Uiso   1.00
H921   H     0.83889   0.31027   0.92845   0.00000  Uiso   1.00
H922   H     0.76716   0.25045   0.62230   0.00000  Uiso   1.00
H923   H     0.80265   0.33322   0.79609   0.00000  Uiso   1.00
H924   H     0.77352   0.00251   0.53830   0.00000  Uiso   1.00
H925   H     0.73596   0.25794   0.70105   0.00000  Uiso   1.00
H926   H     0.83728   0.06434   0.94165   0.00000  Uiso   1.00
H927   H     0.84360   0.19728   0.57038   0.00000  Uiso   1.00
H928   H     0.81295   0.10901   0.90079   0.00000  Uiso   1.00
H929   H     0.98892   0.12474   0.82162   0.00000  Uiso   1.00
H930   H     0.95282   0.06289   0.78938   0.00000  Uiso   1.00
H931   H     0.67590   0.07027   0.76325   0.00000  Uiso   1.00
H932   H     0.97166   0.08460   0.73543   0.00000  Uiso   1.00
N933   N     0.98168   0.12494   0.79108   0.00000  Uiso   1.00
N934   N     0.86843   0.00431   0.69080   0.00000  Uiso   1.00
N935   N     0.79153   0.26355   0.91373   0.00000  Uiso   1.00
O936   O     0.83333   0.16667   0.75000   0.00000  Uiso   1.00
O937   O     0.82118   0.12637   0.65459   0.00000  Uiso   1.00
O938   O     0.79607   0.20391   0.84968   0.00000  Uiso   1.00
O939   O     0.87491   0.17759   0.64606   0.00000  Uiso   1.00
O940   O     0.84118   0.15880   0.84968   0.00000  Uiso   1.00
O941   O     0.89632   0.04050   0.95915   0.00000  Uiso   1.00
O942   O     0.87727   0.01333   0.52713   0.00000  Uiso   1.00
O943   O     0.75494   0.18399   0.58237   0.00000  Uiso   1.00
O944   O     0.78137   0.25244   0.58922   0.00000  Uiso   1.00
O945   O     0.72823   0.27848   0.51222   0.00000  Uiso   1.00
O946   O     0.79060   0.31188   0.52495   0.00000  Uiso   1.00
O947   O     0.84597   0.08019   0.78214   0.00000  Uiso   1.00
O948   O     0.68369   0.21251   0.67064   0.00000  Uiso   1.00
O949   O     0.71958   0.23734   0.72369   0.00000  Uiso   1.00
O950   O     0.81298   0.26085   0.77014   0.00000  Uiso   1.00
O951   O     0.74078   0.13291   0.73413   0.00000  Uiso   1.00
O952   O     0.93360   0.19272   0.71361   0.00000  Uiso   1.00
O953   O     0.73738   0.18878   0.78213   0.00000  Uiso   1.00
O954   O     0.92158   0.15226   0.77014   0.00000  Uiso   1.00
O955   O     0.80426   0.06944   0.73413   0.00000  Uiso   1.00
O956   O     0.87012   0.25620   0.71361   0.00000  Uiso   1.00
Zn957  Zn    0.86005   0.13994   0.78734   0.00000  Uiso   1.00
Zn958  Zn    0.80046   0.12458   0.71876   0.00000  Uiso   1.00
Zn959  Zn    0.87723   0.19775   0.70657   0.00000  Uiso   1.00
Zn960  Zn    0.79560   0.20439   0.78734   0.00000  Uiso   1.00
C961   C     0.05306   0.49280   0.76002   0.00000  Uiso   1.00
C962   C     0.17947   0.49892   0.55629   0.00000  Uiso   1.00
C963   C     0.20038   0.43214   0.56264   0.00000  Uiso   1.00
C964   C     0.28080   0.50707   0.74007   0.00000  Uiso   1.00
C965   C     0.14119   0.52654   0.92077   0.00000  Uiso   1.00
C966   C     0.32648   0.51196   0.73797   0.00000  Uiso   1.00
C967   C     0.00813   0.48943   0.76372   0.00000  Uiso   1.00
C968   C     0.17734   0.65482   0.73216   0.00000  Uiso   1.00
C969   C     0.15368   0.34526   0.76419   0.00000  Uiso   1.00
C970   C     0.15602   0.38927   0.76060   0.00000  Uiso   1.00
C971   C     0.17597   0.61099   0.73926   0.00000  Uiso   1.00
C972   C     0.11939   0.57319   0.98802   0.00000  Uiso   1.00
C973   C     0.18521   0.48129   0.62932   0.00000  Uiso   1.00
C974   C     0.14842   0.51784   0.87121   0.00000  Uiso   1.00
C975   C     0.19670   0.41866   0.51912   0.00000  Uiso   1.00
C976   C     0.19165   0.47194   0.58110   0.00000  Uiso   1.00
C977   C     0.12864   0.56553   0.94097   0.00000  Uiso   1.00
C978   C     0.31213   0.41689   0.76848   0.00000  Uiso   1.00
C979   C     0.24378   0.35812   0.69208   0.00000  Uiso   1.00
C980   C     0.21268   0.37847   0.99926   0.00000  Uiso   1.00
C981   C     0.16358   0.62488   0.89910   0.00000  Uiso   1.00
C982   C     0.10886   0.54797   0.56393   0.00000  Uiso   1.00
C983   C     0.12825   0.54462   0.51467   0.00000  Uiso   1.00
C984   C     0.09939   0.61087   0.50910   0.00000  Uiso   1.00
C985   C     0.02172   0.54330   0.70821   0.00000  Uiso   1.00
C986   C     0.14884   0.50926   0.99339   0.00000  Uiso   1.00
C987   C     0.14854   0.49730   0.94798   0.00000  Uiso   1.00
C988   C     0.16840   0.48433   0.51575   0.00000  Uiso   1.00
C989   C     0.17846   0.44400   0.99623   0.00000  Uiso   1.00
C990   C     0.16809   0.42946   0.95558   0.00000  Uiso   1.00
C991   C     0.15411   0.45576   0.93162   0.00000  Uiso   1.00
H992   H     0.21056   0.41180   0.58235   0.00000  Uiso   1.00
H993   H     0.20264   0.64951   0.66348   0.00000  Uiso   1.00
H994   H     0.25995   0.37052   0.65901   0.00000  Uiso   1.00
H995   H     0.26317   0.33567   0.69946   0.00000  Uiso   1.00
H996   H     0.24154   0.38469   0.71797   0.00000  Uiso   1.00
H997   H     0.22282   0.65434   0.50992   0.00000  Uiso   1.00
H998   H     0.09836   0.61229   0.92559   0.00000  Uiso   1.00
H999   H     0.15870   0.64641   0.87585   0.00000  Uiso   1.00
H1000  H     0.19012   0.60697   0.88094   0.00000  Uiso   1.00
H1001  H     0.17222   0.64360   0.92845   0.00000  Uiso   1.00
H1002  H     0.10049   0.58378   0.62230   0.00000  Uiso   1.00
H1003  H     0.13599   0.66655   0.79609   0.00000  Uiso   1.00
H1004  H     0.10685   0.33584   0.53830   0.00000  Uiso   1.00
H1005  H     0.06929   0.59127   0.70105   0.00000  Uiso   1.00
H1006  H     0.17061   0.39767   0.94165   0.00000  Uiso   1.00
H1007  H     0.17693   0.53061   0.57038   0.00000  Uiso   1.00
H1008  H     0.14629   0.44234   0.90079   0.00000  Uiso   1.00
H1009  H     0.32225   0.45807   0.82162   0.00000  Uiso   1.00
H1010  H     0.28615   0.39622   0.78938   0.00000  Uiso   1.00
H1011  H     0.00923   0.40360   0.76325   0.00000  Uiso   1.00
H1012  H     0.30500   0.41794   0.73543   0.00000  Uiso   1.00
N1013  N     0.31501   0.45827   0.79108   0.00000  Uiso   1.00
N1014  N     0.20177   0.33764   0.69080   0.00000  Uiso   1.00
N1015  N     0.12487   0.59688   0.91373   0.00000  Uiso   1.00
O1016  O     0.16667   0.50000   0.75000   0.00000  Uiso   1.00
O1017  O     0.15451   0.45970   0.65459   0.00000  Uiso   1.00
O1018  O     0.12940   0.53724   0.84968   0.00000  Uiso   1.00
O1019  O     0.20824   0.51092   0.64606   0.00000  Uiso   1.00
O1020  O     0.17451   0.49213   0.84968   0.00000  Uiso   1.00
O1021  O     0.22965   0.37383   0.95915   0.00000  Uiso   1.00
O1022  O     0.21061   0.34666   0.52713   0.00000  Uiso   1.00
O1023  O     0.08827   0.51732   0.58237   0.00000  Uiso   1.00
O1024  O     0.11470   0.58578   0.58922   0.00000  Uiso   1.00
O1025  O     0.06156   0.61181   0.51222   0.00000  Uiso   1.00
O1026  O     0.12393   0.64521   0.52495   0.00000  Uiso   1.00
O1027  O     0.17930   0.41352   0.78214   0.00000  Uiso   1.00
O1028  O     0.01702   0.54585   0.67064   0.00000  Uiso   1.00
O1029  O     0.05292   0.57068   0.72369   0.00000  Uiso   1.00
O1030  O     0.14632   0.59418   0.77014   0.00000  Uiso   1.00
O1031  O     0.07412   0.46625   0.73413   0.00000  Uiso   1.00
O1032  O     0.26693   0.52605   0.71361   0.00000  Uiso   1.00
O1033  O     0.07071   0.52211   0.78213   0.00000  Uiso   1.00
O1034  O     0.25491   0.48559   0.77014   0.00000  Uiso   1.00
O1035  O     0.13760   0.40277   0.73413   0.00000  Uiso   1.00
O1036  O     0.20345   0.58953   0.71361   0.00000  Uiso   1.00
Zn1037 Zn    0.19338   0.47327   0.78734   0.00000  Uiso   1.00
Zn1038 Zn    0.13379   0.45791   0.71876   0.00000  Uiso   1.00
Zn1039 Zn    0.21056   0.53109   0.70657   0.00000  Uiso   1.00
Zn1040 Zn    0.12893   0.53773   0.78734   0.00000  Uiso   1.00
C1041  C     0.38639   0.49280   0.76002   0.00000  Uiso   1.00
C1042  C     0.51281   0.49892   0.55629   0.00000  Uiso   1.00
C1043  C     0.53372   0.43214   0.56264   0.00000  Uiso   1.00
C1044  C     0.61413   0.50707   0.74007   0.00000  Uiso   1.00
C1045  C     0.47453   0.52654   0.92077   0.00000  Uiso   1.00
C1046  C     0.65981   0.51196   0.73797   0.00000  Uiso   1.00
C1047  C     0.34147   0.48943   0.76372   0.00000  Uiso   1.00
C1048  C     0.51068   0.65482   0.73216   0.00000  Uiso   1.00
C1049  C     0.48702   0.34526   0.76419   0.00000  Uiso   1.00
C1050  C     0.48936   0.38927   0.76060   0.00000  Uiso   1.00
C1051  C     0.50930   0.61099   0.73926   0.00000  Uiso   1.00
C1052  C     0.45273   0.57319   0.98802   0.00000  Uiso   1.00
C1053  C     0.51854   0.48129   0.62932   0.00000  Uiso   1.00
C1054  C     0.48176   0.51784   0.87121   0.00000  Uiso   1.00
C1055  C     0.53003   0.41866   0.51912   0.00000  Uiso   1.00
C1056  C     0.52498   0.47194   0.58110   0.00000  Uiso   1.00
C1057  C     0.46197   0.56553   0.94097   0.00000  Uiso   1.00
C1058  C     0.64546   0.41689   0.76848   0.00000  Uiso   1.00
C1059  C     0.57711   0.35812   0.69208   0.00000  Uiso   1.00
C1060  C     0.54601   0.37847   0.99926   0.00000  Uiso   1.00
C1061  C     0.49691   0.62488   0.89910   0.00000  Uiso   1.00
C1062  C     0.44220   0.54797   0.56393   0.00000  Uiso   1.00
C1063  C     0.46158   0.54462   0.51467   0.00000  Uiso   1.00
C1064  C     0.43273   0.61087   0.50910   0.00000  Uiso   1.00
C1065  C     0.35505   0.54330   0.70821   0.00000  Uiso   1.00
C1066  C     0.48217   0.50926   0.99339   0.00000  Uiso   1.00
C1067  C     0.48187   0.49730   0.94798   0.00000  Uiso   1.00
C1068  C     0.50173   0.48433   0.51575   0.00000  Uiso   1.00
C1069  C     0.51179   0.44400   0.99623   0.00000  Uiso   1.00
C1070  C     0.50143   0.42946   0.95558   0.00000  Uiso   1.00
C1071  C     0.48744   0.45576   0.93162   0.00000  Uiso   1.00
H1072  H     0.54389   0.41180   0.58235   0.00000  Uiso   1.00
H1073  H     0.53597   0.64951   0.66348   0.00000  Uiso   1.00
H1074  H     0.59329   0.37052   0.65901   0.00000  Uiso   1.00
H1075  H     0.59650   0.33567   0.69946   0.00000  Uiso   1.00
H1076  H     0.57487   0.38469   0.71797   0.00000  Uiso   1.00
H1077  H     0.55615   0.65434   0.50992   0.00000  Uiso   1.00
H1078  H     0.43170   0.61229   0.92559   0.00000  Uiso   1.00
H1079  H     0.49204   0.64641   0.87585   0.00000  Uiso   1.00
H1080  H     0.52346   0.60697   0.88094   0.00000  Uiso   1.00
H1081  H     0.50555   0.64360   0.92845   0.00000  Uiso   1.00
H1082  H     0.43383   0.58378   0.62230   0.00000  Uiso   1.00
H1083  H     0.46932   0.66655   0.79609   0.00000  Uiso   1.00
H1084  H     0.44019   0.33584   0.53830   0.00000  Uiso   1.00
H1085  H     0.40263   0.59127   0.70105   0.00000  Uiso   1.00
H1086  H     0.50394   0.39767   0.94165   0.00000  Uiso   1.00
H1087  H     0.51026   0.53061   0.57038   0.00000  Uiso   1.00
H1088  H     0.47962   0.44234   0.90079   0.00000  Uiso   1.00
H1089  H     0.65558   0.45807   0.82162   0.00000  Uiso   1.00
H1090  H     0.61949   0.39622   0.78938   0.00000  Uiso   1.00
H1091  H     0.34256   0.40360   0.76325   0.00000  Uiso   1.00
H1092  H     0.63833   0.41794   0.73543   0.00000  Uiso   1.00
N1093  N     0.64835   0.45827   0.79108   0.00000  Uiso   1.00
N1094  N     0.53510   0.33764   0.69080   0.00000  Uiso   1.00
N1095  N     0.45820   0.59688   0.91373   0.00000  Uiso   1.00
O1096  O     0.50000   0.50000   0.75000   0.00000  Uiso   1.00
O1097  O     0.48784   0.45970   0.65459   0.00000  Uiso   1.00
O1098  O     0.46274   0.53724   0.84968   0.00000  Uiso   1.00
O1099  O     0.54157   0.51092   0.64606   0.00000  Uiso   1.00
O1100  O     0.50785   0.49213   0.84968   0.00000  Uiso   1.00
O1101  O     0.56299   0.37383   0.95915   0.00000  Uiso   1.00
O1102  O     0.54394   0.34666   0.52713   0.00000  Uiso   1.00
O1103  O     0.42160   0.51732   0.58237   0.00000  Uiso   1.00
O1104  O     0.44804   0.58578   0.58922   0.00000  Uiso   1.00
O1105  O     0.39490   0.61181   0.51222   0.00000  Uiso   1.00
O1106  O     0.45726   0.64521   0.52495   0.00000  Uiso   1.00
O1107  O     0.51264   0.41352   0.78214   0.00000  Uiso   1.00
O1108  O     0.35036   0.54585   0.67064   0.00000  Uiso   1.00
O1109  O     0.38625   0.57068   0.72369   0.00000  Uiso   1.00
O1110  O     0.47965   0.59418   0.77014   0.00000  Uiso   1.00
O1111  O     0.40745   0.46625   0.73413   0.00000  Uiso   1.00
O1112  O     0.60026   0.52605   0.71361   0.00000  Uiso   1.00
O1113  O     0.40405   0.52211   0.78213   0.00000  Uiso   1.00
O1114  O     0.58824   0.48559   0.77014   0.00000  Uiso   1.00
O1115  O     0.47093   0.40277   0.73413   0.00000  Uiso   1.00
O1116  O     0.53678   0.58953   0.71361   0.00000  Uiso   1.00
Zn1117 Zn    0.52672   0.47327   0.78734   0.00000  Uiso   1.00
Zn1118 Zn    0.46713   0.45791   0.71876   0.00000  Uiso   1.00
Zn1119 Zn    0.54389   0.53109   0.70657   0.00000  Uiso   1.00
Zn1120 Zn    0.46226   0.53773   0.78734   0.00000  Uiso   1.00
C1121  C     0.71973   0.49280   0.76002   0.00000  Uiso   1.00
C1122  C     0.84614   0.49892   0.55629   0.00000  Uiso   1.00
C1123  C     0.86705   0.43214   0.56264   0.00000  Uiso   1.00
C1124  C     0.94747   0.50707   0.74007   0.00000  Uiso   1.00
C1125  C     0.80786   0.52654   0.92077   0.00000  Uiso   1.00
C1126  C     0.99314   0.51196   0.73797   0.00000  Uiso   1.00
C1127  C     0.67480   0.48943   0.76372   0.00000  Uiso   1.00
C1128  C     0.84401   0.65482   0.73216   0.00000  Uiso   1.00
C1129  C     0.82035   0.34526   0.76419   0.00000  Uiso   1.00
C1130  C     0.82269   0.38927   0.76060   0.00000  Uiso   1.00
C1131  C     0.84264   0.61099   0.73926   0.00000  Uiso   1.00
C1132  C     0.78606   0.57319   0.98802   0.00000  Uiso   1.00
C1133  C     0.85188   0.48129   0.62932   0.00000  Uiso   1.00
C1134  C     0.81509   0.51784   0.87121   0.00000  Uiso   1.00
C1135  C     0.86337   0.41866   0.51912   0.00000  Uiso   1.00
C1136  C     0.85831   0.47194   0.58110   0.00000  Uiso   1.00
C1137  C     0.79530   0.56553   0.94097   0.00000  Uiso   1.00
C1138  C     0.97880   0.41689   0.76848   0.00000  Uiso   1.00
C1139  C     0.91044   0.35812   0.69208   0.00000  Uiso   1.00
C1140  C     0.87934   0.37847   0.99926   0.00000  Uiso   1.00
C1141  C     0.83025   0.62488   0.89910   0.00000  Uiso   1.00
C1142  C     0.77553   0.54797   0.56393   0.00000  Uiso   1.00
C1143  C     0.79492   0.54462   0.51467   0.00000  Uiso   1.00
C1144  C     0.76606   0.61087   0.50910   0.00000  Uiso   1.00
C1145  C     0.68838   0.54330   0.70821   0.00000  Uiso   1.00
C1146  C     0.81550   0.50926   0.99339   0.00000  Uiso   1.00
C1147  C     0.81520   0.49730   0.94798   0.00000  Uiso   1.00
C1148  C     0.83507   0.48433   0.51575   0.00000  Uiso   1.00
C1149  C     0.84513   0.44400   0.99623   0.00000  Uiso   1.00
C1150  C     0.83476   0.42946   0.95558   0.00000  Uiso   1.00
C1151  C     0.82078   0.45576   0.93162   0.00000  Uiso   1.00
H1152  H     0.87723   0.41180   0.58235   0.00000  Uiso   1.00
H1153  H     0.86930   0.64951   0.66348   0.00000  Uiso   1.00
H1154  H     0.92662   0.37052   0.65901   0.00000  Uiso   1.00
H1155  H     0.92984   0.33567   0.69946   0.00000  Uiso   1.00
H1156  H     0.90820   0.38469   0.71797   0.00000  Uiso   1.00
H1157  H     0.88948   0.65434   0.50992   0.00000  Uiso   1.00
H1158  H     0.76503   0.61229   0.92559   0.00000  Uiso   1.00
H1159  H     0.82537   0.64641   0.87585   0.00000  Uiso   1.00
H1160  H     0.85679   0.60697   0.88094   0.00000  Uiso   1.00
H1161  H     0.83889   0.64360   0.92845   0.00000  Uiso   1.00
H1162  H     0.76716   0.58378   0.62230   0.00000  Uiso   1.00
H1163  H     0.80265   0.66655   0.79609   0.00000  Uiso   1.00
H1164  H     0.77352   0.33584   0.53830   0.00000  Uiso   1.00
H1165  H     0.73596   0.59127   0.70105   0.00000  Uiso   1.00
H1166  H     0.83728   0.39767   0.94165   0.00000  Uiso   1.00
H1167  H     0.84360   0.53061   0.57038   0.00000  Uiso   1.00
H1168  H     0.81295   0.44234   0.90079   0.00000  Uiso   1.00
H1169  H     0.98892   0.45807   0.82162   0.00000  Uiso   1.00
H1170  H     0.95282   0.39622   0.78938   0.00000  Uiso   1.00
H1171  H     0.67590   0.40360   0.76325   0.00000  Uiso   1.00
H1172  H     0.97166   0.41794   0.73543   0.00000  Uiso   1.00
N1173  N     0.98168   0.45827   0.79108   0.00000  Uiso   1.00
N1174  N     0.86843   0.33764   0.69080   0.00000  Uiso   1.00
N1175  N     0.79153   0.59688   0.91373   0.00000  Uiso   1.00
O1176  O     0.83333   0.50000   0.75000   0.00000  Uiso   1.00
O1177  O     0.82118   0.45970   0.65459   0.00000  Uiso   1.00
O1178  O     0.79607   0.53724   0.84968   0.00000  Uiso   1.00
O1179  O     0.87491   0.51092   0.64606   0.00000  Uiso   1.00
O1180  O     0.84118   0.49213   0.84968   0.00000  Uiso   1.00
O1181  O     0.89632   0.37383   0.95915   0.00000  Uiso   1.00
O1182  O     0.87727   0.34666   0.52713   0.00000  Uiso   1.00
O1183  O     0.75494   0.51732   0.58237   0.00000  Uiso   1.00
O1184  O     0.78137   0.58578   0.58922   0.00000  Uiso   1.00
O1185  O     0.72823   0.61181   0.51222   0.00000  Uiso   1.00
O1186  O     0.79060   0.64521   0.52495   0.00000  Uiso   1.00
O1187  O     0.84597   0.41352   0.78214   0.00000  Uiso   1.00
O1188  O     0.68369   0.54585   0.67064   0.00000  Uiso   1.00
O1189  O     0.71958   0.57068   0.72369   0.00000  Uiso   1.00
O1190  O     0.81298   0.59418   0.77014   0.00000  Uiso   1.00
O1191  O     0.74078   0.46625   0.73413   0.00000  Uiso   1.00
O1192  O     0.93360   0.52605   0.71361   0.00000  Uiso   1.00
O1193  O     0.73738   0.52211   0.78213   0.00000  Uiso   1.00
O1194  O     0.92158   0.48559   0.77014   0.00000  Uiso   1.00
O1195  O     0.80426   0.40277   0.73413   0.00000  Uiso   1.00
O1196  O     0.87012   0.58953   0.71361   0.00000  Uiso   1.00
Zn1197 Zn    0.86005   0.47327   0.78734   0.00000  Uiso   1.00
Zn1198 Zn    0.80046   0.45791   0.71876   0.00000  Uiso   1.00
Zn1199 Zn    0.87723   0.53109   0.70657   0.00000  Uiso   1.00
Zn1200 Zn    0.79560   0.53773   0.78734   0.00000  Uiso   1.00
C1201  C     0.05306   0.82614   0.76002   0.00000  Uiso   1.00
C1202  C     0.17947   0.83226   0.55629   0.00000  Uiso   1.00
C1203  C     0.20038   0.76547   0.56264   0.00000  Uiso   1.00
C1204  C     0.28080   0.84040   0.74007   0.00000  Uiso   1.00
C1205  C     0.14119   0.85987   0.92077   0.00000  Uiso   1.00
C1206  C     0.32648   0.84530   0.73797   0.00000  Uiso   1.00
C1207  C     0.00813   0.82276   0.76372   0.00000  Uiso   1.00
C1208  C     0.17734   0.98815   0.73216   0.00000  Uiso   1.00
C1209  C     0.15368   0.67859   0.76419   0.00000  Uiso   1.00
C1210  C     0.15602   0.72260   0.76060   0.00000  Uiso   1.00
C1211  C     0.17597   0.94432   0.73926   0.00000  Uiso   1.00
C1212  C     0.11939   0.90653   0.98802   0.00000  Uiso   1.00
C1213  C     0.18521   0.81463   0.62932   0.00000  Uiso   1.00
C1214  C     0.14842   0.85118   0.87121   0.00000  Uiso   1.00
C1215  C     0.19670   0.75199   0.51912   0.00000  Uiso   1.00
C1216  C     0.19165   0.80528   0.58110   0.00000  Uiso   1.00
C1217  C     0.12864   0.89886   0.94097   0.00000  Uiso   1.00
C1218  C     0.31213   0.75022   0.76848   0.00000  Uiso   1.00
C1219  C     0.24378   0.69145   0.69208   0.00000  Uiso   1.00
C1220  C     0.21268   0.71180   0.99926   0.00000  Uiso   1.00
C1221  C     0.16358   0.95821   0.89910   0.00000  Uiso   1.00
C1222  C     0.10886   0.88130   0.56393   0.00000  Uiso   1.00
C1223  C     0.12825   0.87796   0.51467   0.00000  Uiso   1.00
C1224  C     0.09939   0.94420   0.50910   0.00000  Uiso   1.00
C1225  C     0.02172   0.87663   0.70821   0.00000  Uiso   1.00
C1226  C     0.14884   0.84260   0.99339   0.00000  Uiso   1.00
C1227  C     0.14854   0.83063   0.94798   0.00000  Uiso   1.00
C1228  C     0.16840   0.81766   0.51575   0.00000  Uiso   1.00
C1229  C     0.17846   0.77734   0.99623   0.00000  Uiso   1.00
C1230  C     0.16809   0.76279   0.95558   0.00000  Uiso   1.00
C1231  C     0.15411   0.78910   0.93162   0.00000  Uiso   1.00
H1232  H     0.21056   0.74514   0.58235   0.00000  Uiso   1.00
H1233  H     0.20264   0.98285   0.66348   0.00000  Uiso   1.00
H1234  H     0.25995   0.70385   0.65901   0.00000  Uiso   1.00
H1235  H     0.26317   0.66900   0.69946   0.00000  Uiso   1.00
H1236  H     0.24154   0.71803   0.71797   0.00000  Uiso   1.00
H1237  H     0.22282   0.98768   0.50992   0.00000  Uiso   1.00
H1238  H     0.09836   0.94562   0.92559   0.00000  Uiso   1.00
H1239  H     0.15870   0.97975   0.87585   0.00000  Uiso   1.00
H1240  H     0.19012   0.94030   0.88094   0.00000  Uiso   1.00
H1241  H     0.17222   0.97694   0.92845   0.00000  Uiso   1.00
H1242  H     0.10049   0.91712   0.62230   0.00000  Uiso   1.00
H1243  H     0.13599   0.99988   0.79609   0.00000  Uiso   1.00
H1244  H     0.10685   0.66918   0.53830   0.00000  Uiso   1.00
H1245  H     0.06929   0.92461   0.70105   0.00000  Uiso   1.00
H1246  H     0.17061   0.73101   0.94165   0.00000  Uiso   1.00
H1247  H     0.17693   0.86395   0.57038   0.00000  Uiso   1.00
H1248  H     0.14629   0.77568   0.90079   0.00000  Uiso   1.00
H1249  H     0.32225   0.79141   0.82162   0.00000  Uiso   1.00
H1250  H     0.28615   0.72956   0.78938   0.00000  Uiso   1.00
H1251  H     0.00923   0.73694   0.76325   0.00000  Uiso   1.00
H1252  H     0.30500   0.75127   0.73543   0.00000  Uiso   1.00
N1253  N     0.31501   0.79161   0.79108   0.00000  Uiso   1.00
N1254  N     0.20177   0.67098   0.69080   0.00000  Uiso   1.00
N1255  N     0.12487   0.93022   0.91373   0.00000  Uiso   1.00
O1256  O     0.16667   0.83333   0.75000   0.00000  Uiso   1.00
O1257  O     0.15451   0.79304   0.65459   0.00000  Uiso   1.00
O1258  O     0.12940   0.87058   0.84968   0.00000  Uiso   1.00
O1259  O     0.20824   0.84425   0.64606   0.00000  Uiso   1.00
O1260  O     0.17451   0.82546   0.84968   0.00000  Uiso   1.00
O1261  O     0.22965   0.70717   0.95915   0.00000  Uiso   1.00
O1262  O     0.21061   0.67999   0.52713   0.00000  Uiso   1.00
O1263  O     0.08827   0.85066   0.58237   0.00000  Uiso   1.00
O1264  O     0.11470   0.91911   0.58922   0.00000  Uiso   1.00
O1265  O     0.06156   0.94515   0.51222   0.00000  Uiso   1.00
O1266  O     0.12393   0.97855   0.52495   0.00000  Uiso   1.00
O1267  O     0.17930   0.74686   0.78214   0.00000  Uiso   1.00
O1268  O     0.01702   0.87918   0.67064   0.00000  Uiso   1.00
O1269  O     0.05292   0.90401   0.72369   0.00000  Uiso   1.00
O1270  O     0.14632   0.92751   0.77014   0.00000  Uiso   1.00
O1271  O     0.07412   0.79958   0.73413   0.00000  Uiso   1.00
O1272  O     0.26693   0.85939   0.71361   0.00000  Uiso   1.00
O1273  O     0.07071   0.85544   0.78213   0.00000  Uiso   1.00
O1274  O     0.25491   0.81892   0.77014   0.00000  Uiso   1.00
O1275  O     0.13760   0.73610   0.73413   0.00000  Uiso   1.00
O1276  O     0.20345   0.92286   0.71361   0.00000  Uiso   1.00
Zn1277 Zn    0.19338   0.80661   0.78734   0.00000  Uiso   1.00
Zn1278 Zn    0.13379   0.79124   0.71876   0.00000  Uiso   1.00
Zn1279 Zn    0.21056   0.86442   0.70657   0.00000  Uiso   1.00
Zn1280 Zn    0.12893   0.87106   0.78734   0.00000  Uiso   1.00
C1281  C     0.38639   0.82614   0.76002   0.00000  Uiso   1.00
C1282  C     0.51281   0.83226   0.55629   0.00000  Uiso   1.00
C1283  C     0.53372   0.76547   0.56264   0.00000  Uiso   1.00
C1284  C     0.61413   0.84040   0.74007   0.00000  Uiso   1.00
C1285  C     0.47453   0.85987   0.92077   0.00000  Uiso   1.00
C1286  C     0.65981   0.84530   0.73797   0.00000  Uiso   1.00
C1287  C     0.34147   0.82276   0.76372   0.00000  Uiso   1.00
C1288  C     0.51068   0.98815   0.73216   0.00000  Uiso   1.00
C1289  C     0.48702   0.67859   0.76419   0.00000  Uiso   1.00
C1290  C     0.48936   0.72260   0.76060   0.00000  Uiso   1.00
C1291  C     0.50930   0.94432   0.73926   0.00000  Uiso   1.00
C1292  C     0.45273   0.90653   0.98802   0.00000  Uiso   1.00
C1293  C     0.51854   0.81463   0.62932   0.00000  Uiso   1.00
C1294  C     0.48176   0.85118   0.87121   0.00000  Uiso   1.00
C1295  C     0.53003   0.75199   0.51912   0.00000  Uiso   1.00
C1296  C     0.52498   0.80528   0.58110   0.00000  Uiso   1.00
C1297  C     0.46197   0.89886   0.94097   0.00000  Uiso   1.00
C1298  C     0.64546   0.75022   0.76848   0.00000  Uiso   1.00
C1299  C     0.57711   0.69145   0.69208   0.00000  Uiso   1.00
C1300  C     0.54601   0.71180   0.99926   0.00000  Uiso   1.00
C1301  C     0.49691   0.95821   0.89910   0.00000  Uiso   1.00
C1302  C     0.44220   0.88130   0.56393   0.00000  Uiso   1.00
C1303  C     0.46158   0.87796   0.51467   0.00000  Uiso   1.00
C1304  C     0.43273   0.94420   0.50910   0.00000  Uiso   1.00
C1305  C     0.35505   0.87663   0.70821   0.00000  Uiso   1.00
C1306  C     0.48217   0.84260   0.99339   0.00000  Uiso   1.00
C1307  C     0.48187   0.83063   0.94798   0.00000  Uiso   1.00
C1308  C     0.50173   0.81766   0.51575   0.00000  Uiso   1.00
C1309  C     0.51179   0.77734   0.99623   0.00000  Uiso   1.00
C1310  C     0.50143   0.76279   0.95558   0.00000  Uiso   1.00
C1311  C     0.48744   0.78910   0.93162   0.00000  Uiso   1.00
H1312  H     0.54389   0.74514   0.58235   0.00000  Uiso   1.00
H1313  H     0.53597   0.98285   0.66348   0.00000  Uiso   1.00
H1314  H     0.59329   0.70385   0.65901   0.00000  Uiso   1.00
H1315  H     0.59650   0.66900   0.69946   0.00000  Uiso   1.00
H1316  H     0.57487   0.71803   0.71797   0.00000  Uiso   1.00
H1317  H     0.55615   0.98768   0.50992   0.00000  Uiso   1.00
H1318  H     0.43170   0.94562   0.92559   0.00000  Uiso   1.00
H1319  H     0.49204   0.97975   0.87585   0.00000  Uiso   1.00
H1320  H     0.52346   0.94030   0.88094   0.00000  Uiso   1.00
H1321  H     0.50555   0.97694   0.92845   0.00000  Uiso   1.00
H1322  H     0.43383   0.91712   0.62230   0.00000  Uiso   1.00
H1323  H     0.46932   0.99988   0.79609   0.00000  Uiso   1.00
H1324  H     0.44019   0.66918   0.53830   0.00000  Uiso   1.00
H1325  H     0.40263   0.92461   0.70105   0.00000  Uiso   1.00
H1326  H     0.50394   0.73101   0.94165   0.00000  Uiso   1.00
H1327  H     0.51026   0.86395   0.57038   0.00000  Uiso   1.00
H1328  H     0.47962   0.77568   0.90079   0.00000  Uiso   1.00
H1329  H     0.65558   0.79141   0.82162   0.00000  Uiso   1.00
H1330  H     0.61949   0.72956   0.78938   0.00000  Uiso   1.00
H1331  H     0.34256   0.73694   0.76325   0.00000  Uiso   1.00
H1332  H     0.63833   0.75127   0.73543   0.00000  Uiso   1.00
N1333  N     0.64835   0.79161   0.79108   0.00000  Uiso   1.00
N1334  N     0.53510   0.67098   0.69080   0.00000  Uiso   1.00
N1335  N     0.45820   0.93022   0.91373   0.00000  Uiso   1.00
O1336  O     0.50000   0.83333   0.75000   0.00000  Uiso   1.00
O1337  O     0.48784   0.79304   0.65459   0.00000  Uiso   1.00
O1338  O     0.46274   0.87058   0.84968   0.00000  Uiso   1.00
O1339  O     0.54157   0.84425   0.64606   0.00000  Uiso   1.00
O1340  O     0.50785   0.82546   0.84968   0.00000  Uiso   1.00
O1341  O     0.56299   0.70717   0.95915   0.00000  Uiso   1.00
O1342  O     0.54394   0.67999   0.52713   0.00000  Uiso   1.00
O1343  O     0.42160   0.85066   0.58237   0.00000  Uiso   1.00
O1344  O     0.44804   0.91911   0.58922   0.00000  Uiso   1.00
O1345  O     0.39490   0.94515   0.51222   0.00000  Uiso   1.00
O1346  O     0.45726   0.97855   0.52495   0.00000  Uiso   1.00
O1347  O     0.51264   0.74686   0.78214   0.00000  Uiso   1.00
O1348  O     0.35036   0.87918   0.67064   0.00000  Uiso   1.00
O1349  O     0.38625   0.90401   0.72369   0.00000  Uiso   1.00
O1350  O     0.47965   0.92751   0.77014   0.00000  Uiso   1.00
O1351  O     0.40745   0.79958   0.73413   0.00000  Uiso   1.00
O1352  O     0.60026   0.85939   0.71361   0.00000  Uiso   1.00
O1353  O     0.40405   0.85544   0.78213   0.00000  Uiso   1.00
O1354  O     0.58824   0.81892   0.77014   0.00000  Uiso   1.00
O1355  O     0.47093   0.73610   0.73413   0.00000  Uiso   1.00
O1356  O     0.53678   0.92286   0.71361   0.00000  Uiso   1.00
Zn1357 Zn    0.52672   0.80661   0.78734   0.00000  Uiso   1.00
Zn1358 Zn    0.46713   0.79124   0.71876   0.00000  Uiso   1.00
Zn1359 Zn    0.54389   0.86442   0.70657   0.00000  Uiso   1.00
Zn1360 Zn    0.46226   0.87106   0.78734   0.00000  Uiso   1.00
C1361  C     0.71973   0.82614   0.76002   0.00000  Uiso   1.00
C1362  C     0.84614   0.83226   0.55629   0.00000  Uiso   1.00
C1363  C     0.86705   0.76547   0.56264   0.00000  Uiso   1.00
C1364  C     0.94747   0.84040   0.74007   0.00000  Uiso   1.00
C1365  C     0.80786   0.85987   0.92077   0.00000  Uiso   1.00
C1366  C     0.99314   0.84530   0.73797   0.00000  Uiso   1.00
C1367  C     0.67480   0.82276   0.76372   0.00000  Uiso   1.00
C1368  C     0.84401   0.98815   0.73216   0.00000  Uiso   1.00
C1369  C     0.82035   0.67859   0.76419   0.00000  Uiso   1.00
C1370  C     0.82269   0.72260   0.76060   0.00000  Uiso   1.00
C1371  C     0.84264   0.94432   0.73926   0.00000  Uiso   1.00
C1372  C     0.78606   0.90653   0.98802   0.00000  Uiso   1.00
C1373  C     0.85188   0.81463   0.62932   0.00000  Uiso   1.00
C1374  C     0.81509   0.85118   0.87121   0.00000  Uiso   1.00
C1375  C     0.86337   0.75199   0.51912   0.00000  Uiso   1.00
C1376  C     0.85831   0.80528   0.58110   0.00000  Uiso   1.00
C1377  C     0.79530   0.89886   0.94097   0.00000  Uiso   1.00
C1378  C     0.97880   0.75022   0.76848   0.00000  Uiso   1.00
C1379  C     0.91044   0.69145   0.69208   0.00000  Uiso   1.00
C1380  C     0.87934   0.71180   0.99926   0.00000  Uiso   1.00
C1381  C     0.83025   0.95821   0.89910   0.00000  Uiso   1.00
C1382  C     0.77553   0.88130   0.56393   0.00000  Uiso   1.00
C1383  C     0.79492   0.87796   0.51467   0.00000  Uiso   1.00
C1384  C     0.76606   0.94420   0.50910   0.00000  Uiso   1.00
C1385  C     0.68838   0.87663   0.70821   0.00000  Uiso   1.00
C1386  C     0.81550   0.84260   0.99339   0.00000  Uiso   1.00
C1387  C     0.81520   0.83063   0.94798   0.00000  Uiso   1.00
C1388  C     0.83507   0.81766   0.51575   0.00000  Uiso   1.00
C1389  C     0.84513   0.77734   0.99623   0.00000  Uiso   1.00
C1390  C     0.83476   0.76279   0.95558   0.00000  Uiso   1.00
C1391  C     0.82078   0.78910   0.93162   0.00000  Uiso   1.00
H1392  H     0.87723   0.74514   0.58235   0.00000  Uiso   1.00
H1393  H     0.86930   0.98285   0.66348   0.00000  Uiso   1.00
H1394  H     0.92662   0.70385   0.65901   0.00000  Uiso   1.00
H1395  H     0.92984   0.66900   0.69946   0.00000  Uiso   1.00
H1396  H     0.90820   0.71803   0.71797   0.00000  Uiso   1.00
H1397  H     0.88948   0.98768   0.50992   0.00000  Uiso   1.00
H1398  H     0.76503   0.94562   0.92559   0.00000  Uiso   1.00
H1399  H     0.82537   0.97975   0.87585   0.00000  Uiso   1.00
H1400  H     0.85679   0.94030   0.88094   0.00000  Uiso   1.00
H1401  H     0.83889   0.97694   0.92845   0.00000  Uiso   1.00
H1402  H     0.76716   0.91712   0.62230   0.00000  Uiso   1.00
H1403  H     0.80265   0.99988   0.79609   0.00000  Uiso   1.00
H1404  H     0.77352   0.66918   0.53830   0.00000  Uiso   1.00
H1405  H     0.73596   0.92461   0.70105   0.00000  Uiso   1.00
H1406  H     0.83728   0.73101   0.94165   0.00000  Uiso   1.00
H1407  H     0.84360   0.86395   0.57038   0.00000  Uiso   1.00
H1408  H     0.81295   0.77568   0.90079   0.00000  Uiso   1.00
H1409  H     0.98892   0.79141   0.82162   0.00000  Uiso   1.00
H1410  H     0.95282   0.72956   0.78938   0.00000  Uiso   1.00
H1411  H     0.67590   0.73694   0.76325   0.00000  Uiso   1.00
H1412  H     0.97166   0.75127   0.73543   0.00000  Uiso   1.00
N1413  N     0.98168   0.79161   0.79108   0.00000  Uiso   1.00
N1414  N     0.86843   0.67098   0.69080   0.00000  Uiso   1.00
N1415  N     0.79153   0.93022   0.91373   0.00000  Uiso   1.00
O1416  O     0.83333   0.83333   0.75000   0.00000  Uiso   1.00
O1417  O     0.82118   0.79304   0.65459   0.00000  Uiso   1.00
O1418  O     0.79607   0.87058   0.84968   0.00000  Uiso   1.00
O1419  O     0.87491   0.84425   0.64606   0.00000  Uiso   1.00
O1420  O     0.84118   0.82546   0.84968   0.00000  Uiso   1.00
O1421  O     0.89632   0.70717   0.95915   0.00000  Uiso   1.00
O1422  O     0.87727   0.67999   0.52713   0.00000  Uiso   1.00
O1423  O     0.75494   0.85066   0.58237   0.00000  Uiso   1.00
O1424  O     0.78137   0.91911   0.58922   0.00000  Uiso   1.00
O1425  O     0.72823   0.94515   0.51222   0.00000  Uiso   1.00
O1426  O     0.79060   0.97855   0.52495   0.00000  Uiso   1.00
O1427  O     0.84597   0.74686   0.78214   0.00000  Uiso   1.00
O1428  O     0.68369   0.87918   0.67064   0.00000  Uiso   1.00
O1429  O     0.71958   0.90401   0.72369   0.00000  Uiso   1.00
O1430  O     0.81298   0.92751   0.77014   0.00000  Uiso   1.00
O1431  O     0.74078   0.79958   0.73413   0.00000  Uiso   1.00
O1432  O     0.93360   0.85939   0.71361   0.00000  Uiso   1.00
O1433  O     0.73738   0.85544   0.78213   0.00000  Uiso   1.00
O1434  O     0.92158   0.81892   0.77014   0.00000  Uiso   1.00
O1435  O     0.80426   0.73610   0.73413   0.00000  Uiso   1.00
O1436  O     0.87012   0.92286   0.71361   0.00000  Uiso   1.00
Zn1437 Zn    0.86005   0.80661   0.78734   0.00000  Uiso   1.00
Zn1438 Zn    0.80046   0.79124   0.71876   0.00000  Uiso   1.00
Zn1439 Zn    0.87723   0.86442   0.70657   0.00000  Uiso   1.00
Zn1440 Zn    0.79560   0.87106   0.78734   0.00000  Uiso   1.00
loop_
_geom_bond_atom_site_label_1
_geom_bond_atom_site_label_2
_geom_bond_distance
_geom_bond_site_symmetry_2
_ccdc_geom_bond_type
C1     O71     1.264   .     A
C1     C7      1.435   .     S
C1     O73     1.268   .     A
C2     C16     1.387   .     A
C2     H47     1.079   .     S
C2     C28     1.407   .     A
C3     C15     1.398   .     A
C3     H32     1.085   .     S
C3     C16     1.394   .     A
C4     O74     1.276   .     A
C4     C6      1.466   .     S
C4     O72     1.281   .     A
C5     C17     1.418   .     A
C5     C27     1.419   .     A
C5     C14     1.490   .     S
C6     C87     1.359   .     S
C6     C105    1.495   .     S
C7     C166    1.359   1_455 S
C7     N213    1.427   1_455 S
C8     C11     1.456   .     S
C8     C249    1.338   .     S
C8     N294    1.429   .     S
C9     C10     1.435   .     S
C9     C488    1.338   1_545 S
C9     H523    1.087   1_545 S
C10    O67     1.271   .     A
C10    O75     1.280   .     A
C11    O70     1.276   .     A
C11    O76     1.273   .     A
C12    C17     1.408   .     A
C12    C743    1.412   .     S
C12    C744    1.481   .     S
C13    O59     1.281   .     A
C13    O57     1.272   .     A
C13    C16     1.454   .     S
C14    O58     1.285   .     A
C14    O60     1.291   .     A
C15    C740    1.488   1_554 S
C15    C749    1.424   1_554 S
C17    N55     1.428   .     S
C18    H52     1.110   .     S
C18    N53     1.447   .     S
C18    H50     1.110   .     S
C18    H131    1.111   .     S
C19    H36     1.108   .     S
C19    N54     1.445   .     S
C19    H34     1.111   .     S
C19    H35     1.112   .     S
C20    O61     1.223   .     D
C20    C735    1.488   .     S
C20    O782    1.399   .     S
C21    N55     1.446   .     S
C21    H39     1.111   .     S
C21    H41     1.111   .     S
C21    H40     1.111   .     S
C22    O63     1.223   .     D
C22    O64     1.398   .     S
C22    C23     1.489   .     S
C23    C732    1.412   1_554 S
C23    C746    1.428   1_554 S
C24    O66     1.396   .     S
C24    O65     1.223   .     D
C24    C732    1.481   1_554 S
C25    O68     1.223   .     D
C25    O69     1.399   .     S
C25    C166    1.495   1_455 S
C26    C27     1.417   .     A
C26    C743    1.428   .     S
C26    C748    1.431   .     S
C27    C31     1.409   .     A
C28    C746    1.431   1_554 S
C28    C749    1.428   1_554 S
C29    C30     1.400   .     A
C29    C748    1.428   .     S
C29    C735    1.424   .     S
C30    C31     1.385   .     A
C30    H46     1.080   .     S
C31    H48     1.080   .     S
H33    N294    1.032   .     S
H37    O302    1.014   .     S
H38    N55     1.030   .     S
H42    O64     1.012   .     S
H43    C249    1.087   .     S
H44    O546    1.014   1_545 S
H45    O69     1.013   .     S
H49    N53     1.032   .     S
H51    C178    1.111   1_455 S
N53    C87     1.427   .     S
N54    H513    1.032   1_545 S
N54    C488    1.429   1_545 S
O56    Zn79    1.938   .     S
O56    Zn78    1.943   .     S
O56    Zn77    1.954   .     S
O56    Zn80    1.939   .     S
O57    Zn78    1.927   .     S
O58    Zn80    1.932   .     S
O59    Zn79    1.929   .     S
O60    Zn77    1.925   .     S
O62    H517    1.014   1_545 S
O62    C740    1.399   1_554 S
O66    H284    1.014   .     S
O67    Zn77    1.926   .     S
O70    Zn80    1.928   .     S
O71    Zn78    1.941   .     S
O72    Zn79    1.947   .     S
O73    Zn80    1.943   .     S
O74    Zn77    1.939   .     S
O75    Zn78    1.931   .     S
O76    Zn79    1.928   .     S
C81    O151    1.264   .     A
C81    C87     1.435   .     S
C81    O153    1.268   .     A
C82    C96     1.387   .     A
C82    H127    1.079   .     S
C82    C108    1.407   .     A
C83    C95     1.398   .     A
C83    H112    1.085   .     S
C83    C96     1.394   .     A
C84    O154    1.276   .     A
C84    C86     1.466   .     S
C84    O152    1.281   .     A
C85    C97     1.418   .     A
C85    C107    1.419   .     A
C85    C94     1.490   .     S
C86    C167    1.359   .     S
C86    C185    1.495   .     S
C88    C91     1.456   .     S
C88    C329    1.338   .     S
C88    N374    1.429   .     S
C89    C90     1.435   .     S
C89    C568    1.338   1_545 S
C89    H603    1.087   1_545 S
C90    O147    1.271   .     A
C90    O155    1.280   .     A
C91    O150    1.276   .     A
C91    O156    1.273   .     A
C92    C97     1.408   .     A
C92    C823    1.412   .     S
C92    C824    1.481   .     S
C93    O139    1.281   .     A
C93    O137    1.272   .     A
C93    C96     1.454   .     S
C94    O138    1.285   .     A
C94    O140    1.291   .     A
C95    C820    1.488   1_554 S
C95    C829    1.424   1_554 S
C97    N135    1.428   .     S
C98    H132    1.110   .     S
C98    N133    1.447   .     S
C98    H130    1.110   .     S
C98    H211    1.111   .     S
C99    H116    1.108   .     S
C99    N134    1.445   .     S
C99    H114    1.111   .     S
C99    H115    1.112   .     S
C100   O141    1.223   .     D
C100   C815    1.488   .     S
C100   O862    1.399   .     S
C101   N135    1.446   .     S
C101   H119    1.111   .     S
C101   H121    1.111   .     S
C101   H120    1.111   .     S
C102   O143    1.223   .     D
C102   O144    1.398   .     S
C102   C103    1.489   .     S
C103   C812    1.412   1_554 S
C103   C826    1.428   1_554 S
C104   O146    1.396   .     S
C104   O145    1.223   .     D
C104   C812    1.481   1_554 S
C105   O148    1.223   .     D
C105   O149    1.399   .     S
C106   C107    1.417   .     A
C106   C823    1.428   .     S
C106   C828    1.431   .     S
C107   C111    1.409   .     A
C108   C826    1.431   1_554 S
C108   C829    1.428   1_554 S
C109   C110    1.400   .     A
C109   C828    1.428   .     S
C109   C815    1.424   .     S
C110   C111    1.385   .     A
C110   H126    1.080   .     S
C111   H128    1.080   .     S
H113   N374    1.032   .     S
H117   O382    1.014   .     S
H118   N135    1.030   .     S
H122   O144    1.012   .     S
H123   C329    1.087   .     S
H124   O626    1.014   1_545 S
H125   O149    1.013   .     S
H129   N133    1.032   .     S
N133   C167    1.427   .     S
N134   H593    1.032   1_545 S
N134   C568    1.429   1_545 S
O136   Zn159   1.938   .     S
O136   Zn158   1.943   .     S
O136   Zn157   1.954   .     S
O136   Zn160   1.939   .     S
O137   Zn158   1.927   .     S
O138   Zn160   1.932   .     S
O139   Zn159   1.929   .     S
O140   Zn157   1.925   .     S
O142   H597    1.014   1_545 S
O142   C820    1.399   1_554 S
O146   H364    1.014   .     S
O147   Zn157   1.926   .     S
O150   Zn160   1.928   .     S
O151   Zn158   1.941   .     S
O152   Zn159   1.947   .     S
O153   Zn160   1.943   .     S
O154   Zn157   1.939   .     S
O155   Zn158   1.931   .     S
O156   Zn159   1.928   .     S
C161   O231    1.264   .     A
C161   C167    1.435   .     S
C161   O233    1.268   .     A
C162   C176    1.387   .     A
C162   H207    1.079   .     S
C162   C188    1.407   .     A
C163   C175    1.398   .     A
C163   H192    1.085   .     S
C163   C176    1.394   .     A
C164   O234    1.276   .     A
C164   C166    1.466   .     S
C164   O232    1.281   .     A
C165   C177    1.418   .     A
C165   C187    1.419   .     A
C165   C174    1.490   .     S
C166   C7      1.359   1_655 S
C166   C25     1.495   1_655 S
C168   C171    1.456   .     S
C168   C409    1.338   .     S
C168   N454    1.429   .     S
C169   C170    1.435   .     S
C169   C648    1.338   1_545 S
C169   H683    1.087   1_545 S
C170   O227    1.271   .     A
C170   O235    1.280   .     A
C171   O230    1.276   .     A
C171   O236    1.273   .     A
C172   C177    1.408   .     A
C172   C903    1.412   .     S
C172   C904    1.481   .     S
C173   O219    1.281   .     A
C173   O217    1.272   .     A
C173   C176    1.454   .     S
C174   O218    1.285   .     A
C174   O220    1.291   .     A
C175   C900    1.488   1_554 S
C175   C909    1.424   1_554 S
C177   N215    1.428   .     S
C178   H212    1.110   .     S
C178   N213    1.447   .     S
C178   H210    1.110   .     S
C178   H51     1.111   1_655 S
C179   H196    1.108   .     S
C179   N214    1.445   .     S
C179   H194    1.111   .     S
C179   H195    1.112   .     S
C180   O221    1.223   .     D
C180   C895    1.488   .     S
C180   O942    1.399   .     S
C181   N215    1.446   .     S
C181   H199    1.111   .     S
C181   H201    1.111   .     S
C181   H200    1.111   .     S
C182   O223    1.223   .     D
C182   O224    1.398   .     S
C182   C183    1.489   .     S
C183   C892    1.412   1_554 S
C183   C906    1.428   1_554 S
C184   O226    1.396   .     S
C184   O225    1.223   .     D
C184   C892    1.481   1_554 S
C185   O228    1.223   .     D
C185   O229    1.399   .     S
C186   C187    1.417   .     A
C186   C903    1.428   .     S
C186   C908    1.431   .     S
C187   C191    1.409   .     A
C188   C906    1.431   1_554 S
C188   C909    1.428   1_554 S
C189   C190    1.400   .     A
C189   C908    1.428   .     S
C189   C895    1.424   .     S
C190   C191    1.385   .     A
C190   H206    1.080   .     S
C191   H208    1.080   .     S
H193   N454    1.032   .     S
H197   O462    1.014   .     S
H198   N215    1.030   .     S
H202   O224    1.012   .     S
H203   C409    1.087   .     S
H204   O706    1.014   1_545 S
H205   O229    1.013   .     S
H209   N213    1.032   .     S
N213   C7      1.427   1_655 S
N214   H673    1.032   1_545 S
N214   C648    1.429   1_545 S
O216   Zn239   1.938   .     S
O216   Zn238   1.943   .     S
O216   Zn237   1.954   .     S
O216   Zn240   1.939   .     S
O217   Zn238   1.927   .     S
O218   Zn240   1.932   .     S
O219   Zn239   1.929   .     S
O220   Zn237   1.925   .     S
O222   H677    1.014   1_545 S
O222   C900    1.399   1_554 S
O226   H444    1.014   .     S
O227   Zn237   1.926   .     S
O230   Zn240   1.928   .     S
O231   Zn238   1.941   .     S
O232   Zn239   1.947   .     S
O233   Zn240   1.943   .     S
O234   Zn237   1.939   .     S
O235   Zn238   1.931   .     S
O236   Zn239   1.928   .     S
C241   O311    1.264   .     A
C241   C247    1.435   .     S
C241   O313    1.268   .     A
C242   C256    1.387   .     A
C242   H287    1.079   .     S
C242   C268    1.407   .     A
C243   C255    1.398   .     A
C243   H272    1.085   .     S
C243   C256    1.394   .     A
C244   O314    1.276   .     A
C244   C246    1.466   .     S
C244   O312    1.281   .     A
C245   C257    1.418   .     A
C245   C267    1.419   .     A
C245   C254    1.490   .     S
C246   C327    1.359   .     S
C246   C345    1.495   .     S
C247   C406    1.359   1_455 S
C247   N453    1.427   1_455 S
C248   C251    1.456   .     S
C248   C489    1.338   .     S
C248   N534    1.429   .     S
C249   C250    1.435   .     S
C250   O307    1.271   .     A
C250   O315    1.280   .     A
C251   O310    1.276   .     A
C251   O316    1.273   .     A
C252   C257    1.408   .     A
C252   C983    1.412   .     S
C252   C984    1.481   .     S
C253   O299    1.281   .     A
C253   O297    1.272   .     A
C253   C256    1.454   .     S
C254   O298    1.285   .     A
C254   O300    1.291   .     A
C255   C980    1.488   1_554 S
C255   C989    1.424   1_554 S
C257   N295    1.428   .     S
C258   H292    1.110   .     S
C258   N293    1.447   .     S
C258   H290    1.110   .     S
C258   H371    1.111   .     S
C259   H276    1.108   .     S
C259   N294    1.445   .     S
C259   H274    1.111   .     S
C259   H275    1.112   .     S
C260   O301    1.223   .     D
C260   C975    1.488   .     S
C260   O1022   1.399   .     S
C261   N295    1.446   .     S
C261   H279    1.111   .     S
C261   H281    1.111   .     S
C261   H280    1.111   .     S
C262   O303    1.223   .     D
C262   O304    1.398   .     S
C262   C263    1.489   .     S
C263   C972    1.412   1_554 S
C263   C986    1.428   1_554 S
C264   O306    1.396   .     S
C264   O305    1.223   .     D
C264   C972    1.481   1_554 S
C265   O308    1.223   .     D
C265   O309    1.399   .     S
C265   C406    1.495   1_455 S
C266   C267    1.417   .     A
C266   C983    1.428   .     S
C266   C988    1.431   .     S
C267   C271    1.409   .     A
C268   C986    1.431   1_554 S
C268   C989    1.428   1_554 S
C269   C270    1.400   .     A
C269   C988    1.428   .     S
C269   C975    1.424   .     S
C270   C271    1.385   .     A
C270   H286    1.080   .     S
C271   H288    1.080   .     S
H273   N534    1.032   .     S
H277   O542    1.014   .     S
H278   N295    1.030   .     S
H282   O304    1.012   .     S
H283   C489    1.087   .     S
H285   O309    1.013   .     S
H289   N293    1.032   .     S
H291   C418    1.111   1_455 S
N293   C327    1.427   .     S
O296   Zn319   1.938   .     S
O296   Zn318   1.943   .     S
O296   Zn317   1.954   .     S
O296   Zn320   1.939   .     S
O297   Zn318   1.927   .     S
O298   Zn320   1.932   .     S
O299   Zn319   1.929   .     S
O300   Zn317   1.925   .     S
O302   C980    1.399   1_554 S
O306   H524    1.014   .     S
O307   Zn317   1.926   .     S
O310   Zn320   1.928   .     S
O311   Zn318   1.941   .     S
O312   Zn319   1.947   .     S
O313   Zn320   1.943   .     S
O314   Zn317   1.939   .     S
O315   Zn318   1.931   .     S
O316   Zn319   1.928   .     S
C321   O391    1.264   .     A
C321   C327    1.435   .     S
C321   O393    1.268   .     A
C322   C336    1.387   .     A
C322   H367    1.079   .     S
C322   C348    1.407   .     A
C323   C335    1.398   .     A
C323   H352    1.085   .     S
C323   C336    1.394   .     A
C324   O394    1.276   .     A
C324   C326    1.466   .     S
C324   O392    1.281   .     A
C325   C337    1.418   .     A
C325   C347    1.419   .     A
C325   C334    1.490   .     S
C326   C407    1.359   .     S
C326   C425    1.495   .     S
C328   C331    1.456   .     S
C328   C569    1.338   .     S
C328   N614    1.429   .     S
C329   C330    1.435   .     S
C330   O387    1.271   .     A
C330   O395    1.280   .     A
C331   O390    1.276   .     A
C331   O396    1.273   .     A
C332   C337    1.408   .     A
C332   C1063   1.412   .     S
C332   C1064   1.481   .     S
C333   O379    1.281   .     A
C333   O377    1.272   .     A
C333   C336    1.454   .     S
C334   O378    1.285   .     A
C334   O380    1.291   .     A
C335   C1060   1.488   1_554 S
C335   C1069   1.424   1_554 S
C337   N375    1.428   .     S
C338   H372    1.110   .     S
C338   N373    1.447   .     S
C338   H370    1.110   .     S
C338   H451    1.111   .     S
C339   H356    1.108   .     S
C339   N374    1.445   .     S
C339   H354    1.111   .     S
C339   H355    1.112   .     S
C340   O381    1.223   .     D
C340   C1055   1.488   .     S
C340   O1102   1.399   .     S
C341   N375    1.446   .     S
C341   H359    1.111   .     S
C341   H361    1.111   .     S
C341   H360    1.111   .     S
C342   O383    1.223   .     D
C342   O384    1.398   .     S
C342   C343    1.489   .     S
C343   C1052   1.412   1_554 S
C343   C1066   1.428   1_554 S
C344   O386    1.396   .     S
C344   O385    1.223   .     D
C344   C1052   1.481   1_554 S
C345   O388    1.223   .     D
C345   O389    1.399   .     S
C346   C347    1.417   .     A
C346   C1063   1.428   .     S
C346   C1068   1.431   .     S
C347   C351    1.409   .     A
C348   C1066   1.431   1_554 S
C348   C1069   1.428   1_554 S
C349   C350    1.400   .     A
C349   C1068   1.428   .     S
C349   C1055   1.424   .     S
C350   C351    1.385   .     A
C350   H366    1.080   .     S
C351   H368    1.080   .     S
H353   N614    1.032   .     S
H357   O622    1.014   .     S
H358   N375    1.030   .     S
H362   O384    1.012   .     S
H363   C569    1.087   .     S
H365   O389    1.013   .     S
H369   N373    1.032   .     S
N373   C407    1.427   .     S
O376   Zn399   1.938   .     S
O376   Zn398   1.943   .     S
O376   Zn397   1.954   .     S
O376   Zn400   1.939   .     S
O377   Zn398   1.927   .     S
O378   Zn400   1.932   .     S
O379   Zn399   1.929   .     S
O380   Zn397   1.925   .     S
O382   C1060   1.399   1_554 S
O386   H604    1.014   .     S
O387   Zn397   1.926   .     S
O390   Zn400   1.928   .     S
O391   Zn398   1.941   .     S
O392   Zn399   1.947   .     S
O393   Zn400   1.943   .     S
O394   Zn397   1.939   .     S
O395   Zn398   1.931   .     S
O396   Zn399   1.928   .     S
C401   O471    1.264   .     A
C401   C407    1.435   .     S
C401   O473    1.268   .     A
C402   C416    1.387   .     A
C402   H447    1.079   .     S
C402   C428    1.407   .     A
C403   C415    1.398   .     A
C403   H432    1.085   .     S
C403   C416    1.394   .     A
C404   O474    1.276   .     A
C404   C406    1.466   .     S
C404   O472    1.281   .     A
C405   C417    1.418   .     A
C405   C427    1.419   .     A
C405   C414    1.490   .     S
C406   C247    1.359   1_655 S
C406   C265    1.495   1_655 S
C408   C411    1.456   .     S
C408   C649    1.338   .     S
C408   N694    1.429   .     S
C409   C410    1.435   .     S
C410   O467    1.271   .     A
C410   O475    1.280   .     A
C411   O470    1.276   .     A
C411   O476    1.273   .     A
C412   C417    1.408   .     A
C412   C1143   1.412   .     S
C412   C1144   1.481   .     S
C413   O459    1.281   .     A
C413   O457    1.272   .     A
C413   C416    1.454   .     S
C414   O458    1.285   .     A
C414   O460    1.291   .     A
C415   C1140   1.488   1_554 S
C415   C1149   1.424   1_554 S
C417   N455    1.428   .     S
C418   H452    1.110   .     S
C418   N453    1.447   .     S
C418   H450    1.110   .     S
C418   H291    1.111   1_655 S
C419   H436    1.108   .     S
C419   N454    1.445   .     S
C419   H434    1.111   .     S
C419   H435    1.112   .     S
C420   O461    1.223   .     D
C420   C1135   1.488   .     S
C420   O1182   1.399   .     S
C421   N455    1.446   .     S
C421   H439    1.111   .     S
C421   H441    1.111   .     S
C421   H440    1.111   .     S
C422   O463    1.223   .     D
C422   O464    1.398   .     S
C422   C423    1.489   .     S
C423   C1132   1.412   1_554 S
C423   C1146   1.428   1_554 S
C424   O466    1.396   .     S
C424   O465    1.223   .     D
C424   C1132   1.481   1_554 S
C425   O468    1.223   .     D
C425   O469    1.399   .     S
C426   C427    1.417   .     A
C426   C1143   1.428   .     S
C426   C1148   1.431   .     S
C427   C431    1.409   .     A
C428   C1146   1.431   1_554 S
C428   C1149   1.428   1_554 S
C429   C430    1.400   .     A
C429   C1148   1.428   .     S
C429   C1135   1.424   .     S
C430   C431    1.385   .     A
C430   H446    1.080   .     S
C431   H448    1.080   .     S
H433   N694    1.032   .     S
H437   O702    1.014   .     S
H438   N455    1.030   .     S
H442   O464    1.012   .     S
H443   C649    1.087   .     S
H445   O469    1.013   .     S
H449   N453    1.032   .     S
N453   C247    1.427   1_655 S
O456   Zn479   1.938   .     S
O456   Zn478   1.943   .     S
O456   Zn477   1.954   .     S
O456   Zn480   1.939   .     S
O457   Zn478   1.927   .     S
O458   Zn480   1.932   .     S
O459   Zn479   1.929   .     S
O460   Zn477   1.925   .     S
O462   C1140   1.399   1_554 S
O466   H684    1.014   .     S
O467   Zn477   1.926   .     S
O470   Zn480   1.928   .     S
O471   Zn478   1.941   .     S
O472   Zn479   1.947   .     S
O473   Zn480   1.943   .     S
O474   Zn477   1.939   .     S
O475   Zn478   1.931   .     S
O476   Zn479   1.928   .     S
C481   O551    1.264   .     A
C481   C487    1.435   .     S
C481   O553    1.268   .     A
C482   C496    1.387   .     A
C482   H527    1.079   .     S
C482   C508    1.407   .     A
C483   C495    1.398   .     A
C483   H512    1.085   .     S
C483   C496    1.394   .     A
C484   O554    1.276   .     A
C484   C486    1.466   .     S
C484   O552    1.281   .     A
C485   C497    1.418   .     A
C485   C507    1.419   .     A
C485   C494    1.490   .     S
C486   C567    1.359   .     S
C486   C585    1.495   .     S
C487   C646    1.359   1_455 S
C487   N693    1.427   1_455 S
C488   C491    1.456   .     S
C488   C9      1.338   1_565 S
C488   N54     1.429   1_565 S
C489   C490    1.435   .     S
C490   O547    1.271   .     A
C490   O555    1.280   .     A
C491   O550    1.276   .     A
C491   O556    1.273   .     A
C492   C497    1.408   .     A
C492   C1223   1.412   .     S
C492   C1224   1.481   .     S
C493   O539    1.281   .     A
C493   O537    1.272   .     A
C493   C496    1.454   .     S
C494   O538    1.285   .     A
C494   O540    1.291   .     A
C495   C1220   1.488   1_554 S
C495   C1229   1.424   1_554 S
C497   N535    1.428   .     S
C498   H532    1.110   .     S
C498   N533    1.447   .     S
C498   H530    1.110   .     S
C498   H611    1.111   .     S
C499   H516    1.108   .     S
C499   N534    1.445   .     S
C499   H514    1.111   .     S
C499   H515    1.112   .     S
C500   O541    1.223   .     D
C500   C1215   1.488   .     S
C500   O1262   1.399   .     S
C501   N535    1.446   .     S
C501   H519    1.111   .     S
C501   H521    1.111   .     S
C501   H520    1.111   .     S
C502   O543    1.223   .     D
C502   O544    1.398   .     S
C502   C503    1.489   .     S
C503   C1212   1.412   1_554 S
C503   C1226   1.428   1_554 S
C504   O546    1.396   .     S
C504   O545    1.223   .     D
C504   C1212   1.481   1_554 S
C505   O548    1.223   .     D
C505   O549    1.399   .     S
C505   C646    1.495   1_455 S
C506   C507    1.417   .     A
C506   C1223   1.428   .     S
C506   C1228   1.431   .     S
C507   C511    1.409   .     A
C508   C1226   1.431   1_554 S
C508   C1229   1.428   1_554 S
C509   C510    1.400   .     A
C509   C1228   1.428   .     S
C509   C1215   1.424   .     S
C510   C511    1.385   .     A
C510   H526    1.080   .     S
C511   H528    1.080   .     S
H513   N54     1.032   1_565 S
H517   O62     1.014   1_565 S
H518   N535    1.030   .     S
H522   O544    1.012   .     S
H523   C9      1.087   1_565 S
H525   O549    1.013   .     S
H529   N533    1.032   .     S
H531   C658    1.111   1_455 S
N533   C567    1.427   .     S
O536   Zn559   1.938   .     S
O536   Zn558   1.943   .     S
O536   Zn557   1.954   .     S
O536   Zn560   1.939   .     S
O537   Zn558   1.927   .     S
O538   Zn560   1.932   .     S
O539   Zn559   1.929   .     S
O540   Zn557   1.925   .     S
O542   C1220   1.399   1_554 S
O546   H44     1.014   1_565 S
O547   Zn557   1.926   .     S
O550   Zn560   1.928   .     S
O551   Zn558   1.941   .     S
O552   Zn559   1.947   .     S
O553   Zn560   1.943   .     S
O554   Zn557   1.939   .     S
O555   Zn558   1.931   .     S
O556   Zn559   1.928   .     S
C561   O631    1.264   .     A
C561   C567    1.435   .     S
C561   O633    1.268   .     A
C562   C576    1.387   .     A
C562   H607    1.079   .     S
C562   C588    1.407   .     A
C563   C575    1.398   .     A
C563   H592    1.085   .     S
C563   C576    1.394   .     A
C564   O634    1.276   .     A
C564   C566    1.466   .     S
C564   O632    1.281   .     A
C565   C577    1.418   .     A
C565   C587    1.419   .     A
C565   C574    1.490   .     S
C566   C647    1.359   .     S
C566   C665    1.495   .     S
C568   C571    1.456   .     S
C568   C89     1.338   1_565 S
C568   N134    1.429   1_565 S
C569   C570    1.435   .     S
C570   O627    1.271   .     A
C570   O635    1.280   .     A
C571   O630    1.276   .     A
C571   O636    1.273   .     A
C572   C577    1.408   .     A
C572   C1303   1.412   .     S
C572   C1304   1.481   .     S
C573   O619    1.281   .     A
C573   O617    1.272   .     A
C573   C576    1.454   .     S
C574   O618    1.285   .     A
C574   O620    1.291   .     A
C575   C1300   1.488   1_554 S
C575   C1309   1.424   1_554 S
C577   N615    1.428   .     S
C578   H612    1.110   .     S
C578   N613    1.447   .     S
C578   H610    1.110   .     S
C578   H691    1.111   .     S
C579   H596    1.108   .     S
C579   N614    1.445   .     S
C579   H594    1.111   .     S
C579   H595    1.112   .     S
C580   O621    1.223   .     D
C580   C1295   1.488   .     S
C580   O1342   1.399   .     S
C581   N615    1.446   .     S
C581   H599    1.111   .     S
C581   H601    1.111   .     S
C581   H600    1.111   .     S
C582   O623    1.223   .     D
C582   O624    1.398   .     S
C582   C583    1.489   .     S
C583   C1292   1.412   1_554 S
C583   C1306   1.428   1_554 S
C584   O626    1.396   .     S
C584   O625    1.223   .     D
C584   C1292   1.481   1_554 S
C585   O628    1.223   .     D
C585   O629    1.399   .     S
C586   C587    1.417   .     A
C586   C1303   1.428   .     S
C586   C1308   1.431   .     S
C587   C591    1.409   .     A
C588   C1306   1.431   1_554 S
C588   C1309   1.428   1_554 S
C589   C590    1.400   .     A
C589   C1308   1.428   .     S
C589   C1295   1.424   .     S
C590   C591    1.385   .     A
C590   H606    1.080   .     S
C591   H608    1.080   .     S
H593   N134    1.032   1_565 S
H597   O142    1.014   1_565 S
H598   N615    1.030   .     S
H602   O624    1.012   .     S
H603   C89     1.087   1_565 S
H605   O629    1.013   .     S
H609   N613    1.032   .     S
N613   C647    1.427   .     S
O616   Zn639   1.938   .     S
O616   Zn638   1.943   .     S
O616   Zn637   1.954   .     S
O616   Zn640   1.939   .     S
O617   Zn638   1.927   .     S
O618   Zn640   1.932   .     S
O619   Zn639   1.929   .     S
O620   Zn637   1.925   .     S
O622   C1300   1.399   1_554 S
O626   H124    1.014   1_565 S
O627   Zn637   1.926   .     S
O630   Zn640   1.928   .     S
O631   Zn638   1.941   .     S
O632   Zn639   1.947   .     S
O633   Zn640   1.943   .     S
O634   Zn637   1.939   .     S
O635   Zn638   1.931   .     S
O636   Zn639   1.928   .     S
C641   O711    1.264   .     A
C641   C647    1.435   .     S
C641   O713    1.268   .     A
C642   C656    1.387   .     A
C642   H687    1.079   .     S
C642   C668    1.407   .     A
C643   C655    1.398   .     A
C643   H672    1.085   .     S
C643   C656    1.394   .     A
C644   O714    1.276   .     A
C644   C646    1.466   .     S
C644   O712    1.281   .     A
C645   C657    1.418   .     A
C645   C667    1.419   .     A
C645   C654    1.490   .     S
C646   C487    1.359   1_655 S
C646   C505    1.495   1_655 S
C648   C651    1.456   .     S
C648   C169    1.338   1_565 S
C648   N214    1.429   1_565 S
C649   C650    1.435   .     S
C650   O707    1.271   .     A
C650   O715    1.280   .     A
C651   O710    1.276   .     A
C651   O716    1.273   .     A
C652   C657    1.408   .     A
C652   C1383   1.412   .     S
C652   C1384   1.481   .     S
C653   O699    1.281   .     A
C653   O697    1.272   .     A
C653   C656    1.454   .     S
C654   O698    1.285   .     A
C654   O700    1.291   .     A
C655   C1380   1.488   1_554 S
C655   C1389   1.424   1_554 S
C657   N695    1.428   .     S
C658   H692    1.110   .     S
C658   N693    1.447   .     S
C658   H690    1.110   .     S
C658   H531    1.111   1_655 S
C659   H676    1.108   .     S
C659   N694    1.445   .     S
C659   H674    1.111   .     S
C659   H675    1.112   .     S
C660   O701    1.223   .     D
C660   C1375   1.488   .     S
C660   O1422   1.399   .     S
C661   N695    1.446   .     S
C661   H679    1.111   .     S
C661   H681    1.111   .     S
C661   H680    1.111   .     S
C662   O703    1.223   .     D
C662   O704    1.398   .     S
C662   C663    1.489   .     S
C663   C1372   1.412   1_554 S
C663   C1386   1.428   1_554 S
C664   O706    1.396   .     S
C664   O705    1.223   .     D
C664   C1372   1.481   1_554 S
C665   O708    1.223   .     D
C665   O709    1.399   .     S
C666   C667    1.417   .     A
C666   C1383   1.428   .     S
C666   C1388   1.431   .     S
C667   C671    1.409   .     A
C668   C1386   1.431   1_554 S
C668   C1389   1.428   1_554 S
C669   C670    1.400   .     A
C669   C1388   1.428   .     S
C669   C1375   1.424   .     S
C670   C671    1.385   .     A
C670   H686    1.080   .     S
C671   H688    1.080   .     S
H673   N214    1.032   1_565 S
H677   O222    1.014   1_565 S
H678   N695    1.030   .     S
H682   O704    1.012   .     S
H683   C169    1.087   1_565 S
H685   O709    1.013   .     S
H689   N693    1.032   .     S
N693   C487    1.427   1_655 S
O696   Zn719   1.938   .     S
O696   Zn718   1.943   .     S
O696   Zn717   1.954   .     S
O696   Zn720   1.939   .     S
O697   Zn718   1.927   .     S
O698   Zn720   1.932   .     S
O699   Zn719   1.929   .     S
O700   Zn717   1.925   .     S
O702   C1380   1.399   1_554 S
O706   H204    1.014   1_565 S
O707   Zn717   1.926   .     S
O710   Zn720   1.928   .     S
O711   Zn718   1.941   .     S
O712   Zn719   1.947   .     S
O713   Zn720   1.943   .     S
O714   Zn717   1.939   .     S
O715   Zn718   1.931   .     S
O716   Zn719   1.928   .     S
C721   O791    1.264   .     A
C721   C727    1.435   .     S
C721   O793    1.268   .     A
C722   C736    1.387   .     A
C722   H767    1.079   .     S
C722   C748    1.407   .     A
C723   C735    1.398   .     A
C723   H752    1.085   .     S
C723   C736    1.394   .     A
C724   O794    1.276   .     A
C724   C726    1.466   .     S
C724   O792    1.281   .     A
C725   C737    1.418   .     A
C725   C747    1.419   .     A
C725   C734    1.490   .     S
C726   C807    1.359   .     S
C726   C825    1.495   .     S
C727   C886    1.359   1_455 S
C727   N933    1.427   1_455 S
C728   C731    1.456   .     S
C728   C969    1.338   .     S
C728   N1014   1.429   .     S
C729   C730    1.435   .     S
C729   C1208   1.338   1_545 S
C729   H1243   1.087   1_545 S
C730   O787    1.271   .     A
C730   O795    1.280   .     A
C731   O790    1.276   .     A
C731   O796    1.273   .     A
C732   C737    1.408   .     A
C732   C23     1.412   1_556 S
C732   C24     1.481   1_556 S
C733   O779    1.281   .     A
C733   O777    1.272   .     A
C733   C736    1.454   .     S
C734   O778    1.285   .     A
C734   O780    1.291   .     A
C737   N775    1.428   .     S
C738   H772    1.110   .     S
C738   N773    1.447   .     S
C738   H770    1.110   .     S
C738   H851    1.111   .     S
C739   H756    1.108   .     S
C739   N774    1.445   .     S
C739   H754    1.111   .     S
C739   H755    1.112   .     S
C740   O781    1.223   .     D
C740   C15     1.488   1_556 S
C740   O62     1.399   1_556 S
C741   N775    1.446   .     S
C741   H759    1.111   .     S
C741   H761    1.111   .     S
C741   H760    1.111   .     S
C742   O783    1.223   .     D
C742   O784    1.398   .     S
C742   C743    1.489   .     S
C744   O786    1.396   .     S
C744   O785    1.223   .     D
C745   O788    1.223   .     D
C745   O789    1.399   .     S
C745   C886    1.495   1_455 S
C746   C747    1.417   .     A
C746   C23     1.428   1_556 S
C746   C28     1.431   1_556 S
C747   C751    1.409   .     A
C749   C750    1.400   .     A
C749   C28     1.428   1_556 S
C749   C15     1.424   1_556 S
C750   C751    1.385   .     A
C750   H766    1.080   .     S
C751   H768    1.080   .     S
H753   N1014   1.032   .     S
H757   O1022   1.014   .     S
H758   N775    1.030   .     S
H762   O784    1.012   .     S
H763   C969    1.087   .     S
H764   O1266   1.014   1_545 S
H765   O789    1.013   .     S
H769   N773    1.032   .     S
H771   C898    1.111   1_455 S
N773   C807    1.427   .     S
N774   H1233   1.032   1_545 S
N774   C1208   1.429   1_545 S
O776   Zn799   1.938   .     S
O776   Zn798   1.943   .     S
O776   Zn797   1.954   .     S
O776   Zn800   1.939   .     S
O777   Zn798   1.927   .     S
O778   Zn800   1.932   .     S
O779   Zn799   1.929   .     S
O780   Zn797   1.925   .     S
O782   H1237   1.014   1_545 S
O786   H1004   1.014   .     S
O787   Zn797   1.926   .     S
O790   Zn800   1.928   .     S
O791   Zn798   1.941   .     S
O792   Zn799   1.947   .     S
O793   Zn800   1.943   .     S
O794   Zn797   1.939   .     S
O795   Zn798   1.931   .     S
O796   Zn799   1.928   .     S
C801   O871    1.264   .     A
C801   C807    1.435   .     S
C801   O873    1.268   .     A
C802   C816    1.387   .     A
C802   H847    1.079   .     S
C802   C828    1.407   .     A
C803   C815    1.398   .     A
C803   H832    1.085   .     S
C803   C816    1.394   .     A
C804   O874    1.276   .     A
C804   C806    1.466   .     S
C804   O872    1.281   .     A
C805   C817    1.418   .     A
C805   C827    1.419   .     A
C805   C814    1.490   .     S
C806   C887    1.359   .     S
C806   C905    1.495   .     S
C808   C811    1.456   .     S
C808   C1049   1.338   .     S
C808   N1094   1.429   .     S
C809   C810    1.435   .     S
C809   C1288   1.338   1_545 S
C809   H1323   1.087   1_545 S
C810   O867    1.271   .     A
C810   O875    1.280   .     A
C811   O870    1.276   .     A
C811   O876    1.273   .     A
C812   C817    1.408   .     A
C812   C103    1.412   1_556 S
C812   C104    1.481   1_556 S
C813   O859    1.281   .     A
C813   O857    1.272   .     A
C813   C816    1.454   .     S
C814   O858    1.285   .     A
C814   O860    1.291   .     A
C817   N855    1.428   .     S
C818   H852    1.110   .     S
C818   N853    1.447   .     S
C818   H850    1.110   .     S
C818   H931    1.111   .     S
C819   H836    1.108   .     S
C819   N854    1.445   .     S
C819   H834    1.111   .     S
C819   H835    1.112   .     S
C820   O861    1.223   .     D
C820   C95     1.488   1_556 S
C820   O142    1.399   1_556 S
C821   N855    1.446   .     S
C821   H839    1.111   .     S
C821   H841    1.111   .     S
C821   H840    1.111   .     S
C822   O863    1.223   .     D
C822   O864    1.398   .     S
C822   C823    1.489   .     S
C824   O866    1.396   .     S
C824   O865    1.223   .     D
C825   O868    1.223   .     D
C825   O869    1.399   .     S
C826   C827    1.417   .     A
C826   C103    1.428   1_556 S
C826   C108    1.431   1_556 S
C827   C831    1.409   .     A
C829   C830    1.400   .     A
C829   C108    1.428   1_556 S
C829   C95     1.424   1_556 S
C830   C831    1.385   .     A
C830   H846    1.080   .     S
C831   H848    1.080   .     S
H833   N1094   1.032   .     S
H837   O1102   1.014   .     S
H838   N855    1.030   .     S
H842   O864    1.012   .     S
H843   C1049   1.087   .     S
H844   O1346   1.014   1_545 S
H845   O869    1.013   .     S
H849   N853    1.032   .     S
N853   C887    1.427   .     S
N854   H1313   1.032   1_545 S
N854   C1288   1.429   1_545 S
O856   Zn879   1.938   .     S
O856   Zn878   1.943   .     S
O856   Zn877   1.954   .     S
O856   Zn880   1.939   .     S
O857   Zn878   1.927   .     S
O858   Zn880   1.932   .     S
O859   Zn879   1.929   .     S
O860   Zn877   1.925   .     S
O862   H1317   1.014   1_545 S
O866   H1084   1.014   .     S
O867   Zn877   1.926   .     S
O870   Zn880   1.928   .     S
O871   Zn878   1.941   .     S
O872   Zn879   1.947   .     S
O873   Zn880   1.943   .     S
O874   Zn877   1.939   .     S
O875   Zn878   1.931   .     S
O876   Zn879   1.928   .     S
C881   O951    1.264   .     A
C881   C887    1.435   .     S
C881   O953    1.268   .     A
C882   C896    1.387   .     A
C882   H927    1.079   .     S
C882   C908    1.407   .     A
C883   C895    1.398   .     A
C883   H912    1.085   .     S
C883   C896    1.394   .     A
C884   O954    1.276   .     A
C884   C886    1.466   .     S
C884   O952    1.281   .     A
C885   C897    1.418   .     A
C885   C907    1.419   .     A
C885   C894    1.490   .     S
C886   C727    1.359   1_655 S
C886   C745    1.495   1_655 S
C888   C891    1.456   .     S
C888   C1129   1.338   .     S
C888   N1174   1.429   .     S
C889   C890    1.435   .     S
C889   C1368   1.338   1_545 S
C889   H1403   1.087   1_545 S
C890   O947    1.271   .     A
C890   O955    1.280   .     A
C891   O950    1.276   .     A
C891   O956    1.273   .     A
C892   C897    1.408   .     A
C892   C183    1.412   1_556 S
C892   C184    1.481   1_556 S
C893   O939    1.281   .     A
C893   O937    1.272   .     A
C893   C896    1.454   .     S
C894   O938    1.285   .     A
C894   O940    1.291   .     A
C897   N935    1.428   .     S
C898   H932    1.110   .     S
C898   N933    1.447   .     S
C898   H930    1.110   .     S
C898   H771    1.111   1_655 S
C899   H916    1.108   .     S
C899   N934    1.445   .     S
C899   H914    1.111   .     S
C899   H915    1.112   .     S
C900   O941    1.223   .     D
C900   C175    1.488   1_556 S
C900   O222    1.399   1_556 S
C901   N935    1.446   .     S
C901   H919    1.111   .     S
C901   H921    1.111   .     S
C901   H920    1.111   .     S
C902   O943    1.223   .     D
C902   O944    1.398   .     S
C902   C903    1.489   .     S
C904   O946    1.396   .     S
C904   O945    1.223   .     D
C905   O948    1.223   .     D
C905   O949    1.399   .     S
C906   C907    1.417   .     A
C906   C183    1.428   1_556 S
C906   C188    1.431   1_556 S
C907   C911    1.409   .     A
C909   C910    1.400   .     A
C909   C188    1.428   1_556 S
C909   C175    1.424   1_556 S
C910   C911    1.385   .     A
C910   H926    1.080   .     S
C911   H928    1.080   .     S
H913   N1174   1.032   .     S
H917   O1182   1.014   .     S
H918   N935    1.030   .     S
H922   O944    1.012   .     S
H923   C1129   1.087   .     S
H924   O1426   1.014   1_545 S
H925   O949    1.013   .     S
H929   N933    1.032   .     S
N933   C727    1.427   1_655 S
N934   H1393   1.032   1_545 S
N934   C1368   1.429   1_545 S
O936   Zn959   1.938   .     S
O936   Zn958   1.943   .     S
O936   Zn957   1.954   .     S
O936   Zn960   1.939   .     S
O937   Zn958   1.927   .     S
O938   Zn960   1.932   .     S
O939   Zn959   1.929   .     S
O940   Zn957   1.925   .     S
O942   H1397   1.014   1_545 S
O946   H1164   1.014   .     S
O947   Zn957   1.926   .     S
O950   Zn960   1.928   .     S
O951   Zn958   1.941   .     S
O952   Zn959   1.947   .     S
O953   Zn960   1.943   .     S
O954   Zn957   1.939   .     S
O955   Zn958   1.931   .     S
O956   Zn959   1.928   .     S
C961   O1031   1.264   .     A
C961   C967    1.435   .     S
C961   O1033   1.268   .     A
C962   C976    1.387   .     A
C962   H1007   1.079   .     S
C962   C988    1.407   .     A
C963   C975    1.398   .     A
C963   H992    1.085   .     S
C963   C976    1.394   .     A
C964   O1034   1.276   .     A
C964   C966    1.466   .     S
C964   O1032   1.281   .     A
C965   C977    1.418   .     A
C965   C987    1.419   .     A
C965   C974    1.490   .     S
C966   C1047   1.359   .     S
C966   C1065   1.495   .     S
C967   C1126   1.359   1_455 S
C967   N1173   1.427   1_455 S
C968   C971    1.456   .     S
C968   C1209   1.338   .     S
C968   N1254   1.429   .     S
C969   C970    1.435   .     S
C970   O1027   1.271   .     A
C970   O1035   1.280   .     A
C971   O1030   1.276   .     A
C971   O1036   1.273   .     A
C972   C977    1.408   .     A
C972   C263    1.412   1_556 S
C972   C264    1.481   1_556 S
C973   O1019   1.281   .     A
C973   O1017   1.272   .     A
C973   C976    1.454   .     S
C974   O1018   1.285   .     A
C974   O1020   1.291   .     A
C977   N1015   1.428   .     S
C978   H1012   1.110   .     S
C978   N1013   1.447   .     S
C978   H1010   1.110   .     S
C978   H1091   1.111   .     S
C979   H996    1.108   .     S
C979   N1014   1.445   .     S
C979   H994    1.111   .     S
C979   H995    1.112   .     S
C980   O1021   1.223   .     D
C980   C255    1.488   1_556 S
C980   O302    1.399   1_556 S
C981   N1015   1.446   .     S
C981   H999    1.111   .     S
C981   H1001   1.111   .     S
C981   H1000   1.111   .     S
C982   O1023   1.223   .     D
C982   O1024   1.398   .     S
C982   C983    1.489   .     S
C984   O1026   1.396   .     S
C984   O1025   1.223   .     D
C985   O1028   1.223   .     D
C985   O1029   1.399   .     S
C985   C1126   1.495   1_455 S
C986   C987    1.417   .     A
C986   C263    1.428   1_556 S
C986   C268    1.431   1_556 S
C987   C991    1.409   .     A
C989   C990    1.400   .     A
C989   C268    1.428   1_556 S
C989   C255    1.424   1_556 S
C990   C991    1.385   .     A
C990   H1006   1.080   .     S
C991   H1008   1.080   .     S
H993   N1254   1.032   .     S
H997   O1262   1.014   .     S
H998   N1015   1.030   .     S
H1002  O1024   1.012   .     S
H1003  C1209   1.087   .     S
H1005  O1029   1.013   .     S
H1009  N1013   1.032   .     S
H1011  C1138   1.111   1_455 S
N1013  C1047   1.427   .     S
O1016  Zn1039  1.938   .     S
O1016  Zn1038  1.943   .     S
O1016  Zn1037  1.954   .     S
O1016  Zn1040  1.939   .     S
O1017  Zn1038  1.927   .     S
O1018  Zn1040  1.932   .     S
O1019  Zn1039  1.929   .     S
O1020  Zn1037  1.925   .     S
O1026  H1244   1.014   .     S
O1027  Zn1037  1.926   .     S
O1030  Zn1040  1.928   .     S
O1031  Zn1038  1.941   .     S
O1032  Zn1039  1.947   .     S
O1033  Zn1040  1.943   .     S
O1034  Zn1037  1.939   .     S
O1035  Zn1038  1.931   .     S
O1036  Zn1039  1.928   .     S
C1041  O1111   1.264   .     A
C1041  C1047   1.435   .     S
C1041  O1113   1.268   .     A
C1042  C1056   1.387   .     A
C1042  H1087   1.079   .     S
C1042  C1068   1.407   .     A
C1043  C1055   1.398   .     A
C1043  H1072   1.085   .     S
C1043  C1056   1.394   .     A
C1044  O1114   1.276   .     A
C1044  C1046   1.466   .     S
C1044  O1112   1.281   .     A
C1045  C1057   1.418   .     A
C1045  C1067   1.419   .     A
C1045  C1054   1.490   .     S
C1046  C1127   1.359   .     S
C1046  C1145   1.495   .     S
C1048  C1051   1.456   .     S
C1048  C1289   1.338   .     S
C1048  N1334   1.429   .     S
C1049  C1050   1.435   .     S
C1050  O1107   1.271   .     A
C1050  O1115   1.280   .     A
C1051  O1110   1.276   .     A
C1051  O1116   1.273   .     A
C1052  C1057   1.408   .     A
C1052  C343    1.412   1_556 S
C1052  C344    1.481   1_556 S
C1053  O1099   1.281   .     A
C1053  O1097   1.272   .     A
C1053  C1056   1.454   .     S
C1054  O1098   1.285   .     A
C1054  O1100   1.291   .     A
C1057  N1095   1.428   .     S
C1058  H1092   1.110   .     S
C1058  N1093   1.447   .     S
C1058  H1090   1.110   .     S
C1058  H1171   1.111   .     S
C1059  H1076   1.108   .     S
C1059  N1094   1.445   .     S
C1059  H1074   1.111   .     S
C1059  H1075   1.112   .     S
C1060  O1101   1.223   .     D
C1060  C335    1.488   1_556 S
C1060  O382    1.399   1_556 S
C1061  N1095   1.446   .     S
C1061  H1079   1.111   .     S
C1061  H1081   1.111   .     S
C1061  H1080   1.111   .     S
C1062  O1103   1.223   .     D
C1062  O1104   1.398   .     S
C1062  C1063   1.489   .     S
C1064  O1106   1.396   .     S
C1064  O1105   1.223   .     D
C1065  O1108   1.223   .     D
C1065  O1109   1.399   .     S
C1066  C1067   1.417   .     A
C1066  C343    1.428   1_556 S
C1066  C348    1.431   1_556 S
C1067  C1071   1.409   .     A
C1069  C1070   1.400   .     A
C1069  C348    1.428   1_556 S
C1069  C335    1.424   1_556 S
C1070  C1071   1.385   .     A
C1070  H1086   1.080   .     S
C1071  H1088   1.080   .     S
H1073  N1334   1.032   .     S
H1077  O1342   1.014   .     S
H1078  N1095   1.030   .     S
H1082  O1104   1.012   .     S
H1083  C1289   1.087   .     S
H1085  O1109   1.013   .     S
H1089  N1093   1.032   .     S
N1093  C1127   1.427   .     S
O1096  Zn1119  1.938   .     S
O1096  Zn1118  1.943   .     S
O1096  Zn1117  1.954   .     S
O1096  Zn1120  1.939   .     S
O1097  Zn1118  1.927   .     S
O1098  Zn1120  1.932   .     S
O1099  Zn1119  1.929   .     S
O1100  Zn1117  1.925   .     S
O1106  H1324   1.014   .     S
O1107  Zn1117  1.926   .     S
O1110  Zn1120  1.928   .     S
O1111  Zn1118  1.941   .     S
O1112  Zn1119  1.947   .     S
O1113  Zn1120  1.943   .     S
O1114  Zn1117  1.939   .     S
O1115  Zn1118  1.931   .     S
O1116  Zn1119  1.928   .     S
C1121  O1191   1.264   .     A
C1121  C1127   1.435   .     S
C1121  O1193   1.268   .     A
C1122  C1136   1.387   .     A
C1122  H1167   1.079   .     S
C1122  C1148   1.407   .     A
C1123  C1135   1.398   .     A
C1123  H1152   1.085   .     S
C1123  C1136   1.394   .     A
C1124  O1194   1.276   .     A
C1124  C1126   1.466   .     S
C1124  O1192   1.281   .     A
C1125  C1137   1.418   .     A
C1125  C1147   1.419   .     A
C1125  C1134   1.490   .     S
C1126  C967    1.359   1_655 S
C1126  C985    1.495   1_655 S
C1128  C1131   1.456   .     S
C1128  C1369   1.338   .     S
C1128  N1414   1.429   .     S
C1129  C1130   1.435   .     S
C1130  O1187   1.271   .     A
C1130  O1195   1.280   .     A
C1131  O1190   1.276   .     A
C1131  O1196   1.273   .     A
C1132  C1137   1.408   .     A
C1132  C423    1.412   1_556 S
C1132  C424    1.481   1_556 S
C1133  O1179   1.281   .     A
C1133  O1177   1.272   .     A
C1133  C1136   1.454   .     S
C1134  O1178   1.285   .     A
C1134  O1180   1.291   .     A
C1137  N1175   1.428   .     S
C1138  H1172   1.110   .     S
C1138  N1173   1.447   .     S
C1138  H1170   1.110   .     S
C1138  H1011   1.111   1_655 S
C1139  H1156   1.108   .     S
C1139  N1174   1.445   .     S
C1139  H1154   1.111   .     S
C1139  H1155   1.112   .     S
C1140  O1181   1.223   .     D
C1140  C415    1.488   1_556 S
C1140  O462    1.399   1_556 S
C1141  N1175   1.446   .     S
C1141  H1159   1.111   .     S
C1141  H1161   1.111   .     S
C1141  H1160   1.111   .     S
C1142  O1183   1.223   .     D
C1142  O1184   1.398   .     S
C1142  C1143   1.489   .     S
C1144  O1186   1.396   .     S
C1144  O1185   1.223   .     D
C1145  O1188   1.223   .     D
C1145  O1189   1.399   .     S
C1146  C1147   1.417   .     A
C1146  C423    1.428   1_556 S
C1146  C428    1.431   1_556 S
C1147  C1151   1.409   .     A
C1149  C1150   1.400   .     A
C1149  C428    1.428   1_556 S
C1149  C415    1.424   1_556 S
C1150  C1151   1.385   .     A
C1150  H1166   1.080   .     S
C1151  H1168   1.080   .     S
H1153  N1414   1.032   .     S
H1157  O1422   1.014   .     S
H1158  N1175   1.030   .     S
H1162  O1184   1.012   .     S
H1163  C1369   1.087   .     S
H1165  O1189   1.013   .     S
H1169  N1173   1.032   .     S
N1173  C967    1.427   1_655 S
O1176  Zn1199  1.938   .     S
O1176  Zn1198  1.943   .     S
O1176  Zn1197  1.954   .     S
O1176  Zn1200  1.939   .     S
O1177  Zn1198  1.927   .     S
O1178  Zn1200  1.932   .     S
O1179  Zn1199  1.929   .     S
O1180  Zn1197  1.925   .     S
O1186  H1404   1.014   .     S
O1187  Zn1197  1.926   .     S
O1190  Zn1200  1.928   .     S
O1191  Zn1198  1.941   .     S
O1192  Zn1199  1.947   .     S
O1193  Zn1200  1.943   .     S
O1194  Zn1197  1.939   .     S
O1195  Zn1198  1.931   .     S
O1196  Zn1199  1.928   .     S
C1201  O1271   1.264   .     A
C1201  C1207   1.435   .     S
C1201  O1273   1.268   .     A
C1202  C1216   1.387   .     A
C1202  H1247   1.079   .     S
C1202  C1228   1.407   .     A
C1203  C1215   1.398   .     A
C1203  H1232   1.085   .     S
C1203  C1216   1.394   .     A
C1204  O1274   1.276   .     A
C1204  C1206   1.466   .     S
C1204  O1272   1.281   .     A
C1205  C1217   1.418   .     A
C1205  C1227   1.419   .     A
C1205  C1214   1.490   .     S
C1206  C1287   1.359   .     S
C1206  C1305   1.495   .     S
C1207  C1366   1.359   1_455 S
C1207  N1413   1.427   1_455 S
C1208  C1211   1.456   .     S
C1208  C729    1.338   1_565 S
C1208  N774    1.429   1_565 S
C1209  C1210   1.435   .     S
C1210  O1267   1.271   .     A
C1210  O1275   1.280   .     A
C1211  O1270   1.276   .     A
C1211  O1276   1.273   .     A
C1212  C1217   1.408   .     A
C1212  C503    1.412   1_556 S
C1212  C504    1.481   1_556 S
C1213  O1259   1.281   .     A
C1213  O1257   1.272   .     A
C1213  C1216   1.454   .     S
C1214  O1258   1.285   .     A
C1214  O1260   1.291   .     A
C1217  N1255   1.428   .     S
C1218  H1252   1.110   .     S
C1218  N1253   1.447   .     S
C1218  H1250   1.110   .     S
C1218  H1331   1.111   .     S
C1219  H1236   1.108   .     S
C1219  N1254   1.445   .     S
C1219  H1234   1.111   .     S
C1219  H1235   1.112   .     S
C1220  O1261   1.223   .     D
C1220  C495    1.488   1_556 S
C1220  O542    1.399   1_556 S
C1221  N1255   1.446   .     S
C1221  H1239   1.111   .     S
C1221  H1241   1.111   .     S
C1221  H1240   1.111   .     S
C1222  O1263   1.223   .     D
C1222  O1264   1.398   .     S
C1222  C1223   1.489   .     S
C1224  O1266   1.396   .     S
C1224  O1265   1.223   .     D
C1225  O1268   1.223   .     D
C1225  O1269   1.399   .     S
C1225  C1366   1.495   1_455 S
C1226  C1227   1.417   .     A
C1226  C503    1.428   1_556 S
C1226  C508    1.431   1_556 S
C1227  C1231   1.409   .     A
C1229  C1230   1.400   .     A
C1229  C508    1.428   1_556 S
C1229  C495    1.424   1_556 S
C1230  C1231   1.385   .     A
C1230  H1246   1.080   .     S
C1231  H1248   1.080   .     S
H1233  N774    1.032   1_565 S
H1237  O782    1.014   1_565 S
H1238  N1255   1.030   .     S
H1242  O1264   1.012   .     S
H1243  C729    1.087   1_565 S
H1245  O1269   1.013   .     S
H1249  N1253   1.032   .     S
H1251  C1378   1.111   1_455 S
N1253  C1287   1.427   .     S
O1256  Zn1279  1.938   .     S
O1256  Zn1278  1.943   .     S
O1256  Zn1277  1.954   .     S
O1256  Zn1280  1.939   .     S
O1257  Zn1278  1.927   .     S
O1258  Zn1280  1.932   .     S
O1259  Zn1279  1.929   .     S
O1260  Zn1277  1.925   .     S
O1266  H764    1.014   1_565 S
O1267  Zn1277  1.926   .     S
O1270  Zn1280  1.928   .     S
O1271  Zn1278  1.941   .     S
O1272  Zn1279  1.947   .     S
O1273  Zn1280  1.943   .     S
O1274  Zn1277  1.939   .     S
O1275  Zn1278  1.931   .     S
O1276  Zn1279  1.928   .     S
C1281  O1351   1.264   .     A
C1281  C1287   1.435   .     S
C1281  O1353   1.268   .     A
C1282  C1296   1.387   .     A
C1282  H1327   1.079   .     S
C1282  C1308   1.407   .     A
C1283  C1295   1.398   .     A
C1283  H1312   1.085   .     S
C1283  C1296   1.394   .     A
C1284  O1354   1.276   .     A
C1284  C1286   1.466   .     S
C1284  O1352   1.281   .     A
C1285  C1297   1.418   .     A
C1285  C1307   1.419   .     A
C1285  C1294   1.490   .     S
C1286  C1367   1.359   .     S
C1286  C1385   1.495   .     S
C1288  C1291   1.456   .     S
C1288  C809    1.338   1_565 S
C1288  N854    1.429   1_565 S
C1289  C1290   1.435   .     S
C1290  O1347   1.271   .     A
C1290  O1355   1.280   .     A
C1291  O1350   1.276   .     A
C1291  O1356   1.273   .     A
C1292  C1297   1.408   .     A
C1292  C583    1.412   1_556 S
C1292  C584    1.481   1_556 S
C1293  O1339   1.281   .     A
C1293  O1337   1.272   .     A
C1293  C1296   1.454   .     S
C1294  O1338   1.285   .     A
C1294  O1340   1.291   .     A
C1297  N1335   1.428   .     S
C1298  H1332   1.110   .     S
C1298  N1333   1.447   .     S
C1298  H1330   1.110   .     S
C1298  H1411   1.111   .     S
C1299  H1316   1.108   .     S
C1299  N1334   1.445   .     S
C1299  H1314   1.111   .     S
C1299  H1315   1.112   .     S
C1300  O1341   1.223   .     D
C1300  C575    1.488   1_556 S
C1300  O622    1.399   1_556 S
C1301  N1335   1.446   .     S
C1301  H1319   1.111   .     S
C1301  H1321   1.111   .     S
C1301  H1320   1.111   .     S
C1302  O1343   1.223   .     D
C1302  O1344   1.398   .     S
C1302  C1303   1.489   .     S
C1304  O1346   1.396   .     S
C1304  O1345   1.223   .     D
C1305  O1348   1.223   .     D
C1305  O1349   1.399   .     S
C1306  C1307   1.417   .     A
C1306  C583    1.428   1_556 S
C1306  C588    1.431   1_556 S
C1307  C1311   1.409   .     A
C1309  C1310   1.400   .     A
C1309  C588    1.428   1_556 S
C1309  C575    1.424   1_556 S
C1310  C1311   1.385   .     A
C1310  H1326   1.080   .     S
C1311  H1328   1.080   .     S
H1313  N854    1.032   1_565 S
H1317  O862    1.014   1_565 S
H1318  N1335   1.030   .     S
H1322  O1344   1.012   .     S
H1323  C809    1.087   1_565 S
H1325  O1349   1.013   .     S
H1329  N1333   1.032   .     S
N1333  C1367   1.427   .     S
O1336  Zn1359  1.938   .     S
O1336  Zn1358  1.943   .     S
O1336  Zn1357  1.954   .     S
O1336  Zn1360  1.939   .     S
O1337  Zn1358  1.927   .     S
O1338  Zn1360  1.932   .     S
O1339  Zn1359  1.929   .     S
O1340  Zn1357  1.925   .     S
O1346  H844    1.014   1_565 S
O1347  Zn1357  1.926   .     S
O1350  Zn1360  1.928   .     S
O1351  Zn1358  1.941   .     S
O1352  Zn1359  1.947   .     S
O1353  Zn1360  1.943   .     S
O1354  Zn1357  1.939   .     S
O1355  Zn1358  1.931   .     S
O1356  Zn1359  1.928   .     S
C1361  O1431   1.264   .     A
C1361  C1367   1.435   .     S
C1361  O1433   1.268   .     A
C1362  C1376   1.387   .     A
C1362  H1407   1.079   .     S
C1362  C1388   1.407   .     A
C1363  C1375   1.398   .     A
C1363  H1392   1.085   .     S
C1363  C1376   1.394   .     A
C1364  O1434   1.276   .     A
C1364  C1366   1.466   .     S
C1364  O1432   1.281   .     A
C1365  C1377   1.418   .     A
C1365  C1387   1.419   .     A
C1365  C1374   1.490   .     S
C1366  C1207   1.359   1_655 S
C1366  C1225   1.495   1_655 S
C1368  C1371   1.456   .     S
C1368  C889    1.338   1_565 S
C1368  N934    1.429   1_565 S
C1369  C1370   1.435   .     S
C1370  O1427   1.271   .     A
C1370  O1435   1.280   .     A
C1371  O1430   1.276   .     A
C1371  O1436   1.273   .     A
C1372  C1377   1.408   .     A
C1372  C663    1.412   1_556 S
C1372  C664    1.481   1_556 S
C1373  O1419   1.281   .     A
C1373  O1417   1.272   .     A
C1373  C1376   1.454   .     S
C1374  O1418   1.285   .     A
C1374  O1420   1.291   .     A
C1377  N1415   1.428   .     S
C1378  H1412   1.110   .     S
C1378  N1413   1.447   .     S
C1378  H1410   1.110   .     S
C1378  H1251   1.111   1_655 S
C1379  H1396   1.108   .     S
C1379  N1414   1.445   .     S
C1379  H1394   1.111   .     S
C1379  H1395   1.112   .     S
C1380  O1421   1.223   .     D
C1380  C655    1.488   1_556 S
C1380  O702    1.399   1_556 S
C1381  N1415   1.446   .     S
C1381  H1399   1.111   .     S
C1381  H1401   1.111   .     S
C1381  H1400   1.111   .     S
C1382  O1423   1.223   .     D
C1382  O1424   1.398   .     S
C1382  C1383   1.489   .     S
C1384  O1426   1.396   .     S
C1384  O1425   1.223   .     D
C1385  O1428   1.223   .     D
C1385  O1429   1.399   .     S
C1386  C1387   1.417   .     A
C1386  C663    1.428   1_556 S
C1386  C668    1.431   1_556 S
C1387  C1391   1.409   .     A
C1389  C1390   1.400   .     A
C1389  C668    1.428   1_556 S
C1389  C655    1.424   1_556 S
C1390  C1391   1.385   .     A
C1390  H1406   1.080   .     S
C1391  H1408   1.080   .     S
H1393  N934    1.032   1_565 S
H1397  O942    1.014   1_565 S
H1398  N1415   1.030   .     S
H1402  O1424   1.012   .     S
H1403  C889    1.087   1_565 S
H1405  O1429   1.013   .     S
H1409  N1413   1.032   .     S
N1413  C1207   1.427   1_655 S
O1416  Zn1439  1.938   .     S
O1416  Zn1438  1.943   .     S
O1416  Zn1437  1.954   .     S
O1416  Zn1440  1.939   .     S
O1417  Zn1438  1.927   .     S
O1418  Zn1440  1.932   .     S
O1419  Zn1439  1.929   .     S
O1420  Zn1437  1.925   .     S
O1426  H924    1.014   1_565 S
O1427  Zn1437  1.926   .     S
O1430  Zn1440  1.928   .     S
O1431  Zn1438  1.941   .     S
O1432  Zn1439  1.947   .     S
O1433  Zn1440  1.943   .     S
O1434  Zn1437  1.939   .     S
O1435  Zn1438  1.931   .     S
O1436  Zn1439  1.928   .     S
