data_str_m3_o10_o18_pcu_sym.92
_audit_creation_date              2020-01-03
_audit_creation_method            'Materials Studio'
_symmetry_space_group_name_H-M    'P1'
_symmetry_Int_Tables_number       1
_symmetry_cell_setting            triclinic
loop_
_symmetry_equiv_pos_as_xyz
  x,y,z
_cell_length_a                    23.5182
_cell_length_b                    25.6816
_cell_length_c                    27.2571
_cell_angle_alpha                 93.1618
_cell_angle_beta                  93.6862
_cell_angle_gamma                 94.0132
loop_
_atom_site_label
_atom_site_type_symbol
_atom_site_fract_x
_atom_site_fract_y
_atom_site_fract_z
_atom_site_U_iso_or_equiv
_atom_site_adp_type
_atom_site_occupancy
C1     C     0.01497   0.26486   0.24863   0.00000  Uiso   1.00
C2     C     0.31204   0.16245   0.15865   0.00000  Uiso   1.00
C3     C     0.03385   0.18448   0.39344   0.00000  Uiso   1.00
C4     C     0.30283   0.15943   0.10529   0.00000  Uiso   1.00
C5     C     0.04193   0.25435   0.45663   0.00000  Uiso   1.00
C6     C     0.32829   0.12856   0.02487   0.00000  Uiso   1.00
C7     C     0.01296   0.22942   0.41477   0.00000  Uiso   1.00
C8     C     0.00869   0.13704   0.07525   0.00000  Uiso   1.00
C9     C     0.07963   0.16232   0.41657   0.00000  Uiso   1.00
C10    C     0.25358   0.17823   0.08413   0.00000  Uiso   1.00
C11    C     0.11575   0.19179   0.45188   0.00000  Uiso   1.00
C12    C     0.31831   0.06846   0.25115   0.00000  Uiso   1.00
C13    C     0.24382   0.17704   0.03320   0.00000  Uiso   1.00
C14    C     0.09415   0.23675   0.47449   0.00000  Uiso   1.00
C15    C     0.27749   0.14614   0.00427   0.00000  Uiso   1.00
C16    C     0.17187   0.17800   0.46579   0.00000  Uiso   1.00
C17    C     0.19770   0.20134   0.01113   0.00000  Uiso   1.00
C18    C     0.21334   0.28734   0.06839   0.00000  Uiso   1.00
C19    C     0.27122   0.30535   0.04951   0.00000  Uiso   1.00
C20    C     0.30771   0.00603   0.08895   0.00000  Uiso   1.00
C21    C     0.19091   0.12420   0.38354   0.00000  Uiso   1.00
C22    C     0.17327   0.06514   0.37978   0.00000  Uiso   1.00
C23    C     0.17785   0.24891   0.03162   0.00000  Uiso   1.00
C24    C     0.14812   0.04701   0.32825   0.00000  Uiso   1.00
C25    C     0.20504   0.14400   0.43673   0.00000  Uiso   1.00
C26    C     0.12585   0.26527   0.01287   0.00000  Uiso   1.00
C27    C     0.25865   0.13128   0.45609   0.00000  Uiso   1.00
C28    C     0.02265   0.31936   0.24731   0.00000  Uiso   1.00
C29    C     0.31047   0.01391   0.25193   0.00000  Uiso   1.00
C30    C     0.02127   0.17068   0.34135   0.00000  Uiso   1.00
H31    H     0.10994   0.30097   0.02801   0.00000  Uiso   1.00
H32    H     0.26761   0.33026   0.25658   0.00000  Uiso   1.00
H33    H     0.16222   0.12454   0.21384   0.00000  Uiso   1.00
H34    H     0.17112   0.20872   0.28624   0.00000  Uiso   1.00
H35    H     0.31763   0.31647   0.12145   0.00000  Uiso   1.00
H36    H     0.01518   0.01975   0.07390   0.00000  Uiso   1.00
H37    H     0.28485   0.04047   0.10076   0.00000  Uiso   1.00
H38    H     0.29548   0.27146   0.03908   0.00000  Uiso   1.00
H39    H     0.26408   0.32807   0.01638   0.00000  Uiso   1.00
H40    H     0.19029   0.32313   0.07532   0.00000  Uiso   1.00
H41    H     0.21905   0.27186   0.10520   0.00000  Uiso   1.00
H42    H     0.28474   0.10727   0.43403   0.00000  Uiso   1.00
H43    H     0.10823   0.06636   0.31989   0.00000  Uiso   1.00
H44    H     0.17908   0.05647   0.30039   0.00000  Uiso   1.00
H45    H     0.13785   0.00405   0.32625   0.00000  Uiso   1.00
H46    H     0.14157   0.05504   0.40689   0.00000  Uiso   1.00
H47    H     0.21136   0.04313   0.38844   0.00000  Uiso   1.00
H48    H     0.16046   0.14774   0.36367   0.00000  Uiso   1.00
H49    H     0.22957   0.12981   0.36297   0.00000  Uiso   1.00
H50    H     0.22119   0.19092   0.10745   0.00000  Uiso   1.00
H51    H     0.08813   0.12362   0.40372   0.00000  Uiso   1.00
H52    H     0.04755   0.12258   0.09104   0.00000  Uiso   1.00
H53    H     0.31025   0.24701   0.39736   0.00000  Uiso   1.00
H54    H     0.02604   0.28962   0.47256   0.00000  Uiso   1.00
H55    H     0.02280   0.10689   0.00251   0.00000  Uiso   1.00
H56    H     0.06545   0.00300   0.24246   0.00000  Uiso   1.00
N57    N     0.14695   0.15216   0.23740   0.00000  Uiso   1.00
N58    N     0.18638   0.18117   0.26261   0.00000  Uiso   1.00
O59    O     0.29719   0.24631   0.25310   0.00000  Uiso   1.00
O60    O     0.03614   0.08702   0.24691   0.00000  Uiso   1.00
O61    O     0.05822   0.23702   0.24502   0.00000  Uiso   1.00
O62    O     0.27512   0.09632   0.25498   0.00000  Uiso   1.00
O63    O     0.30328   0.17397   0.32247   0.00000  Uiso   1.00
O64    O     0.03005   0.15937   0.17753   0.00000  Uiso   1.00
O65    O     0.06431   0.16467   0.31439   0.00000  Uiso   1.00
O66    O     0.26902   0.16866   0.18561   0.00000  Uiso   1.00
Zn67   Zn    0.27033   0.17287   0.25539   0.00000  Uiso   1.00
Zn68   Zn    0.06300   0.16046   0.24461   0.00000  Uiso   1.00
C69    C     0.34830   0.26486   0.24863   0.00000  Uiso   1.00
C70    C     0.64538   0.16245   0.15865   0.00000  Uiso   1.00
C71    C     0.36718   0.18448   0.39344   0.00000  Uiso   1.00
C72    C     0.63616   0.15943   0.10529   0.00000  Uiso   1.00
C73    C     0.37526   0.25435   0.45663   0.00000  Uiso   1.00
C74    C     0.66162   0.12856   0.02487   0.00000  Uiso   1.00
C75    C     0.34629   0.22942   0.41477   0.00000  Uiso   1.00
C76    C     0.34203   0.13704   0.07525   0.00000  Uiso   1.00
C77    C     0.41296   0.16232   0.41657   0.00000  Uiso   1.00
C78    C     0.58691   0.17823   0.08413   0.00000  Uiso   1.00
C79    C     0.44908   0.19179   0.45188   0.00000  Uiso   1.00
C80    C     0.65164   0.06846   0.25115   0.00000  Uiso   1.00
C81    C     0.57716   0.17704   0.03320   0.00000  Uiso   1.00
C82    C     0.42749   0.23675   0.47449   0.00000  Uiso   1.00
C83    C     0.61083   0.14614   0.00427   0.00000  Uiso   1.00
C84    C     0.50520   0.17800   0.46579   0.00000  Uiso   1.00
C85    C     0.53104   0.20134   0.01113   0.00000  Uiso   1.00
C86    C     0.54668   0.28734   0.06839   0.00000  Uiso   1.00
C87    C     0.60455   0.30535   0.04951   0.00000  Uiso   1.00
C88    C     0.64104   0.00603   0.08895   0.00000  Uiso   1.00
C89    C     0.52424   0.12420   0.38354   0.00000  Uiso   1.00
C90    C     0.50661   0.06514   0.37978   0.00000  Uiso   1.00
C91    C     0.51118   0.24891   0.03162   0.00000  Uiso   1.00
C92    C     0.48145   0.04701   0.32825   0.00000  Uiso   1.00
C93    C     0.53837   0.14400   0.43673   0.00000  Uiso   1.00
C94    C     0.45918   0.26527   0.01287   0.00000  Uiso   1.00
C95    C     0.59198   0.13128   0.45609   0.00000  Uiso   1.00
C96    C     0.35598   0.31936   0.24731   0.00000  Uiso   1.00
C97    C     0.64381   0.01391   0.25193   0.00000  Uiso   1.00
C98    C     0.35460   0.17068   0.34135   0.00000  Uiso   1.00
H99    H     0.44327   0.30097   0.02801   0.00000  Uiso   1.00
H100   H     0.60094   0.33026   0.25658   0.00000  Uiso   1.00
H101   H     0.49555   0.12454   0.21384   0.00000  Uiso   1.00
H102   H     0.50445   0.20872   0.28624   0.00000  Uiso   1.00
H103   H     0.65096   0.31647   0.12145   0.00000  Uiso   1.00
H104   H     0.34852   0.01975   0.07390   0.00000  Uiso   1.00
H105   H     0.61818   0.04047   0.10076   0.00000  Uiso   1.00
H106   H     0.62882   0.27146   0.03908   0.00000  Uiso   1.00
H107   H     0.59742   0.32807   0.01638   0.00000  Uiso   1.00
H108   H     0.52363   0.32313   0.07532   0.00000  Uiso   1.00
H109   H     0.55238   0.27186   0.10520   0.00000  Uiso   1.00
H110   H     0.61807   0.10727   0.43403   0.00000  Uiso   1.00
H111   H     0.44157   0.06636   0.31989   0.00000  Uiso   1.00
H112   H     0.51242   0.05647   0.30039   0.00000  Uiso   1.00
H113   H     0.47118   0.00405   0.32625   0.00000  Uiso   1.00
H114   H     0.47490   0.05504   0.40689   0.00000  Uiso   1.00
H115   H     0.54470   0.04313   0.38844   0.00000  Uiso   1.00
H116   H     0.49379   0.14774   0.36367   0.00000  Uiso   1.00
H117   H     0.56290   0.12981   0.36297   0.00000  Uiso   1.00
H118   H     0.55452   0.19092   0.10745   0.00000  Uiso   1.00
H119   H     0.42147   0.12362   0.40372   0.00000  Uiso   1.00
H120   H     0.38089   0.12258   0.09104   0.00000  Uiso   1.00
H121   H     0.64358   0.24701   0.39736   0.00000  Uiso   1.00
H122   H     0.35938   0.28962   0.47256   0.00000  Uiso   1.00
H123   H     0.35613   0.10689   0.00251   0.00000  Uiso   1.00
H124   H     0.39878   0.00300   0.24246   0.00000  Uiso   1.00
N125   N     0.48029   0.15216   0.23740   0.00000  Uiso   1.00
N126   N     0.51971   0.18117   0.26261   0.00000  Uiso   1.00
O127   O     0.63052   0.24631   0.25310   0.00000  Uiso   1.00
O128   O     0.36948   0.08702   0.24691   0.00000  Uiso   1.00
O129   O     0.39155   0.23702   0.24502   0.00000  Uiso   1.00
O130   O     0.60845   0.09632   0.25498   0.00000  Uiso   1.00
O131   O     0.63662   0.17397   0.32247   0.00000  Uiso   1.00
O132   O     0.36338   0.15937   0.17753   0.00000  Uiso   1.00
O133   O     0.39764   0.16467   0.31439   0.00000  Uiso   1.00
O134   O     0.60236   0.16866   0.18561   0.00000  Uiso   1.00
Zn135  Zn    0.60366   0.17287   0.25539   0.00000  Uiso   1.00
Zn136  Zn    0.39634   0.16046   0.24461   0.00000  Uiso   1.00
C137   C     0.68164   0.26486   0.24863   0.00000  Uiso   1.00
C138   C     0.97871   0.16245   0.15865   0.00000  Uiso   1.00
C139   C     0.70051   0.18448   0.39344   0.00000  Uiso   1.00
C140   C     0.96949   0.15943   0.10529   0.00000  Uiso   1.00
C141   C     0.70860   0.25435   0.45663   0.00000  Uiso   1.00
C142   C     0.99496   0.12856   0.02487   0.00000  Uiso   1.00
C143   C     0.67963   0.22942   0.41477   0.00000  Uiso   1.00
C144   C     0.67536   0.13704   0.07525   0.00000  Uiso   1.00
C145   C     0.74629   0.16232   0.41657   0.00000  Uiso   1.00
C146   C     0.92025   0.17823   0.08413   0.00000  Uiso   1.00
C147   C     0.78242   0.19179   0.45188   0.00000  Uiso   1.00
C148   C     0.98497   0.06846   0.25115   0.00000  Uiso   1.00
C149   C     0.91049   0.17704   0.03320   0.00000  Uiso   1.00
C150   C     0.76082   0.23675   0.47449   0.00000  Uiso   1.00
C151   C     0.94416   0.14614   0.00427   0.00000  Uiso   1.00
C152   C     0.83854   0.17800   0.46579   0.00000  Uiso   1.00
C153   C     0.86437   0.20134   0.01113   0.00000  Uiso   1.00
C154   C     0.88001   0.28734   0.06839   0.00000  Uiso   1.00
C155   C     0.93789   0.30535   0.04951   0.00000  Uiso   1.00
C156   C     0.97438   0.00603   0.08895   0.00000  Uiso   1.00
C157   C     0.85758   0.12420   0.38354   0.00000  Uiso   1.00
C158   C     0.83994   0.06514   0.37978   0.00000  Uiso   1.00
C159   C     0.84452   0.24891   0.03162   0.00000  Uiso   1.00
C160   C     0.81478   0.04701   0.32825   0.00000  Uiso   1.00
C161   C     0.87170   0.14400   0.43673   0.00000  Uiso   1.00
C162   C     0.79252   0.26527   0.01287   0.00000  Uiso   1.00
C163   C     0.92531   0.13128   0.45609   0.00000  Uiso   1.00
C164   C     0.68931   0.31936   0.24731   0.00000  Uiso   1.00
C165   C     0.97714   0.01391   0.25193   0.00000  Uiso   1.00
C166   C     0.68794   0.17068   0.34135   0.00000  Uiso   1.00
H167   H     0.77660   0.30097   0.02801   0.00000  Uiso   1.00
H168   H     0.93428   0.33026   0.25658   0.00000  Uiso   1.00
H169   H     0.82889   0.12454   0.21384   0.00000  Uiso   1.00
H170   H     0.83779   0.20872   0.28624   0.00000  Uiso   1.00
H171   H     0.98430   0.31647   0.12145   0.00000  Uiso   1.00
H172   H     0.68185   0.01975   0.07390   0.00000  Uiso   1.00
H173   H     0.95151   0.04047   0.10076   0.00000  Uiso   1.00
H174   H     0.96215   0.27146   0.03908   0.00000  Uiso   1.00
H175   H     0.93075   0.32807   0.01638   0.00000  Uiso   1.00
H176   H     0.85696   0.32313   0.07532   0.00000  Uiso   1.00
H177   H     0.88571   0.27186   0.10520   0.00000  Uiso   1.00
H178   H     0.95141   0.10727   0.43403   0.00000  Uiso   1.00
H179   H     0.77490   0.06636   0.31989   0.00000  Uiso   1.00
H180   H     0.84575   0.05647   0.30039   0.00000  Uiso   1.00
H181   H     0.80452   0.00405   0.32625   0.00000  Uiso   1.00
H182   H     0.80823   0.05504   0.40689   0.00000  Uiso   1.00
H183   H     0.87803   0.04313   0.38844   0.00000  Uiso   1.00
H184   H     0.82713   0.14774   0.36367   0.00000  Uiso   1.00
H185   H     0.89623   0.12981   0.36297   0.00000  Uiso   1.00
H186   H     0.88785   0.19092   0.10745   0.00000  Uiso   1.00
H187   H     0.75480   0.12362   0.40372   0.00000  Uiso   1.00
H188   H     0.71422   0.12258   0.09104   0.00000  Uiso   1.00
H189   H     0.97691   0.24701   0.39736   0.00000  Uiso   1.00
H190   H     0.69271   0.28962   0.47256   0.00000  Uiso   1.00
H191   H     0.68946   0.10689   0.00251   0.00000  Uiso   1.00
H192   H     0.73211   0.00300   0.24246   0.00000  Uiso   1.00
N193   N     0.81362   0.15216   0.23740   0.00000  Uiso   1.00
N194   N     0.85305   0.18117   0.26261   0.00000  Uiso   1.00
O195   O     0.96386   0.24631   0.25310   0.00000  Uiso   1.00
O196   O     0.70281   0.08702   0.24691   0.00000  Uiso   1.00
O197   O     0.72488   0.23702   0.24502   0.00000  Uiso   1.00
O198   O     0.94178   0.09632   0.25498   0.00000  Uiso   1.00
O199   O     0.96995   0.17397   0.32247   0.00000  Uiso   1.00
O200   O     0.69672   0.15937   0.17753   0.00000  Uiso   1.00
O201   O     0.73098   0.16467   0.31439   0.00000  Uiso   1.00
O202   O     0.93569   0.16866   0.18561   0.00000  Uiso   1.00
Zn203  Zn    0.93700   0.17287   0.25539   0.00000  Uiso   1.00
Zn204  Zn    0.72967   0.16046   0.24461   0.00000  Uiso   1.00
C205   C     0.01497   0.59820   0.24863   0.00000  Uiso   1.00
C206   C     0.31204   0.49579   0.15865   0.00000  Uiso   1.00
C207   C     0.03385   0.51781   0.39344   0.00000  Uiso   1.00
C208   C     0.30283   0.49277   0.10529   0.00000  Uiso   1.00
C209   C     0.04193   0.58768   0.45663   0.00000  Uiso   1.00
C210   C     0.32829   0.46189   0.02487   0.00000  Uiso   1.00
C211   C     0.01296   0.56275   0.41477   0.00000  Uiso   1.00
C212   C     0.00869   0.47037   0.07525   0.00000  Uiso   1.00
C213   C     0.07963   0.49566   0.41657   0.00000  Uiso   1.00
C214   C     0.25358   0.51157   0.08413   0.00000  Uiso   1.00
C215   C     0.11575   0.52512   0.45188   0.00000  Uiso   1.00
C216   C     0.31831   0.40179   0.25115   0.00000  Uiso   1.00
C217   C     0.24382   0.51037   0.03320   0.00000  Uiso   1.00
C218   C     0.09415   0.57009   0.47449   0.00000  Uiso   1.00
C219   C     0.27749   0.47947   0.00427   0.00000  Uiso   1.00
C220   C     0.17187   0.51134   0.46579   0.00000  Uiso   1.00
C221   C     0.19770   0.53467   0.01113   0.00000  Uiso   1.00
C222   C     0.21334   0.62068   0.06839   0.00000  Uiso   1.00
C223   C     0.27122   0.63868   0.04951   0.00000  Uiso   1.00
C224   C     0.30771   0.33936   0.08895   0.00000  Uiso   1.00
C225   C     0.19091   0.45753   0.38354   0.00000  Uiso   1.00
C226   C     0.17327   0.39848   0.37978   0.00000  Uiso   1.00
C227   C     0.17785   0.58225   0.03162   0.00000  Uiso   1.00
C228   C     0.14812   0.38035   0.32825   0.00000  Uiso   1.00
C229   C     0.20504   0.47733   0.43673   0.00000  Uiso   1.00
C230   C     0.12585   0.59860   0.01287   0.00000  Uiso   1.00
C231   C     0.25865   0.46462   0.45609   0.00000  Uiso   1.00
C232   C     0.02265   0.65270   0.24731   0.00000  Uiso   1.00
C233   C     0.31047   0.34725   0.25193   0.00000  Uiso   1.00
C234   C     0.02127   0.50401   0.34135   0.00000  Uiso   1.00
H235   H     0.10994   0.63431   0.02801   0.00000  Uiso   1.00
H236   H     0.26761   0.66360   0.25658   0.00000  Uiso   1.00
H237   H     0.16222   0.45787   0.21384   0.00000  Uiso   1.00
H238   H     0.17112   0.54206   0.28624   0.00000  Uiso   1.00
H239   H     0.31763   0.64981   0.12145   0.00000  Uiso   1.00
H240   H     0.01518   0.35309   0.07390   0.00000  Uiso   1.00
H241   H     0.28485   0.37380   0.10076   0.00000  Uiso   1.00
H242   H     0.29548   0.60479   0.03908   0.00000  Uiso   1.00
H243   H     0.26408   0.66140   0.01638   0.00000  Uiso   1.00
H244   H     0.19029   0.65647   0.07532   0.00000  Uiso   1.00
H245   H     0.21905   0.60519   0.10520   0.00000  Uiso   1.00
H246   H     0.28474   0.44060   0.43403   0.00000  Uiso   1.00
H247   H     0.10823   0.39970   0.31989   0.00000  Uiso   1.00
H248   H     0.17908   0.38980   0.30039   0.00000  Uiso   1.00
H249   H     0.13785   0.33738   0.32625   0.00000  Uiso   1.00
H250   H     0.14157   0.38838   0.40689   0.00000  Uiso   1.00
H251   H     0.21136   0.37646   0.38844   0.00000  Uiso   1.00
H252   H     0.16046   0.48107   0.36367   0.00000  Uiso   1.00
H253   H     0.22957   0.46315   0.36297   0.00000  Uiso   1.00
H254   H     0.22119   0.52425   0.10745   0.00000  Uiso   1.00
H255   H     0.08813   0.45695   0.40372   0.00000  Uiso   1.00
H256   H     0.04755   0.45592   0.09104   0.00000  Uiso   1.00
H257   H     0.31025   0.58035   0.39736   0.00000  Uiso   1.00
H258   H     0.02604   0.62296   0.47256   0.00000  Uiso   1.00
H259   H     0.02280   0.44023   0.00251   0.00000  Uiso   1.00
H260   H     0.06545   0.33633   0.24246   0.00000  Uiso   1.00
N261   N     0.14695   0.48550   0.23740   0.00000  Uiso   1.00
N262   N     0.18638   0.51450   0.26261   0.00000  Uiso   1.00
O263   O     0.29719   0.57964   0.25310   0.00000  Uiso   1.00
O264   O     0.03614   0.42036   0.24691   0.00000  Uiso   1.00
O265   O     0.05822   0.57035   0.24502   0.00000  Uiso   1.00
O266   O     0.27512   0.42965   0.25498   0.00000  Uiso   1.00
O267   O     0.30328   0.50730   0.32247   0.00000  Uiso   1.00
O268   O     0.03005   0.49270   0.17753   0.00000  Uiso   1.00
O269   O     0.06431   0.49801   0.31439   0.00000  Uiso   1.00
O270   O     0.26902   0.50199   0.18561   0.00000  Uiso   1.00
Zn271  Zn    0.27033   0.50621   0.25539   0.00000  Uiso   1.00
Zn272  Zn    0.06300   0.49379   0.24461   0.00000  Uiso   1.00
C273   C     0.34830   0.59820   0.24863   0.00000  Uiso   1.00
C274   C     0.64538   0.49579   0.15865   0.00000  Uiso   1.00
C275   C     0.36718   0.51781   0.39344   0.00000  Uiso   1.00
C276   C     0.63616   0.49277   0.10529   0.00000  Uiso   1.00
C277   C     0.37526   0.58768   0.45663   0.00000  Uiso   1.00
C278   C     0.66162   0.46189   0.02487   0.00000  Uiso   1.00
C279   C     0.34629   0.56275   0.41477   0.00000  Uiso   1.00
C280   C     0.34203   0.47037   0.07525   0.00000  Uiso   1.00
C281   C     0.41296   0.49566   0.41657   0.00000  Uiso   1.00
C282   C     0.58691   0.51157   0.08413   0.00000  Uiso   1.00
C283   C     0.44908   0.52512   0.45188   0.00000  Uiso   1.00
C284   C     0.65164   0.40179   0.25115   0.00000  Uiso   1.00
C285   C     0.57716   0.51037   0.03320   0.00000  Uiso   1.00
C286   C     0.42749   0.57009   0.47449   0.00000  Uiso   1.00
C287   C     0.61083   0.47947   0.00427   0.00000  Uiso   1.00
C288   C     0.50520   0.51134   0.46579   0.00000  Uiso   1.00
C289   C     0.53104   0.53467   0.01113   0.00000  Uiso   1.00
C290   C     0.54668   0.62068   0.06839   0.00000  Uiso   1.00
C291   C     0.60455   0.63868   0.04951   0.00000  Uiso   1.00
C292   C     0.64104   0.33936   0.08895   0.00000  Uiso   1.00
C293   C     0.52424   0.45753   0.38354   0.00000  Uiso   1.00
C294   C     0.50661   0.39848   0.37978   0.00000  Uiso   1.00
C295   C     0.51118   0.58225   0.03162   0.00000  Uiso   1.00
C296   C     0.48145   0.38035   0.32825   0.00000  Uiso   1.00
C297   C     0.53837   0.47733   0.43673   0.00000  Uiso   1.00
C298   C     0.45918   0.59860   0.01287   0.00000  Uiso   1.00
C299   C     0.59198   0.46462   0.45609   0.00000  Uiso   1.00
C300   C     0.35598   0.65270   0.24731   0.00000  Uiso   1.00
C301   C     0.64381   0.34725   0.25193   0.00000  Uiso   1.00
C302   C     0.35460   0.50401   0.34135   0.00000  Uiso   1.00
H303   H     0.44327   0.63431   0.02801   0.00000  Uiso   1.00
H304   H     0.60094   0.66360   0.25658   0.00000  Uiso   1.00
H305   H     0.49555   0.45787   0.21384   0.00000  Uiso   1.00
H306   H     0.50445   0.54206   0.28624   0.00000  Uiso   1.00
H307   H     0.65096   0.64981   0.12145   0.00000  Uiso   1.00
H308   H     0.34852   0.35309   0.07390   0.00000  Uiso   1.00
H309   H     0.61818   0.37380   0.10076   0.00000  Uiso   1.00
H310   H     0.62882   0.60479   0.03908   0.00000  Uiso   1.00
H311   H     0.59742   0.66140   0.01638   0.00000  Uiso   1.00
H312   H     0.52363   0.65647   0.07532   0.00000  Uiso   1.00
H313   H     0.55238   0.60519   0.10520   0.00000  Uiso   1.00
H314   H     0.61807   0.44060   0.43403   0.00000  Uiso   1.00
H315   H     0.44157   0.39970   0.31989   0.00000  Uiso   1.00
H316   H     0.51242   0.38980   0.30039   0.00000  Uiso   1.00
H317   H     0.47118   0.33738   0.32625   0.00000  Uiso   1.00
H318   H     0.47490   0.38838   0.40689   0.00000  Uiso   1.00
H319   H     0.54470   0.37646   0.38844   0.00000  Uiso   1.00
H320   H     0.49379   0.48107   0.36367   0.00000  Uiso   1.00
H321   H     0.56290   0.46315   0.36297   0.00000  Uiso   1.00
H322   H     0.55452   0.52425   0.10745   0.00000  Uiso   1.00
H323   H     0.42147   0.45695   0.40372   0.00000  Uiso   1.00
H324   H     0.38089   0.45592   0.09104   0.00000  Uiso   1.00
H325   H     0.64358   0.58035   0.39736   0.00000  Uiso   1.00
H326   H     0.35938   0.62296   0.47256   0.00000  Uiso   1.00
H327   H     0.35613   0.44023   0.00251   0.00000  Uiso   1.00
H328   H     0.39878   0.33633   0.24246   0.00000  Uiso   1.00
N329   N     0.48029   0.48550   0.23740   0.00000  Uiso   1.00
N330   N     0.51971   0.51450   0.26261   0.00000  Uiso   1.00
O331   O     0.63052   0.57964   0.25310   0.00000  Uiso   1.00
O332   O     0.36948   0.42036   0.24691   0.00000  Uiso   1.00
O333   O     0.39155   0.57035   0.24502   0.00000  Uiso   1.00
O334   O     0.60845   0.42965   0.25498   0.00000  Uiso   1.00
O335   O     0.63662   0.50730   0.32247   0.00000  Uiso   1.00
O336   O     0.36338   0.49270   0.17753   0.00000  Uiso   1.00
O337   O     0.39764   0.49801   0.31439   0.00000  Uiso   1.00
O338   O     0.60236   0.50199   0.18561   0.00000  Uiso   1.00
Zn339  Zn    0.60366   0.50621   0.25539   0.00000  Uiso   1.00
Zn340  Zn    0.39634   0.49379   0.24461   0.00000  Uiso   1.00
C341   C     0.68164   0.59820   0.24863   0.00000  Uiso   1.00
C342   C     0.97871   0.49579   0.15865   0.00000  Uiso   1.00
C343   C     0.70051   0.51781   0.39344   0.00000  Uiso   1.00
C344   C     0.96949   0.49277   0.10529   0.00000  Uiso   1.00
C345   C     0.70860   0.58768   0.45663   0.00000  Uiso   1.00
C346   C     0.99496   0.46189   0.02487   0.00000  Uiso   1.00
C347   C     0.67963   0.56275   0.41477   0.00000  Uiso   1.00
C348   C     0.67536   0.47037   0.07525   0.00000  Uiso   1.00
C349   C     0.74629   0.49566   0.41657   0.00000  Uiso   1.00
C350   C     0.92025   0.51157   0.08413   0.00000  Uiso   1.00
C351   C     0.78242   0.52512   0.45188   0.00000  Uiso   1.00
C352   C     0.98497   0.40179   0.25115   0.00000  Uiso   1.00
C353   C     0.91049   0.51037   0.03320   0.00000  Uiso   1.00
C354   C     0.76082   0.57009   0.47449   0.00000  Uiso   1.00
C355   C     0.94416   0.47947   0.00427   0.00000  Uiso   1.00
C356   C     0.83854   0.51134   0.46579   0.00000  Uiso   1.00
C357   C     0.86437   0.53467   0.01113   0.00000  Uiso   1.00
C358   C     0.88001   0.62068   0.06839   0.00000  Uiso   1.00
C359   C     0.93789   0.63868   0.04951   0.00000  Uiso   1.00
C360   C     0.97438   0.33936   0.08895   0.00000  Uiso   1.00
C361   C     0.85758   0.45753   0.38354   0.00000  Uiso   1.00
C362   C     0.83994   0.39848   0.37978   0.00000  Uiso   1.00
C363   C     0.84452   0.58225   0.03162   0.00000  Uiso   1.00
C364   C     0.81478   0.38035   0.32825   0.00000  Uiso   1.00
C365   C     0.87170   0.47733   0.43673   0.00000  Uiso   1.00
C366   C     0.79252   0.59860   0.01287   0.00000  Uiso   1.00
C367   C     0.92531   0.46462   0.45609   0.00000  Uiso   1.00
C368   C     0.68931   0.65270   0.24731   0.00000  Uiso   1.00
C369   C     0.97714   0.34725   0.25193   0.00000  Uiso   1.00
C370   C     0.68794   0.50401   0.34135   0.00000  Uiso   1.00
H371   H     0.77660   0.63431   0.02801   0.00000  Uiso   1.00
H372   H     0.93428   0.66360   0.25658   0.00000  Uiso   1.00
H373   H     0.82889   0.45787   0.21384   0.00000  Uiso   1.00
H374   H     0.83779   0.54206   0.28624   0.00000  Uiso   1.00
H375   H     0.98430   0.64981   0.12145   0.00000  Uiso   1.00
H376   H     0.68185   0.35309   0.07390   0.00000  Uiso   1.00
H377   H     0.95151   0.37380   0.10076   0.00000  Uiso   1.00
H378   H     0.96215   0.60479   0.03908   0.00000  Uiso   1.00
H379   H     0.93075   0.66140   0.01638   0.00000  Uiso   1.00
H380   H     0.85696   0.65647   0.07532   0.00000  Uiso   1.00
H381   H     0.88571   0.60519   0.10520   0.00000  Uiso   1.00
H382   H     0.95141   0.44060   0.43403   0.00000  Uiso   1.00
H383   H     0.77490   0.39970   0.31989   0.00000  Uiso   1.00
H384   H     0.84575   0.38980   0.30039   0.00000  Uiso   1.00
H385   H     0.80452   0.33738   0.32625   0.00000  Uiso   1.00
H386   H     0.80823   0.38838   0.40689   0.00000  Uiso   1.00
H387   H     0.87803   0.37646   0.38844   0.00000  Uiso   1.00
H388   H     0.82713   0.48107   0.36367   0.00000  Uiso   1.00
H389   H     0.89623   0.46315   0.36297   0.00000  Uiso   1.00
H390   H     0.88785   0.52425   0.10745   0.00000  Uiso   1.00
H391   H     0.75480   0.45695   0.40372   0.00000  Uiso   1.00
H392   H     0.71422   0.45592   0.09104   0.00000  Uiso   1.00
H393   H     0.97691   0.58035   0.39736   0.00000  Uiso   1.00
H394   H     0.69271   0.62296   0.47256   0.00000  Uiso   1.00
H395   H     0.68946   0.44023   0.00251   0.00000  Uiso   1.00
H396   H     0.73211   0.33633   0.24246   0.00000  Uiso   1.00
N397   N     0.81362   0.48550   0.23740   0.00000  Uiso   1.00
N398   N     0.85305   0.51450   0.26261   0.00000  Uiso   1.00
O399   O     0.96386   0.57964   0.25310   0.00000  Uiso   1.00
O400   O     0.70281   0.42036   0.24691   0.00000  Uiso   1.00
O401   O     0.72488   0.57035   0.24502   0.00000  Uiso   1.00
O402   O     0.94178   0.42965   0.25498   0.00000  Uiso   1.00
O403   O     0.96995   0.50730   0.32247   0.00000  Uiso   1.00
O404   O     0.69672   0.49270   0.17753   0.00000  Uiso   1.00
O405   O     0.73098   0.49801   0.31439   0.00000  Uiso   1.00
O406   O     0.93569   0.50199   0.18561   0.00000  Uiso   1.00
Zn407  Zn    0.93700   0.50621   0.25539   0.00000  Uiso   1.00
Zn408  Zn    0.72967   0.49379   0.24461   0.00000  Uiso   1.00
C409   C     0.01497   0.93153   0.24863   0.00000  Uiso   1.00
C410   C     0.31204   0.82912   0.15865   0.00000  Uiso   1.00
C411   C     0.03385   0.85114   0.39344   0.00000  Uiso   1.00
C412   C     0.30283   0.82610   0.10529   0.00000  Uiso   1.00
C413   C     0.04193   0.92101   0.45663   0.00000  Uiso   1.00
C414   C     0.32829   0.79522   0.02487   0.00000  Uiso   1.00
C415   C     0.01296   0.89608   0.41477   0.00000  Uiso   1.00
C416   C     0.00869   0.80370   0.07525   0.00000  Uiso   1.00
C417   C     0.07963   0.82899   0.41657   0.00000  Uiso   1.00
C418   C     0.25358   0.84490   0.08413   0.00000  Uiso   1.00
C419   C     0.11575   0.85845   0.45188   0.00000  Uiso   1.00
C420   C     0.31831   0.73512   0.25115   0.00000  Uiso   1.00
C421   C     0.24382   0.84370   0.03320   0.00000  Uiso   1.00
C422   C     0.09415   0.90342   0.47449   0.00000  Uiso   1.00
C423   C     0.27749   0.81280   0.00427   0.00000  Uiso   1.00
C424   C     0.17187   0.84467   0.46579   0.00000  Uiso   1.00
C425   C     0.19770   0.86800   0.01113   0.00000  Uiso   1.00
C426   C     0.21334   0.95401   0.06839   0.00000  Uiso   1.00
C427   C     0.27122   0.97202   0.04951   0.00000  Uiso   1.00
C428   C     0.30771   0.67269   0.08895   0.00000  Uiso   1.00
C429   C     0.19091   0.79087   0.38354   0.00000  Uiso   1.00
C430   C     0.17327   0.73181   0.37978   0.00000  Uiso   1.00
C431   C     0.17785   0.91558   0.03162   0.00000  Uiso   1.00
C432   C     0.14812   0.71368   0.32825   0.00000  Uiso   1.00
C433   C     0.20504   0.81067   0.43673   0.00000  Uiso   1.00
C434   C     0.12585   0.93193   0.01287   0.00000  Uiso   1.00
C435   C     0.25865   0.79795   0.45609   0.00000  Uiso   1.00
C436   C     0.02265   0.98603   0.24731   0.00000  Uiso   1.00
C437   C     0.31047   0.68058   0.25193   0.00000  Uiso   1.00
C438   C     0.02127   0.83734   0.34135   0.00000  Uiso   1.00
H439   H     0.10994   0.96764   0.02801   0.00000  Uiso   1.00
H440   H     0.26761   0.99693   0.25658   0.00000  Uiso   1.00
H441   H     0.16222   0.79121   0.21384   0.00000  Uiso   1.00
H442   H     0.17112   0.87539   0.28624   0.00000  Uiso   1.00
H443   H     0.31763   0.98314   0.12145   0.00000  Uiso   1.00
H444   H     0.01518   0.68642   0.07390   0.00000  Uiso   1.00
H445   H     0.28485   0.70714   0.10076   0.00000  Uiso   1.00
H446   H     0.29548   0.93812   0.03908   0.00000  Uiso   1.00
H447   H     0.26408   0.99474   0.01638   0.00000  Uiso   1.00
H448   H     0.19029   0.98980   0.07532   0.00000  Uiso   1.00
H449   H     0.21905   0.93852   0.10520   0.00000  Uiso   1.00
H450   H     0.28474   0.77393   0.43403   0.00000  Uiso   1.00
H451   H     0.10823   0.73303   0.31989   0.00000  Uiso   1.00
H452   H     0.17908   0.72314   0.30039   0.00000  Uiso   1.00
H453   H     0.13785   0.67071   0.32625   0.00000  Uiso   1.00
H454   H     0.14157   0.72171   0.40689   0.00000  Uiso   1.00
H455   H     0.21136   0.70979   0.38844   0.00000  Uiso   1.00
H456   H     0.16046   0.81440   0.36367   0.00000  Uiso   1.00
H457   H     0.22957   0.79648   0.36297   0.00000  Uiso   1.00
H458   H     0.22119   0.85759   0.10745   0.00000  Uiso   1.00
H459   H     0.08813   0.79029   0.40372   0.00000  Uiso   1.00
H460   H     0.04755   0.78925   0.09104   0.00000  Uiso   1.00
H461   H     0.31025   0.91368   0.39736   0.00000  Uiso   1.00
H462   H     0.02604   0.95629   0.47256   0.00000  Uiso   1.00
H463   H     0.02280   0.77356   0.00251   0.00000  Uiso   1.00
H464   H     0.06545   0.66967   0.24246   0.00000  Uiso   1.00
N465   N     0.14695   0.81883   0.23740   0.00000  Uiso   1.00
N466   N     0.18638   0.84784   0.26261   0.00000  Uiso   1.00
O467   O     0.29719   0.91298   0.25310   0.00000  Uiso   1.00
O468   O     0.03614   0.75369   0.24691   0.00000  Uiso   1.00
O469   O     0.05822   0.90368   0.24502   0.00000  Uiso   1.00
O470   O     0.27512   0.76298   0.25498   0.00000  Uiso   1.00
O471   O     0.30328   0.84063   0.32247   0.00000  Uiso   1.00
O472   O     0.03005   0.82603   0.17753   0.00000  Uiso   1.00
O473   O     0.06431   0.83134   0.31439   0.00000  Uiso   1.00
O474   O     0.26902   0.83533   0.18561   0.00000  Uiso   1.00
Zn475  Zn    0.27033   0.83954   0.25539   0.00000  Uiso   1.00
Zn476  Zn    0.06300   0.82713   0.24461   0.00000  Uiso   1.00
C477   C     0.34830   0.93153   0.24863   0.00000  Uiso   1.00
C478   C     0.64538   0.82912   0.15865   0.00000  Uiso   1.00
C479   C     0.36718   0.85114   0.39344   0.00000  Uiso   1.00
C480   C     0.63616   0.82610   0.10529   0.00000  Uiso   1.00
C481   C     0.37526   0.92101   0.45663   0.00000  Uiso   1.00
C482   C     0.66162   0.79522   0.02487   0.00000  Uiso   1.00
C483   C     0.34629   0.89608   0.41477   0.00000  Uiso   1.00
C484   C     0.34203   0.80370   0.07525   0.00000  Uiso   1.00
C485   C     0.41296   0.82899   0.41657   0.00000  Uiso   1.00
C486   C     0.58691   0.84490   0.08413   0.00000  Uiso   1.00
C487   C     0.44908   0.85845   0.45188   0.00000  Uiso   1.00
C488   C     0.65164   0.73512   0.25115   0.00000  Uiso   1.00
C489   C     0.57716   0.84370   0.03320   0.00000  Uiso   1.00
C490   C     0.42749   0.90342   0.47449   0.00000  Uiso   1.00
C491   C     0.61083   0.81280   0.00427   0.00000  Uiso   1.00
C492   C     0.50520   0.84467   0.46579   0.00000  Uiso   1.00
C493   C     0.53104   0.86800   0.01113   0.00000  Uiso   1.00
C494   C     0.54668   0.95401   0.06839   0.00000  Uiso   1.00
C495   C     0.60455   0.97202   0.04951   0.00000  Uiso   1.00
C496   C     0.64104   0.67269   0.08895   0.00000  Uiso   1.00
C497   C     0.52424   0.79087   0.38354   0.00000  Uiso   1.00
C498   C     0.50661   0.73181   0.37978   0.00000  Uiso   1.00
C499   C     0.51118   0.91558   0.03162   0.00000  Uiso   1.00
C500   C     0.48145   0.71368   0.32825   0.00000  Uiso   1.00
C501   C     0.53837   0.81067   0.43673   0.00000  Uiso   1.00
C502   C     0.45918   0.93193   0.01287   0.00000  Uiso   1.00
C503   C     0.59198   0.79795   0.45609   0.00000  Uiso   1.00
C504   C     0.35598   0.98603   0.24731   0.00000  Uiso   1.00
C505   C     0.64381   0.68058   0.25193   0.00000  Uiso   1.00
C506   C     0.35460   0.83734   0.34135   0.00000  Uiso   1.00
H507   H     0.44327   0.96764   0.02801   0.00000  Uiso   1.00
H508   H     0.60094   0.99693   0.25658   0.00000  Uiso   1.00
H509   H     0.49555   0.79121   0.21384   0.00000  Uiso   1.00
H510   H     0.50445   0.87539   0.28624   0.00000  Uiso   1.00
H511   H     0.65096   0.98314   0.12145   0.00000  Uiso   1.00
H512   H     0.34852   0.68642   0.07390   0.00000  Uiso   1.00
H513   H     0.61818   0.70714   0.10076   0.00000  Uiso   1.00
H514   H     0.62882   0.93812   0.03908   0.00000  Uiso   1.00
H515   H     0.59742   0.99474   0.01638   0.00000  Uiso   1.00
H516   H     0.52363   0.98980   0.07532   0.00000  Uiso   1.00
H517   H     0.55238   0.93852   0.10520   0.00000  Uiso   1.00
H518   H     0.61807   0.77393   0.43403   0.00000  Uiso   1.00
H519   H     0.44157   0.73303   0.31989   0.00000  Uiso   1.00
H520   H     0.51242   0.72314   0.30039   0.00000  Uiso   1.00
H521   H     0.47118   0.67071   0.32625   0.00000  Uiso   1.00
H522   H     0.47490   0.72171   0.40689   0.00000  Uiso   1.00
H523   H     0.54470   0.70979   0.38844   0.00000  Uiso   1.00
H524   H     0.49379   0.81440   0.36367   0.00000  Uiso   1.00
H525   H     0.56290   0.79648   0.36297   0.00000  Uiso   1.00
H526   H     0.55452   0.85759   0.10745   0.00000  Uiso   1.00
H527   H     0.42147   0.79029   0.40372   0.00000  Uiso   1.00
H528   H     0.38089   0.78925   0.09104   0.00000  Uiso   1.00
H529   H     0.64358   0.91368   0.39736   0.00000  Uiso   1.00
H530   H     0.35938   0.95629   0.47256   0.00000  Uiso   1.00
H531   H     0.35613   0.77356   0.00251   0.00000  Uiso   1.00
H532   H     0.39878   0.66967   0.24246   0.00000  Uiso   1.00
N533   N     0.48029   0.81883   0.23740   0.00000  Uiso   1.00
N534   N     0.51971   0.84784   0.26261   0.00000  Uiso   1.00
O535   O     0.63052   0.91298   0.25310   0.00000  Uiso   1.00
O536   O     0.36948   0.75369   0.24691   0.00000  Uiso   1.00
O537   O     0.39155   0.90368   0.24502   0.00000  Uiso   1.00
O538   O     0.60845   0.76298   0.25498   0.00000  Uiso   1.00
O539   O     0.63662   0.84063   0.32247   0.00000  Uiso   1.00
O540   O     0.36338   0.82603   0.17753   0.00000  Uiso   1.00
O541   O     0.39764   0.83134   0.31439   0.00000  Uiso   1.00
O542   O     0.60236   0.83533   0.18561   0.00000  Uiso   1.00
Zn543  Zn    0.60366   0.83954   0.25539   0.00000  Uiso   1.00
Zn544  Zn    0.39634   0.82713   0.24461   0.00000  Uiso   1.00
C545   C     0.68164   0.93153   0.24863   0.00000  Uiso   1.00
C546   C     0.97871   0.82912   0.15865   0.00000  Uiso   1.00
C547   C     0.70051   0.85114   0.39344   0.00000  Uiso   1.00
C548   C     0.96949   0.82610   0.10529   0.00000  Uiso   1.00
C549   C     0.70860   0.92101   0.45663   0.00000  Uiso   1.00
C550   C     0.99496   0.79522   0.02487   0.00000  Uiso   1.00
C551   C     0.67963   0.89608   0.41477   0.00000  Uiso   1.00
C552   C     0.67536   0.80370   0.07525   0.00000  Uiso   1.00
C553   C     0.74629   0.82899   0.41657   0.00000  Uiso   1.00
C554   C     0.92025   0.84490   0.08413   0.00000  Uiso   1.00
C555   C     0.78242   0.85845   0.45188   0.00000  Uiso   1.00
C556   C     0.98497   0.73512   0.25115   0.00000  Uiso   1.00
C557   C     0.91049   0.84370   0.03320   0.00000  Uiso   1.00
C558   C     0.76082   0.90342   0.47449   0.00000  Uiso   1.00
C559   C     0.94416   0.81280   0.00427   0.00000  Uiso   1.00
C560   C     0.83854   0.84467   0.46579   0.00000  Uiso   1.00
C561   C     0.86437   0.86800   0.01113   0.00000  Uiso   1.00
C562   C     0.88001   0.95401   0.06839   0.00000  Uiso   1.00
C563   C     0.93789   0.97202   0.04951   0.00000  Uiso   1.00
C564   C     0.97438   0.67269   0.08895   0.00000  Uiso   1.00
C565   C     0.85758   0.79087   0.38354   0.00000  Uiso   1.00
C566   C     0.83994   0.73181   0.37978   0.00000  Uiso   1.00
C567   C     0.84452   0.91558   0.03162   0.00000  Uiso   1.00
C568   C     0.81478   0.71368   0.32825   0.00000  Uiso   1.00
C569   C     0.87170   0.81067   0.43673   0.00000  Uiso   1.00
C570   C     0.79252   0.93193   0.01287   0.00000  Uiso   1.00
C571   C     0.92531   0.79795   0.45609   0.00000  Uiso   1.00
C572   C     0.68931   0.98603   0.24731   0.00000  Uiso   1.00
C573   C     0.97714   0.68058   0.25193   0.00000  Uiso   1.00
C574   C     0.68794   0.83734   0.34135   0.00000  Uiso   1.00
H575   H     0.77660   0.96764   0.02801   0.00000  Uiso   1.00
H576   H     0.93428   0.99693   0.25658   0.00000  Uiso   1.00
H577   H     0.82889   0.79121   0.21384   0.00000  Uiso   1.00
H578   H     0.83779   0.87539   0.28624   0.00000  Uiso   1.00
H579   H     0.98430   0.98314   0.12145   0.00000  Uiso   1.00
H580   H     0.68185   0.68642   0.07390   0.00000  Uiso   1.00
H581   H     0.95151   0.70714   0.10076   0.00000  Uiso   1.00
H582   H     0.96215   0.93812   0.03908   0.00000  Uiso   1.00
H583   H     0.93075   0.99474   0.01638   0.00000  Uiso   1.00
H584   H     0.85696   0.98980   0.07532   0.00000  Uiso   1.00
H585   H     0.88571   0.93852   0.10520   0.00000  Uiso   1.00
H586   H     0.95141   0.77393   0.43403   0.00000  Uiso   1.00
H587   H     0.77490   0.73303   0.31989   0.00000  Uiso   1.00
H588   H     0.84575   0.72314   0.30039   0.00000  Uiso   1.00
H589   H     0.80452   0.67071   0.32625   0.00000  Uiso   1.00
H590   H     0.80823   0.72171   0.40689   0.00000  Uiso   1.00
H591   H     0.87803   0.70979   0.38844   0.00000  Uiso   1.00
H592   H     0.82713   0.81440   0.36367   0.00000  Uiso   1.00
H593   H     0.89623   0.79648   0.36297   0.00000  Uiso   1.00
H594   H     0.88785   0.85759   0.10745   0.00000  Uiso   1.00
H595   H     0.75480   0.79029   0.40372   0.00000  Uiso   1.00
H596   H     0.71422   0.78925   0.09104   0.00000  Uiso   1.00
H597   H     0.97691   0.91368   0.39736   0.00000  Uiso   1.00
H598   H     0.69271   0.95629   0.47256   0.00000  Uiso   1.00
H599   H     0.68946   0.77356   0.00251   0.00000  Uiso   1.00
H600   H     0.73211   0.66967   0.24246   0.00000  Uiso   1.00
N601   N     0.81362   0.81883   0.23740   0.00000  Uiso   1.00
N602   N     0.85305   0.84784   0.26261   0.00000  Uiso   1.00
O603   O     0.96386   0.91298   0.25310   0.00000  Uiso   1.00
O604   O     0.70281   0.75369   0.24691   0.00000  Uiso   1.00
O605   O     0.72488   0.90368   0.24502   0.00000  Uiso   1.00
O606   O     0.94178   0.76298   0.25498   0.00000  Uiso   1.00
O607   O     0.96995   0.84063   0.32247   0.00000  Uiso   1.00
O608   O     0.69672   0.82603   0.17753   0.00000  Uiso   1.00
O609   O     0.73098   0.83134   0.31439   0.00000  Uiso   1.00
O610   O     0.93569   0.83533   0.18561   0.00000  Uiso   1.00
Zn611  Zn    0.93700   0.83954   0.25539   0.00000  Uiso   1.00
Zn612  Zn    0.72967   0.82713   0.24461   0.00000  Uiso   1.00
C613   C     0.01497   0.26486   0.74863   0.00000  Uiso   1.00
C614   C     0.31204   0.16245   0.65865   0.00000  Uiso   1.00
C615   C     0.03385   0.18448   0.89344   0.00000  Uiso   1.00
C616   C     0.30283   0.15943   0.60529   0.00000  Uiso   1.00
C617   C     0.04193   0.25435   0.95663   0.00000  Uiso   1.00
C618   C     0.32829   0.12856   0.52487   0.00000  Uiso   1.00
C619   C     0.01296   0.22942   0.91477   0.00000  Uiso   1.00
C620   C     0.00869   0.13704   0.57525   0.00000  Uiso   1.00
C621   C     0.07963   0.16232   0.91657   0.00000  Uiso   1.00
C622   C     0.25358   0.17823   0.58413   0.00000  Uiso   1.00
C623   C     0.11575   0.19179   0.95188   0.00000  Uiso   1.00
C624   C     0.31831   0.06846   0.75115   0.00000  Uiso   1.00
C625   C     0.24382   0.17704   0.53320   0.00000  Uiso   1.00
C626   C     0.09415   0.23675   0.97449   0.00000  Uiso   1.00
C627   C     0.27749   0.14614   0.50427   0.00000  Uiso   1.00
C628   C     0.17187   0.17800   0.96579   0.00000  Uiso   1.00
C629   C     0.19770   0.20134   0.51113   0.00000  Uiso   1.00
C630   C     0.21334   0.28734   0.56839   0.00000  Uiso   1.00
C631   C     0.27122   0.30535   0.54951   0.00000  Uiso   1.00
C632   C     0.30771   0.00603   0.58895   0.00000  Uiso   1.00
C633   C     0.19091   0.12420   0.88354   0.00000  Uiso   1.00
C634   C     0.17327   0.06514   0.87978   0.00000  Uiso   1.00
C635   C     0.17785   0.24891   0.53162   0.00000  Uiso   1.00
C636   C     0.14812   0.04701   0.82825   0.00000  Uiso   1.00
C637   C     0.20504   0.14400   0.93673   0.00000  Uiso   1.00
C638   C     0.12585   0.26527   0.51287   0.00000  Uiso   1.00
C639   C     0.25865   0.13128   0.95609   0.00000  Uiso   1.00
C640   C     0.02265   0.31936   0.74731   0.00000  Uiso   1.00
C641   C     0.31047   0.01391   0.75193   0.00000  Uiso   1.00
C642   C     0.02127   0.17068   0.84135   0.00000  Uiso   1.00
H643   H     0.10994   0.30097   0.52801   0.00000  Uiso   1.00
H644   H     0.26761   0.33026   0.75658   0.00000  Uiso   1.00
H645   H     0.16222   0.12454   0.71384   0.00000  Uiso   1.00
H646   H     0.17112   0.20872   0.78624   0.00000  Uiso   1.00
H647   H     0.31763   0.31647   0.62145   0.00000  Uiso   1.00
H648   H     0.01518   0.01975   0.57390   0.00000  Uiso   1.00
H649   H     0.28485   0.04047   0.60076   0.00000  Uiso   1.00
H650   H     0.29548   0.27146   0.53908   0.00000  Uiso   1.00
H651   H     0.26408   0.32807   0.51638   0.00000  Uiso   1.00
H652   H     0.19029   0.32313   0.57532   0.00000  Uiso   1.00
H653   H     0.21905   0.27186   0.60520   0.00000  Uiso   1.00
H654   H     0.28474   0.10727   0.93403   0.00000  Uiso   1.00
H655   H     0.10823   0.06636   0.81989   0.00000  Uiso   1.00
H656   H     0.17908   0.05647   0.80039   0.00000  Uiso   1.00
H657   H     0.13785   0.00405   0.82625   0.00000  Uiso   1.00
H658   H     0.14157   0.05504   0.90689   0.00000  Uiso   1.00
H659   H     0.21136   0.04313   0.88844   0.00000  Uiso   1.00
H660   H     0.16046   0.14774   0.86367   0.00000  Uiso   1.00
H661   H     0.22957   0.12981   0.86297   0.00000  Uiso   1.00
H662   H     0.22119   0.19092   0.60745   0.00000  Uiso   1.00
H663   H     0.08813   0.12362   0.90372   0.00000  Uiso   1.00
H664   H     0.04755   0.12258   0.59104   0.00000  Uiso   1.00
H665   H     0.31025   0.24701   0.89736   0.00000  Uiso   1.00
H666   H     0.02604   0.28962   0.97256   0.00000  Uiso   1.00
H667   H     0.02280   0.10689   0.50251   0.00000  Uiso   1.00
H668   H     0.06545   0.00300   0.74246   0.00000  Uiso   1.00
N669   N     0.14695   0.15216   0.73740   0.00000  Uiso   1.00
N670   N     0.18638   0.18117   0.76261   0.00000  Uiso   1.00
O671   O     0.29719   0.24631   0.75310   0.00000  Uiso   1.00
O672   O     0.03614   0.08702   0.74691   0.00000  Uiso   1.00
O673   O     0.05822   0.23702   0.74502   0.00000  Uiso   1.00
O674   O     0.27512   0.09632   0.75498   0.00000  Uiso   1.00
O675   O     0.30328   0.17397   0.82247   0.00000  Uiso   1.00
O676   O     0.03005   0.15937   0.67753   0.00000  Uiso   1.00
O677   O     0.06431   0.16467   0.81439   0.00000  Uiso   1.00
O678   O     0.26902   0.16866   0.68561   0.00000  Uiso   1.00
Zn679  Zn    0.27033   0.17287   0.75539   0.00000  Uiso   1.00
Zn680  Zn    0.06300   0.16046   0.74461   0.00000  Uiso   1.00
C681   C     0.34830   0.26486   0.74863   0.00000  Uiso   1.00
C682   C     0.64538   0.16245   0.65865   0.00000  Uiso   1.00
C683   C     0.36718   0.18448   0.89344   0.00000  Uiso   1.00
C684   C     0.63616   0.15943   0.60529   0.00000  Uiso   1.00
C685   C     0.37526   0.25435   0.95663   0.00000  Uiso   1.00
C686   C     0.66162   0.12856   0.52487   0.00000  Uiso   1.00
C687   C     0.34629   0.22942   0.91477   0.00000  Uiso   1.00
C688   C     0.34203   0.13704   0.57525   0.00000  Uiso   1.00
C689   C     0.41296   0.16232   0.91657   0.00000  Uiso   1.00
C690   C     0.58691   0.17823   0.58413   0.00000  Uiso   1.00
C691   C     0.44908   0.19179   0.95188   0.00000  Uiso   1.00
C692   C     0.65164   0.06846   0.75115   0.00000  Uiso   1.00
C693   C     0.57716   0.17704   0.53320   0.00000  Uiso   1.00
C694   C     0.42749   0.23675   0.97449   0.00000  Uiso   1.00
C695   C     0.61083   0.14614   0.50427   0.00000  Uiso   1.00
C696   C     0.50520   0.17800   0.96579   0.00000  Uiso   1.00
C697   C     0.53104   0.20134   0.51113   0.00000  Uiso   1.00
C698   C     0.54668   0.28734   0.56839   0.00000  Uiso   1.00
C699   C     0.60455   0.30535   0.54951   0.00000  Uiso   1.00
C700   C     0.64104   0.00603   0.58895   0.00000  Uiso   1.00
C701   C     0.52424   0.12420   0.88354   0.00000  Uiso   1.00
C702   C     0.50661   0.06514   0.87978   0.00000  Uiso   1.00
C703   C     0.51118   0.24891   0.53162   0.00000  Uiso   1.00
C704   C     0.48145   0.04701   0.82825   0.00000  Uiso   1.00
C705   C     0.53837   0.14400   0.93673   0.00000  Uiso   1.00
C706   C     0.45918   0.26527   0.51287   0.00000  Uiso   1.00
C707   C     0.59198   0.13128   0.95609   0.00000  Uiso   1.00
C708   C     0.35598   0.31936   0.74731   0.00000  Uiso   1.00
C709   C     0.64381   0.01391   0.75193   0.00000  Uiso   1.00
C710   C     0.35460   0.17068   0.84135   0.00000  Uiso   1.00
H711   H     0.44327   0.30097   0.52801   0.00000  Uiso   1.00
H712   H     0.60094   0.33026   0.75658   0.00000  Uiso   1.00
H713   H     0.49555   0.12454   0.71384   0.00000  Uiso   1.00
H714   H     0.50445   0.20872   0.78624   0.00000  Uiso   1.00
H715   H     0.65096   0.31647   0.62145   0.00000  Uiso   1.00
H716   H     0.34852   0.01975   0.57390   0.00000  Uiso   1.00
H717   H     0.61818   0.04047   0.60076   0.00000  Uiso   1.00
H718   H     0.62882   0.27146   0.53908   0.00000  Uiso   1.00
H719   H     0.59742   0.32807   0.51638   0.00000  Uiso   1.00
H720   H     0.52363   0.32313   0.57532   0.00000  Uiso   1.00
H721   H     0.55238   0.27186   0.60520   0.00000  Uiso   1.00
H722   H     0.61807   0.10727   0.93403   0.00000  Uiso   1.00
H723   H     0.44157   0.06636   0.81989   0.00000  Uiso   1.00
H724   H     0.51242   0.05647   0.80039   0.00000  Uiso   1.00
H725   H     0.47118   0.00405   0.82625   0.00000  Uiso   1.00
H726   H     0.47490   0.05504   0.90689   0.00000  Uiso   1.00
H727   H     0.54470   0.04313   0.88844   0.00000  Uiso   1.00
H728   H     0.49379   0.14774   0.86367   0.00000  Uiso   1.00
H729   H     0.56290   0.12981   0.86297   0.00000  Uiso   1.00
H730   H     0.55452   0.19092   0.60745   0.00000  Uiso   1.00
H731   H     0.42147   0.12362   0.90372   0.00000  Uiso   1.00
H732   H     0.38089   0.12258   0.59104   0.00000  Uiso   1.00
H733   H     0.64358   0.24701   0.89736   0.00000  Uiso   1.00
H734   H     0.35938   0.28962   0.97256   0.00000  Uiso   1.00
H735   H     0.35613   0.10689   0.50251   0.00000  Uiso   1.00
H736   H     0.39878   0.00300   0.74246   0.00000  Uiso   1.00
N737   N     0.48029   0.15216   0.73740   0.00000  Uiso   1.00
N738   N     0.51971   0.18117   0.76261   0.00000  Uiso   1.00
O739   O     0.63052   0.24631   0.75310   0.00000  Uiso   1.00
O740   O     0.36948   0.08702   0.74691   0.00000  Uiso   1.00
O741   O     0.39155   0.23702   0.74502   0.00000  Uiso   1.00
O742   O     0.60845   0.09632   0.75498   0.00000  Uiso   1.00
O743   O     0.63662   0.17397   0.82247   0.00000  Uiso   1.00
O744   O     0.36338   0.15937   0.67753   0.00000  Uiso   1.00
O745   O     0.39764   0.16467   0.81439   0.00000  Uiso   1.00
O746   O     0.60236   0.16866   0.68561   0.00000  Uiso   1.00
Zn747  Zn    0.60366   0.17287   0.75539   0.00000  Uiso   1.00
Zn748  Zn    0.39634   0.16046   0.74461   0.00000  Uiso   1.00
C749   C     0.68164   0.26486   0.74863   0.00000  Uiso   1.00
C750   C     0.97871   0.16245   0.65865   0.00000  Uiso   1.00
C751   C     0.70051   0.18448   0.89344   0.00000  Uiso   1.00
C752   C     0.96949   0.15943   0.60529   0.00000  Uiso   1.00
C753   C     0.70860   0.25435   0.95663   0.00000  Uiso   1.00
C754   C     0.99496   0.12856   0.52487   0.00000  Uiso   1.00
C755   C     0.67963   0.22942   0.91477   0.00000  Uiso   1.00
C756   C     0.67536   0.13704   0.57525   0.00000  Uiso   1.00
C757   C     0.74629   0.16232   0.91657   0.00000  Uiso   1.00
C758   C     0.92025   0.17823   0.58413   0.00000  Uiso   1.00
C759   C     0.78242   0.19179   0.95188   0.00000  Uiso   1.00
C760   C     0.98497   0.06846   0.75115   0.00000  Uiso   1.00
C761   C     0.91049   0.17704   0.53320   0.00000  Uiso   1.00
C762   C     0.76082   0.23675   0.97449   0.00000  Uiso   1.00
C763   C     0.94416   0.14614   0.50427   0.00000  Uiso   1.00
C764   C     0.83854   0.17800   0.96579   0.00000  Uiso   1.00
C765   C     0.86437   0.20134   0.51113   0.00000  Uiso   1.00
C766   C     0.88001   0.28734   0.56839   0.00000  Uiso   1.00
C767   C     0.93789   0.30535   0.54951   0.00000  Uiso   1.00
C768   C     0.97438   0.00603   0.58895   0.00000  Uiso   1.00
C769   C     0.85758   0.12420   0.88354   0.00000  Uiso   1.00
C770   C     0.83994   0.06514   0.87978   0.00000  Uiso   1.00
C771   C     0.84452   0.24891   0.53162   0.00000  Uiso   1.00
C772   C     0.81478   0.04701   0.82825   0.00000  Uiso   1.00
C773   C     0.87170   0.14400   0.93673   0.00000  Uiso   1.00
C774   C     0.79252   0.26527   0.51287   0.00000  Uiso   1.00
C775   C     0.92531   0.13128   0.95609   0.00000  Uiso   1.00
C776   C     0.68931   0.31936   0.74731   0.00000  Uiso   1.00
C777   C     0.97714   0.01391   0.75193   0.00000  Uiso   1.00
C778   C     0.68794   0.17068   0.84135   0.00000  Uiso   1.00
H779   H     0.77660   0.30097   0.52801   0.00000  Uiso   1.00
H780   H     0.93428   0.33026   0.75658   0.00000  Uiso   1.00
H781   H     0.82889   0.12454   0.71384   0.00000  Uiso   1.00
H782   H     0.83779   0.20872   0.78624   0.00000  Uiso   1.00
H783   H     0.98430   0.31647   0.62145   0.00000  Uiso   1.00
H784   H     0.68185   0.01975   0.57390   0.00000  Uiso   1.00
H785   H     0.95151   0.04047   0.60076   0.00000  Uiso   1.00
H786   H     0.96215   0.27146   0.53908   0.00000  Uiso   1.00
H787   H     0.93075   0.32807   0.51638   0.00000  Uiso   1.00
H788   H     0.85696   0.32313   0.57532   0.00000  Uiso   1.00
H789   H     0.88571   0.27186   0.60520   0.00000  Uiso   1.00
H790   H     0.95141   0.10727   0.93403   0.00000  Uiso   1.00
H791   H     0.77490   0.06636   0.81989   0.00000  Uiso   1.00
H792   H     0.84575   0.05647   0.80039   0.00000  Uiso   1.00
H793   H     0.80452   0.00405   0.82625   0.00000  Uiso   1.00
H794   H     0.80823   0.05504   0.90689   0.00000  Uiso   1.00
H795   H     0.87803   0.04313   0.88844   0.00000  Uiso   1.00
H796   H     0.82713   0.14774   0.86367   0.00000  Uiso   1.00
H797   H     0.89623   0.12981   0.86297   0.00000  Uiso   1.00
H798   H     0.88785   0.19092   0.60745   0.00000  Uiso   1.00
H799   H     0.75480   0.12362   0.90372   0.00000  Uiso   1.00
H800   H     0.71422   0.12258   0.59104   0.00000  Uiso   1.00
H801   H     0.97691   0.24701   0.89736   0.00000  Uiso   1.00
H802   H     0.69271   0.28962   0.97256   0.00000  Uiso   1.00
H803   H     0.68946   0.10689   0.50251   0.00000  Uiso   1.00
H804   H     0.73211   0.00300   0.74246   0.00000  Uiso   1.00
N805   N     0.81362   0.15216   0.73740   0.00000  Uiso   1.00
N806   N     0.85305   0.18117   0.76261   0.00000  Uiso   1.00
O807   O     0.96386   0.24631   0.75310   0.00000  Uiso   1.00
O808   O     0.70281   0.08702   0.74691   0.00000  Uiso   1.00
O809   O     0.72488   0.23702   0.74502   0.00000  Uiso   1.00
O810   O     0.94178   0.09632   0.75498   0.00000  Uiso   1.00
O811   O     0.96995   0.17397   0.82247   0.00000  Uiso   1.00
O812   O     0.69672   0.15937   0.67753   0.00000  Uiso   1.00
O813   O     0.73098   0.16467   0.81439   0.00000  Uiso   1.00
O814   O     0.93569   0.16866   0.68561   0.00000  Uiso   1.00
Zn815  Zn    0.93700   0.17287   0.75539   0.00000  Uiso   1.00
Zn816  Zn    0.72967   0.16046   0.74461   0.00000  Uiso   1.00
C817   C     0.01497   0.59820   0.74863   0.00000  Uiso   1.00
C818   C     0.31204   0.49579   0.65865   0.00000  Uiso   1.00
C819   C     0.03385   0.51781   0.89344   0.00000  Uiso   1.00
C820   C     0.30283   0.49277   0.60529   0.00000  Uiso   1.00
C821   C     0.04193   0.58768   0.95663   0.00000  Uiso   1.00
C822   C     0.32829   0.46189   0.52487   0.00000  Uiso   1.00
C823   C     0.01296   0.56275   0.91477   0.00000  Uiso   1.00
C824   C     0.00869   0.47037   0.57525   0.00000  Uiso   1.00
C825   C     0.07963   0.49566   0.91657   0.00000  Uiso   1.00
C826   C     0.25358   0.51157   0.58413   0.00000  Uiso   1.00
C827   C     0.11575   0.52512   0.95188   0.00000  Uiso   1.00
C828   C     0.31831   0.40179   0.75115   0.00000  Uiso   1.00
C829   C     0.24382   0.51037   0.53320   0.00000  Uiso   1.00
C830   C     0.09415   0.57009   0.97449   0.00000  Uiso   1.00
C831   C     0.27749   0.47947   0.50427   0.00000  Uiso   1.00
C832   C     0.17187   0.51134   0.96579   0.00000  Uiso   1.00
C833   C     0.19770   0.53467   0.51113   0.00000  Uiso   1.00
C834   C     0.21334   0.62068   0.56839   0.00000  Uiso   1.00
C835   C     0.27122   0.63868   0.54951   0.00000  Uiso   1.00
C836   C     0.30771   0.33936   0.58895   0.00000  Uiso   1.00
C837   C     0.19091   0.45753   0.88354   0.00000  Uiso   1.00
C838   C     0.17327   0.39848   0.87978   0.00000  Uiso   1.00
C839   C     0.17785   0.58225   0.53162   0.00000  Uiso   1.00
C840   C     0.14812   0.38035   0.82825   0.00000  Uiso   1.00
C841   C     0.20504   0.47733   0.93673   0.00000  Uiso   1.00
C842   C     0.12585   0.59860   0.51287   0.00000  Uiso   1.00
C843   C     0.25865   0.46462   0.95609   0.00000  Uiso   1.00
C844   C     0.02265   0.65270   0.74731   0.00000  Uiso   1.00
C845   C     0.31047   0.34725   0.75193   0.00000  Uiso   1.00
C846   C     0.02127   0.50401   0.84135   0.00000  Uiso   1.00
H847   H     0.10994   0.63431   0.52801   0.00000  Uiso   1.00
H848   H     0.26761   0.66360   0.75658   0.00000  Uiso   1.00
H849   H     0.16222   0.45787   0.71384   0.00000  Uiso   1.00
H850   H     0.17112   0.54206   0.78624   0.00000  Uiso   1.00
H851   H     0.31763   0.64981   0.62145   0.00000  Uiso   1.00
H852   H     0.01518   0.35309   0.57390   0.00000  Uiso   1.00
H853   H     0.28485   0.37380   0.60076   0.00000  Uiso   1.00
H854   H     0.29548   0.60479   0.53908   0.00000  Uiso   1.00
H855   H     0.26408   0.66140   0.51638   0.00000  Uiso   1.00
H856   H     0.19029   0.65647   0.57532   0.00000  Uiso   1.00
H857   H     0.21905   0.60519   0.60520   0.00000  Uiso   1.00
H858   H     0.28474   0.44060   0.93403   0.00000  Uiso   1.00
H859   H     0.10823   0.39970   0.81989   0.00000  Uiso   1.00
H860   H     0.17908   0.38980   0.80039   0.00000  Uiso   1.00
H861   H     0.13785   0.33738   0.82625   0.00000  Uiso   1.00
H862   H     0.14157   0.38838   0.90689   0.00000  Uiso   1.00
H863   H     0.21136   0.37646   0.88844   0.00000  Uiso   1.00
H864   H     0.16046   0.48107   0.86367   0.00000  Uiso   1.00
H865   H     0.22957   0.46315   0.86297   0.00000  Uiso   1.00
H866   H     0.22119   0.52425   0.60745   0.00000  Uiso   1.00
H867   H     0.08813   0.45695   0.90372   0.00000  Uiso   1.00
H868   H     0.04755   0.45592   0.59104   0.00000  Uiso   1.00
H869   H     0.31025   0.58035   0.89736   0.00000  Uiso   1.00
H870   H     0.02604   0.62296   0.97256   0.00000  Uiso   1.00
H871   H     0.02280   0.44023   0.50251   0.00000  Uiso   1.00
H872   H     0.06545   0.33633   0.74246   0.00000  Uiso   1.00
N873   N     0.14695   0.48550   0.73740   0.00000  Uiso   1.00
N874   N     0.18638   0.51450   0.76261   0.00000  Uiso   1.00
O875   O     0.29719   0.57964   0.75310   0.00000  Uiso   1.00
O876   O     0.03614   0.42036   0.74691   0.00000  Uiso   1.00
O877   O     0.05822   0.57035   0.74502   0.00000  Uiso   1.00
O878   O     0.27512   0.42965   0.75498   0.00000  Uiso   1.00
O879   O     0.30328   0.50730   0.82247   0.00000  Uiso   1.00
O880   O     0.03005   0.49270   0.67753   0.00000  Uiso   1.00
O881   O     0.06431   0.49801   0.81439   0.00000  Uiso   1.00
O882   O     0.26902   0.50199   0.68561   0.00000  Uiso   1.00
Zn883  Zn    0.27033   0.50621   0.75539   0.00000  Uiso   1.00
Zn884  Zn    0.06300   0.49379   0.74461   0.00000  Uiso   1.00
C885   C     0.34830   0.59820   0.74863   0.00000  Uiso   1.00
C886   C     0.64538   0.49579   0.65865   0.00000  Uiso   1.00
C887   C     0.36718   0.51781   0.89344   0.00000  Uiso   1.00
C888   C     0.63616   0.49277   0.60529   0.00000  Uiso   1.00
C889   C     0.37526   0.58768   0.95663   0.00000  Uiso   1.00
C890   C     0.66162   0.46189   0.52487   0.00000  Uiso   1.00
C891   C     0.34629   0.56275   0.91477   0.00000  Uiso   1.00
C892   C     0.34203   0.47037   0.57525   0.00000  Uiso   1.00
C893   C     0.41296   0.49566   0.91657   0.00000  Uiso   1.00
C894   C     0.58691   0.51157   0.58413   0.00000  Uiso   1.00
C895   C     0.44908   0.52512   0.95188   0.00000  Uiso   1.00
C896   C     0.65164   0.40179   0.75115   0.00000  Uiso   1.00
C897   C     0.57716   0.51037   0.53320   0.00000  Uiso   1.00
C898   C     0.42749   0.57009   0.97449   0.00000  Uiso   1.00
C899   C     0.61083   0.47947   0.50427   0.00000  Uiso   1.00
C900   C     0.50520   0.51134   0.96579   0.00000  Uiso   1.00
C901   C     0.53104   0.53467   0.51113   0.00000  Uiso   1.00
C902   C     0.54668   0.62068   0.56839   0.00000  Uiso   1.00
C903   C     0.60455   0.63868   0.54951   0.00000  Uiso   1.00
C904   C     0.64104   0.33936   0.58895   0.00000  Uiso   1.00
C905   C     0.52424   0.45753   0.88354   0.00000  Uiso   1.00
C906   C     0.50661   0.39848   0.87978   0.00000  Uiso   1.00
C907   C     0.51118   0.58225   0.53162   0.00000  Uiso   1.00
C908   C     0.48145   0.38035   0.82825   0.00000  Uiso   1.00
C909   C     0.53837   0.47733   0.93673   0.00000  Uiso   1.00
C910   C     0.45918   0.59860   0.51287   0.00000  Uiso   1.00
C911   C     0.59198   0.46462   0.95609   0.00000  Uiso   1.00
C912   C     0.35598   0.65270   0.74731   0.00000  Uiso   1.00
C913   C     0.64381   0.34725   0.75193   0.00000  Uiso   1.00
C914   C     0.35460   0.50401   0.84135   0.00000  Uiso   1.00
H915   H     0.44327   0.63431   0.52801   0.00000  Uiso   1.00
H916   H     0.60094   0.66360   0.75658   0.00000  Uiso   1.00
H917   H     0.49555   0.45787   0.71384   0.00000  Uiso   1.00
H918   H     0.50445   0.54206   0.78624   0.00000  Uiso   1.00
H919   H     0.65096   0.64981   0.62145   0.00000  Uiso   1.00
H920   H     0.34852   0.35309   0.57390   0.00000  Uiso   1.00
H921   H     0.61818   0.37380   0.60076   0.00000  Uiso   1.00
H922   H     0.62882   0.60479   0.53908   0.00000  Uiso   1.00
H923   H     0.59742   0.66140   0.51638   0.00000  Uiso   1.00
H924   H     0.52363   0.65647   0.57532   0.00000  Uiso   1.00
H925   H     0.55238   0.60519   0.60520   0.00000  Uiso   1.00
H926   H     0.61807   0.44060   0.93403   0.00000  Uiso   1.00
H927   H     0.44157   0.39970   0.81989   0.00000  Uiso   1.00
H928   H     0.51242   0.38980   0.80039   0.00000  Uiso   1.00
H929   H     0.47118   0.33738   0.82625   0.00000  Uiso   1.00
H930   H     0.47490   0.38838   0.90689   0.00000  Uiso   1.00
H931   H     0.54470   0.37646   0.88844   0.00000  Uiso   1.00
H932   H     0.49379   0.48107   0.86367   0.00000  Uiso   1.00
H933   H     0.56290   0.46315   0.86297   0.00000  Uiso   1.00
H934   H     0.55452   0.52425   0.60745   0.00000  Uiso   1.00
H935   H     0.42147   0.45695   0.90372   0.00000  Uiso   1.00
H936   H     0.38089   0.45592   0.59104   0.00000  Uiso   1.00
H937   H     0.64358   0.58035   0.89736   0.00000  Uiso   1.00
H938   H     0.35938   0.62296   0.97256   0.00000  Uiso   1.00
H939   H     0.35613   0.44023   0.50251   0.00000  Uiso   1.00
H940   H     0.39878   0.33633   0.74246   0.00000  Uiso   1.00
N941   N     0.48029   0.48550   0.73740   0.00000  Uiso   1.00
N942   N     0.51971   0.51450   0.76261   0.00000  Uiso   1.00
O943   O     0.63052   0.57964   0.75310   0.00000  Uiso   1.00
O944   O     0.36948   0.42036   0.74691   0.00000  Uiso   1.00
O945   O     0.39155   0.57035   0.74502   0.00000  Uiso   1.00
O946   O     0.60845   0.42965   0.75498   0.00000  Uiso   1.00
O947   O     0.63662   0.50730   0.82247   0.00000  Uiso   1.00
O948   O     0.36338   0.49270   0.67753   0.00000  Uiso   1.00
O949   O     0.39764   0.49801   0.81439   0.00000  Uiso   1.00
O950   O     0.60236   0.50199   0.68561   0.00000  Uiso   1.00
Zn951  Zn    0.60366   0.50621   0.75539   0.00000  Uiso   1.00
Zn952  Zn    0.39634   0.49379   0.74461   0.00000  Uiso   1.00
C953   C     0.68164   0.59820   0.74863   0.00000  Uiso   1.00
C954   C     0.97871   0.49579   0.65865   0.00000  Uiso   1.00
C955   C     0.70051   0.51781   0.89344   0.00000  Uiso   1.00
C956   C     0.96949   0.49277   0.60529   0.00000  Uiso   1.00
C957   C     0.70860   0.58768   0.95663   0.00000  Uiso   1.00
C958   C     0.99496   0.46189   0.52487   0.00000  Uiso   1.00
C959   C     0.67963   0.56275   0.91477   0.00000  Uiso   1.00
C960   C     0.67536   0.47037   0.57525   0.00000  Uiso   1.00
C961   C     0.74629   0.49566   0.91657   0.00000  Uiso   1.00
C962   C     0.92025   0.51157   0.58413   0.00000  Uiso   1.00
C963   C     0.78242   0.52512   0.95188   0.00000  Uiso   1.00
C964   C     0.98497   0.40179   0.75115   0.00000  Uiso   1.00
C965   C     0.91049   0.51037   0.53320   0.00000  Uiso   1.00
C966   C     0.76082   0.57009   0.97449   0.00000  Uiso   1.00
C967   C     0.94416   0.47947   0.50427   0.00000  Uiso   1.00
C968   C     0.83854   0.51134   0.96579   0.00000  Uiso   1.00
C969   C     0.86437   0.53467   0.51113   0.00000  Uiso   1.00
C970   C     0.88001   0.62068   0.56839   0.00000  Uiso   1.00
C971   C     0.93789   0.63868   0.54951   0.00000  Uiso   1.00
C972   C     0.97438   0.33936   0.58895   0.00000  Uiso   1.00
C973   C     0.85758   0.45753   0.88354   0.00000  Uiso   1.00
C974   C     0.83994   0.39848   0.87978   0.00000  Uiso   1.00
C975   C     0.84452   0.58225   0.53162   0.00000  Uiso   1.00
C976   C     0.81478   0.38035   0.82825   0.00000  Uiso   1.00
C977   C     0.87170   0.47733   0.93673   0.00000  Uiso   1.00
C978   C     0.79252   0.59860   0.51287   0.00000  Uiso   1.00
C979   C     0.92531   0.46462   0.95609   0.00000  Uiso   1.00
C980   C     0.68931   0.65270   0.74731   0.00000  Uiso   1.00
C981   C     0.97714   0.34725   0.75193   0.00000  Uiso   1.00
C982   C     0.68794   0.50401   0.84135   0.00000  Uiso   1.00
H983   H     0.77660   0.63431   0.52801   0.00000  Uiso   1.00
H984   H     0.93428   0.66360   0.75658   0.00000  Uiso   1.00
H985   H     0.82889   0.45787   0.71384   0.00000  Uiso   1.00
H986   H     0.83779   0.54206   0.78624   0.00000  Uiso   1.00
H987   H     0.98430   0.64981   0.62145   0.00000  Uiso   1.00
H988   H     0.68185   0.35309   0.57390   0.00000  Uiso   1.00
H989   H     0.95151   0.37380   0.60076   0.00000  Uiso   1.00
H990   H     0.96215   0.60479   0.53908   0.00000  Uiso   1.00
H991   H     0.93075   0.66140   0.51638   0.00000  Uiso   1.00
H992   H     0.85696   0.65647   0.57532   0.00000  Uiso   1.00
H993   H     0.88571   0.60519   0.60520   0.00000  Uiso   1.00
H994   H     0.95141   0.44060   0.93403   0.00000  Uiso   1.00
H995   H     0.77490   0.39970   0.81989   0.00000  Uiso   1.00
H996   H     0.84575   0.38980   0.80039   0.00000  Uiso   1.00
H997   H     0.80452   0.33738   0.82625   0.00000  Uiso   1.00
H998   H     0.80823   0.38838   0.90689   0.00000  Uiso   1.00
H999   H     0.87803   0.37646   0.88844   0.00000  Uiso   1.00
H1000  H     0.82713   0.48107   0.86367   0.00000  Uiso   1.00
H1001  H     0.89623   0.46315   0.86297   0.00000  Uiso   1.00
H1002  H     0.88785   0.52425   0.60745   0.00000  Uiso   1.00
H1003  H     0.75480   0.45695   0.90372   0.00000  Uiso   1.00
H1004  H     0.71422   0.45592   0.59104   0.00000  Uiso   1.00
H1005  H     0.97691   0.58035   0.89736   0.00000  Uiso   1.00
H1006  H     0.69271   0.62296   0.97256   0.00000  Uiso   1.00
H1007  H     0.68946   0.44023   0.50251   0.00000  Uiso   1.00
H1008  H     0.73211   0.33633   0.74246   0.00000  Uiso   1.00
N1009  N     0.81362   0.48550   0.73740   0.00000  Uiso   1.00
N1010  N     0.85305   0.51450   0.76261   0.00000  Uiso   1.00
O1011  O     0.96386   0.57964   0.75310   0.00000  Uiso   1.00
O1012  O     0.70281   0.42036   0.74691   0.00000  Uiso   1.00
O1013  O     0.72488   0.57035   0.74502   0.00000  Uiso   1.00
O1014  O     0.94178   0.42965   0.75498   0.00000  Uiso   1.00
O1015  O     0.96995   0.50730   0.82247   0.00000  Uiso   1.00
O1016  O     0.69672   0.49270   0.67753   0.00000  Uiso   1.00
O1017  O     0.73098   0.49801   0.81439   0.00000  Uiso   1.00
O1018  O     0.93569   0.50199   0.68561   0.00000  Uiso   1.00
Zn1019 Zn    0.93700   0.50621   0.75539   0.00000  Uiso   1.00
Zn1020 Zn    0.72967   0.49379   0.74461   0.00000  Uiso   1.00
C1021  C     0.01497   0.93153   0.74863   0.00000  Uiso   1.00
C1022  C     0.31204   0.82912   0.65865   0.00000  Uiso   1.00
C1023  C     0.03385   0.85114   0.89344   0.00000  Uiso   1.00
C1024  C     0.30283   0.82610   0.60529   0.00000  Uiso   1.00
C1025  C     0.04193   0.92101   0.95663   0.00000  Uiso   1.00
C1026  C     0.32829   0.79522   0.52487   0.00000  Uiso   1.00
C1027  C     0.01296   0.89608   0.91477   0.00000  Uiso   1.00
C1028  C     0.00869   0.80370   0.57525   0.00000  Uiso   1.00
C1029  C     0.07963   0.82899   0.91657   0.00000  Uiso   1.00
C1030  C     0.25358   0.84490   0.58413   0.00000  Uiso   1.00
C1031  C     0.11575   0.85845   0.95188   0.00000  Uiso   1.00
C1032  C     0.31831   0.73512   0.75115   0.00000  Uiso   1.00
C1033  C     0.24382   0.84370   0.53320   0.00000  Uiso   1.00
C1034  C     0.09415   0.90342   0.97449   0.00000  Uiso   1.00
C1035  C     0.27749   0.81280   0.50427   0.00000  Uiso   1.00
C1036  C     0.17187   0.84467   0.96579   0.00000  Uiso   1.00
C1037  C     0.19770   0.86800   0.51113   0.00000  Uiso   1.00
C1038  C     0.21334   0.95401   0.56839   0.00000  Uiso   1.00
C1039  C     0.27122   0.97202   0.54951   0.00000  Uiso   1.00
C1040  C     0.30771   0.67269   0.58895   0.00000  Uiso   1.00
C1041  C     0.19091   0.79087   0.88354   0.00000  Uiso   1.00
C1042  C     0.17327   0.73181   0.87978   0.00000  Uiso   1.00
C1043  C     0.17785   0.91558   0.53162   0.00000  Uiso   1.00
C1044  C     0.14812   0.71368   0.82825   0.00000  Uiso   1.00
C1045  C     0.20504   0.81067   0.93673   0.00000  Uiso   1.00
C1046  C     0.12585   0.93193   0.51287   0.00000  Uiso   1.00
C1047  C     0.25865   0.79795   0.95609   0.00000  Uiso   1.00
C1048  C     0.02265   0.98603   0.74731   0.00000  Uiso   1.00
C1049  C     0.31047   0.68058   0.75193   0.00000  Uiso   1.00
C1050  C     0.02127   0.83734   0.84135   0.00000  Uiso   1.00
H1051  H     0.10994   0.96764   0.52801   0.00000  Uiso   1.00
H1052  H     0.26761   0.99693   0.75658   0.00000  Uiso   1.00
H1053  H     0.16222   0.79121   0.71384   0.00000  Uiso   1.00
H1054  H     0.17112   0.87539   0.78624   0.00000  Uiso   1.00
H1055  H     0.31763   0.98314   0.62145   0.00000  Uiso   1.00
H1056  H     0.01518   0.68642   0.57390   0.00000  Uiso   1.00
H1057  H     0.28485   0.70714   0.60076   0.00000  Uiso   1.00
H1058  H     0.29548   0.93812   0.53908   0.00000  Uiso   1.00
H1059  H     0.26408   0.99474   0.51638   0.00000  Uiso   1.00
H1060  H     0.19029   0.98980   0.57532   0.00000  Uiso   1.00
H1061  H     0.21905   0.93852   0.60520   0.00000  Uiso   1.00
H1062  H     0.28474   0.77393   0.93403   0.00000  Uiso   1.00
H1063  H     0.10823   0.73303   0.81989   0.00000  Uiso   1.00
H1064  H     0.17908   0.72314   0.80039   0.00000  Uiso   1.00
H1065  H     0.13785   0.67071   0.82625   0.00000  Uiso   1.00
H1066  H     0.14157   0.72171   0.90689   0.00000  Uiso   1.00
H1067  H     0.21136   0.70979   0.88844   0.00000  Uiso   1.00
H1068  H     0.16046   0.81440   0.86367   0.00000  Uiso   1.00
H1069  H     0.22957   0.79648   0.86297   0.00000  Uiso   1.00
H1070  H     0.22119   0.85759   0.60745   0.00000  Uiso   1.00
H1071  H     0.08813   0.79029   0.90372   0.00000  Uiso   1.00
H1072  H     0.04755   0.78925   0.59104   0.00000  Uiso   1.00
H1073  H     0.31025   0.91368   0.89736   0.00000  Uiso   1.00
H1074  H     0.02604   0.95629   0.97256   0.00000  Uiso   1.00
H1075  H     0.02280   0.77356   0.50251   0.00000  Uiso   1.00
H1076  H     0.06545   0.66967   0.74246   0.00000  Uiso   1.00
N1077  N     0.14695   0.81883   0.73740   0.00000  Uiso   1.00
N1078  N     0.18638   0.84784   0.76261   0.00000  Uiso   1.00
O1079  O     0.29719   0.91298   0.75310   0.00000  Uiso   1.00
O1080  O     0.03614   0.75369   0.74691   0.00000  Uiso   1.00
O1081  O     0.05822   0.90368   0.74502   0.00000  Uiso   1.00
O1082  O     0.27512   0.76298   0.75498   0.00000  Uiso   1.00
O1083  O     0.30328   0.84063   0.82247   0.00000  Uiso   1.00
O1084  O     0.03005   0.82603   0.67753   0.00000  Uiso   1.00
O1085  O     0.06431   0.83134   0.81439   0.00000  Uiso   1.00
O1086  O     0.26902   0.83533   0.68561   0.00000  Uiso   1.00
Zn1087 Zn    0.27033   0.83954   0.75539   0.00000  Uiso   1.00
Zn1088 Zn    0.06300   0.82713   0.74461   0.00000  Uiso   1.00
C1089  C     0.34830   0.93153   0.74863   0.00000  Uiso   1.00
C1090  C     0.64538   0.82912   0.65865   0.00000  Uiso   1.00
C1091  C     0.36718   0.85114   0.89344   0.00000  Uiso   1.00
C1092  C     0.63616   0.82610   0.60529   0.00000  Uiso   1.00
C1093  C     0.37526   0.92101   0.95663   0.00000  Uiso   1.00
C1094  C     0.66162   0.79522   0.52487   0.00000  Uiso   1.00
C1095  C     0.34629   0.89608   0.91477   0.00000  Uiso   1.00
C1096  C     0.34203   0.80370   0.57525   0.00000  Uiso   1.00
C1097  C     0.41296   0.82899   0.91657   0.00000  Uiso   1.00
C1098  C     0.58691   0.84490   0.58413   0.00000  Uiso   1.00
C1099  C     0.44908   0.85845   0.95188   0.00000  Uiso   1.00
C1100  C     0.65164   0.73512   0.75115   0.00000  Uiso   1.00
C1101  C     0.57716   0.84370   0.53320   0.00000  Uiso   1.00
C1102  C     0.42749   0.90342   0.97449   0.00000  Uiso   1.00
C1103  C     0.61083   0.81280   0.50427   0.00000  Uiso   1.00
C1104  C     0.50520   0.84467   0.96579   0.00000  Uiso   1.00
C1105  C     0.53104   0.86800   0.51113   0.00000  Uiso   1.00
C1106  C     0.54668   0.95401   0.56839   0.00000  Uiso   1.00
C1107  C     0.60455   0.97202   0.54951   0.00000  Uiso   1.00
C1108  C     0.64104   0.67269   0.58895   0.00000  Uiso   1.00
C1109  C     0.52424   0.79087   0.88354   0.00000  Uiso   1.00
C1110  C     0.50661   0.73181   0.87978   0.00000  Uiso   1.00
C1111  C     0.51118   0.91558   0.53162   0.00000  Uiso   1.00
C1112  C     0.48145   0.71368   0.82825   0.00000  Uiso   1.00
C1113  C     0.53837   0.81067   0.93673   0.00000  Uiso   1.00
C1114  C     0.45918   0.93193   0.51287   0.00000  Uiso   1.00
C1115  C     0.59198   0.79795   0.95609   0.00000  Uiso   1.00
C1116  C     0.35598   0.98603   0.74731   0.00000  Uiso   1.00
C1117  C     0.64381   0.68058   0.75193   0.00000  Uiso   1.00
C1118  C     0.35460   0.83734   0.84135   0.00000  Uiso   1.00
H1119  H     0.44327   0.96764   0.52801   0.00000  Uiso   1.00
H1120  H     0.60094   0.99693   0.75658   0.00000  Uiso   1.00
H1121  H     0.49555   0.79121   0.71384   0.00000  Uiso   1.00
H1122  H     0.50445   0.87539   0.78624   0.00000  Uiso   1.00
H1123  H     0.65096   0.98314   0.62145   0.00000  Uiso   1.00
H1124  H     0.34852   0.68642   0.57390   0.00000  Uiso   1.00
H1125  H     0.61818   0.70714   0.60076   0.00000  Uiso   1.00
H1126  H     0.62882   0.93812   0.53908   0.00000  Uiso   1.00
H1127  H     0.59742   0.99474   0.51638   0.00000  Uiso   1.00
H1128  H     0.52363   0.98980   0.57532   0.00000  Uiso   1.00
H1129  H     0.55238   0.93852   0.60520   0.00000  Uiso   1.00
H1130  H     0.61807   0.77393   0.93403   0.00000  Uiso   1.00
H1131  H     0.44157   0.73303   0.81989   0.00000  Uiso   1.00
H1132  H     0.51242   0.72314   0.80039   0.00000  Uiso   1.00
H1133  H     0.47118   0.67071   0.82625   0.00000  Uiso   1.00
H1134  H     0.47490   0.72171   0.90689   0.00000  Uiso   1.00
H1135  H     0.54470   0.70979   0.88844   0.00000  Uiso   1.00
H1136  H     0.49379   0.81440   0.86367   0.00000  Uiso   1.00
H1137  H     0.56290   0.79648   0.86297   0.00000  Uiso   1.00
H1138  H     0.55452   0.85759   0.60745   0.00000  Uiso   1.00
H1139  H     0.42147   0.79029   0.90372   0.00000  Uiso   1.00
H1140  H     0.38089   0.78925   0.59104   0.00000  Uiso   1.00
H1141  H     0.64358   0.91368   0.89736   0.00000  Uiso   1.00
H1142  H     0.35938   0.95629   0.97256   0.00000  Uiso   1.00
H1143  H     0.35613   0.77356   0.50251   0.00000  Uiso   1.00
H1144  H     0.39878   0.66967   0.74246   0.00000  Uiso   1.00
N1145  N     0.48029   0.81883   0.73740   0.00000  Uiso   1.00
N1146  N     0.51971   0.84784   0.76261   0.00000  Uiso   1.00
O1147  O     0.63052   0.91298   0.75310   0.00000  Uiso   1.00
O1148  O     0.36948   0.75369   0.74691   0.00000  Uiso   1.00
O1149  O     0.39155   0.90368   0.74502   0.00000  Uiso   1.00
O1150  O     0.60845   0.76298   0.75498   0.00000  Uiso   1.00
O1151  O     0.63662   0.84063   0.82247   0.00000  Uiso   1.00
O1152  O     0.36338   0.82603   0.67753   0.00000  Uiso   1.00
O1153  O     0.39764   0.83134   0.81439   0.00000  Uiso   1.00
O1154  O     0.60236   0.83533   0.68561   0.00000  Uiso   1.00
Zn1155 Zn    0.60366   0.83954   0.75539   0.00000  Uiso   1.00
Zn1156 Zn    0.39634   0.82713   0.74461   0.00000  Uiso   1.00
C1157  C     0.68164   0.93153   0.74863   0.00000  Uiso   1.00
C1158  C     0.97871   0.82912   0.65865   0.00000  Uiso   1.00
C1159  C     0.70051   0.85114   0.89344   0.00000  Uiso   1.00
C1160  C     0.96949   0.82610   0.60529   0.00000  Uiso   1.00
C1161  C     0.70860   0.92101   0.95663   0.00000  Uiso   1.00
C1162  C     0.99496   0.79522   0.52487   0.00000  Uiso   1.00
C1163  C     0.67963   0.89608   0.91477   0.00000  Uiso   1.00
C1164  C     0.67536   0.80370   0.57525   0.00000  Uiso   1.00
C1165  C     0.74629   0.82899   0.91657   0.00000  Uiso   1.00
C1166  C     0.92025   0.84490   0.58413   0.00000  Uiso   1.00
C1167  C     0.78242   0.85845   0.95188   0.00000  Uiso   1.00
C1168  C     0.98497   0.73512   0.75115   0.00000  Uiso   1.00
C1169  C     0.91049   0.84370   0.53320   0.00000  Uiso   1.00
C1170  C     0.76082   0.90342   0.97449   0.00000  Uiso   1.00
C1171  C     0.94416   0.81280   0.50427   0.00000  Uiso   1.00
C1172  C     0.83854   0.84467   0.96579   0.00000  Uiso   1.00
C1173  C     0.86437   0.86800   0.51113   0.00000  Uiso   1.00
C1174  C     0.88001   0.95401   0.56839   0.00000  Uiso   1.00
C1175  C     0.93789   0.97202   0.54951   0.00000  Uiso   1.00
C1176  C     0.97438   0.67269   0.58895   0.00000  Uiso   1.00
C1177  C     0.85758   0.79087   0.88354   0.00000  Uiso   1.00
C1178  C     0.83994   0.73181   0.87978   0.00000  Uiso   1.00
C1179  C     0.84452   0.91558   0.53162   0.00000  Uiso   1.00
C1180  C     0.81478   0.71368   0.82825   0.00000  Uiso   1.00
C1181  C     0.87170   0.81067   0.93673   0.00000  Uiso   1.00
C1182  C     0.79252   0.93193   0.51287   0.00000  Uiso   1.00
C1183  C     0.92531   0.79795   0.95609   0.00000  Uiso   1.00
C1184  C     0.68931   0.98603   0.74731   0.00000  Uiso   1.00
C1185  C     0.97714   0.68058   0.75193   0.00000  Uiso   1.00
C1186  C     0.68794   0.83734   0.84135   0.00000  Uiso   1.00
H1187  H     0.77660   0.96764   0.52801   0.00000  Uiso   1.00
H1188  H     0.93428   0.99693   0.75658   0.00000  Uiso   1.00
H1189  H     0.82889   0.79121   0.71384   0.00000  Uiso   1.00
H1190  H     0.83779   0.87539   0.78624   0.00000  Uiso   1.00
H1191  H     0.98430   0.98314   0.62145   0.00000  Uiso   1.00
H1192  H     0.68185   0.68642   0.57390   0.00000  Uiso   1.00
H1193  H     0.95151   0.70714   0.60076   0.00000  Uiso   1.00
H1194  H     0.96215   0.93812   0.53908   0.00000  Uiso   1.00
H1195  H     0.93075   0.99474   0.51638   0.00000  Uiso   1.00
H1196  H     0.85696   0.98980   0.57532   0.00000  Uiso   1.00
H1197  H     0.88571   0.93852   0.60520   0.00000  Uiso   1.00
H1198  H     0.95141   0.77393   0.93403   0.00000  Uiso   1.00
H1199  H     0.77490   0.73303   0.81989   0.00000  Uiso   1.00
H1200  H     0.84575   0.72314   0.80039   0.00000  Uiso   1.00
H1201  H     0.80452   0.67071   0.82625   0.00000  Uiso   1.00
H1202  H     0.80823   0.72171   0.90689   0.00000  Uiso   1.00
H1203  H     0.87803   0.70979   0.88844   0.00000  Uiso   1.00
H1204  H     0.82713   0.81440   0.86367   0.00000  Uiso   1.00
H1205  H     0.89623   0.79648   0.86297   0.00000  Uiso   1.00
H1206  H     0.88785   0.85759   0.60745   0.00000  Uiso   1.00
H1207  H     0.75480   0.79029   0.90372   0.00000  Uiso   1.00
H1208  H     0.71422   0.78925   0.59104   0.00000  Uiso   1.00
H1209  H     0.97691   0.91368   0.89736   0.00000  Uiso   1.00
H1210  H     0.69271   0.95629   0.97256   0.00000  Uiso   1.00
H1211  H     0.68946   0.77356   0.50251   0.00000  Uiso   1.00
H1212  H     0.73211   0.66967   0.74246   0.00000  Uiso   1.00
N1213  N     0.81362   0.81883   0.73740   0.00000  Uiso   1.00
N1214  N     0.85305   0.84784   0.76261   0.00000  Uiso   1.00
O1215  O     0.96386   0.91298   0.75310   0.00000  Uiso   1.00
O1216  O     0.70281   0.75369   0.74691   0.00000  Uiso   1.00
O1217  O     0.72488   0.90368   0.74502   0.00000  Uiso   1.00
O1218  O     0.94178   0.76298   0.75498   0.00000  Uiso   1.00
O1219  O     0.96995   0.84063   0.82247   0.00000  Uiso   1.00
O1220  O     0.69672   0.82603   0.67753   0.00000  Uiso   1.00
O1221  O     0.73098   0.83134   0.81439   0.00000  Uiso   1.00
O1222  O     0.93569   0.83533   0.68561   0.00000  Uiso   1.00
Zn1223 Zn    0.93700   0.83954   0.75539   0.00000  Uiso   1.00
Zn1224 Zn    0.72967   0.82713   0.74461   0.00000  Uiso   1.00
loop_
_geom_bond_atom_site_label_1
_geom_bond_atom_site_label_2
_geom_bond_distance
_geom_bond_site_symmetry_2
_ccdc_geom_bond_type
C1     C28     1.401   .     S
C1     O61     1.289   .     A
C1     O195    1.277   1_455 S
C2     C4      1.454   .     S
C2     O66     1.302   .     A
C2     O132    1.291   .     S
C3     C9      1.385   .     A
C3     C30     1.451   .     S
C3     C7      1.398   .     A
C4     C10     1.389   .     A
C4     C76     1.404   .     S
C5     C14     1.405   .     A
C5     H54     1.083   .     S
C5     C7      1.391   .     A
C6     C15     1.401   .     A
C6     C76     1.392   .     S
C6     H123    1.084   .     S
C7     H189    1.083   1_455 S
C8     H52     1.083   .     S
C8     C140    1.404   1_455 S
C8     C142    1.392   1_455 S
C9     H51     1.072   .     S
C9     C11     1.395   .     A
C10    C13     1.391   .     A
C10    H50     1.079   .     S
C11    C16     1.424   .     A
C11    C14     1.420   .     A
C12    C29     1.401   .     S
C12    O62     1.289   .     A
C12    O128    1.278   .     S
C13    C15     1.406   .     A
C13    C17     1.407   .     A
C14    C638    1.387   .     S
C15    C639    1.383   1_554 S
C16    C25     1.448   .     A
C16    C629    1.424   .     S
C17    C23     1.436   .     A
C17    C628    1.424   1_554 S
C18    C23     1.531   .     S
C18    C19     1.536   .     S
C18    H41     1.103   .     S
C18    H40     1.113   .     S
C19    H38     1.108   .     S
C19    H39     1.112   .     S
C19    C224    1.526   .     S
C20    H37     1.110   .     S
C20    C427    1.526   1_545 S
C20    H443    1.111   1_545 S
C20    H104    1.110   .     S
C21    H48     1.104   .     S
C21    H49     1.103   .     S
C21    C22     1.540   .     S
C21    C25     1.518   .     S
C22    C24     1.524   .     S
C22    H47     1.112   .     S
C22    H46     1.111   .     S
C23    C26     1.396   .     A
C24    H45     1.111   .     S
C24    H44     1.110   .     S
C24    H43     1.109   .     S
C25    C27     1.402   .     A
C26    H31     1.085   .     S
C26    C626    1.387   1_554 S
C27    H42     1.086   .     S
C27    C627    1.383   .     S
C28    C369    1.337   1_455 S
C28    H260    1.087   .     S
C29    C504    1.337   1_545 S
C29    H440    1.088   1_545 S
C30    O65     1.301   .     A
C30    O199    1.291   1_455 S
H32    C233    1.088   .     S
H33    N57     1.029   .     S
H34    N58     1.029   .     S
H35    C224    1.111   .     S
H36    C156    1.110   1_455 S
H53    C75     1.083   .     S
H55    C142    1.084   1_455 S
H56    C436    1.087   1_545 S
N57    N58     1.285   .     D
N57    Zn68    2.021   .     S
N58    Zn67    2.021   .     S
O59    Zn67    1.952   .     S
O59    C69     1.277   .     S
O60    Zn68    1.952   .     S
O60    C148    1.278   1_455 S
O61    Zn68    1.977   .     S
O62    Zn67    1.977   .     S
O63    Zn67    1.937   .     S
O63    C98     1.291   .     S
O64    Zn68    1.937   .     S
O64    C138    1.291   1_455 S
O65    Zn68    1.897   .     S
O66    Zn67    1.897   .     S
C69    C96     1.401   .     S
C69    O129    1.289   .     A
C70    C72     1.454   .     S
C70    O134    1.302   .     A
C70    O200    1.291   .     S
C71    C77     1.385   .     A
C71    C98     1.451   .     S
C71    C75     1.398   .     A
C72    C78     1.389   .     A
C72    C144    1.404   .     S
C73    C82     1.405   .     A
C73    H122    1.083   .     S
C73    C75     1.391   .     A
C74    C83     1.401   .     A
C74    C144    1.392   .     S
C74    H191    1.084   .     S
C76    H120    1.083   .     S
C77    H119    1.072   .     S
C77    C79     1.395   .     A
C78    C81     1.391   .     A
C78    H118    1.079   .     S
C79    C84     1.424   .     A
C79    C82     1.420   .     A
C80    C97     1.401   .     S
C80    O130    1.289   .     A
C80    O196    1.278   .     S
C81    C83     1.406   .     A
C81    C85     1.407   .     A
C82    C706    1.387   .     S
C83    C707    1.383   1_554 S
C84    C93     1.448   .     A
C84    C697    1.424   .     S
C85    C91     1.436   .     A
C85    C696    1.424   1_554 S
C86    C91     1.531   .     S
C86    C87     1.536   .     S
C86    H109    1.103   .     S
C86    H108    1.113   .     S
C87    H106    1.108   .     S
C87    H107    1.112   .     S
C87    C292    1.526   .     S
C88    H105    1.110   .     S
C88    C495    1.526   1_545 S
C88    H511    1.111   1_545 S
C88    H172    1.110   .     S
C89    H116    1.104   .     S
C89    H117    1.103   .     S
C89    C90     1.540   .     S
C89    C93     1.518   .     S
C90    C92     1.524   .     S
C90    H115    1.112   .     S
C90    H114    1.111   .     S
C91    C94     1.396   .     A
C92    H113    1.111   .     S
C92    H112    1.110   .     S
C92    H111    1.109   .     S
C93    C95     1.402   .     A
C94    H99     1.085   .     S
C94    C694    1.387   1_554 S
C95    H110    1.086   .     S
C95    C695    1.383   .     S
C96    C233    1.337   .     S
C96    H328    1.087   .     S
C97    C572    1.337   1_545 S
C97    H508    1.088   1_545 S
C98    O133    1.301   .     A
H100   C301    1.088   .     S
H101   N125    1.029   .     S
H102   N126    1.029   .     S
H103   C292    1.111   .     S
H121   C143    1.083   .     S
H124   C504    1.087   1_545 S
N125   N126    1.285   .     D
N125   Zn136   2.021   .     S
N126   Zn135   2.021   .     S
O127   Zn135   1.952   .     S
O127   C137    1.277   .     S
O128   Zn136   1.952   .     S
O129   Zn136   1.977   .     S
O130   Zn135   1.977   .     S
O131   Zn135   1.937   .     S
O131   C166    1.291   .     S
O132   Zn136   1.937   .     S
O133   Zn136   1.897   .     S
O134   Zn135   1.897   .     S
C137   C164    1.401   .     S
C137   O197    1.289   .     A
C138   C140    1.454   .     S
C138   O202    1.302   .     A
C138   O64     1.291   1_655 S
C139   C145    1.385   .     A
C139   C166    1.451   .     S
C139   C143    1.398   .     A
C140   C146    1.389   .     A
C140   C8      1.404   1_655 S
C141   C150    1.405   .     A
C141   H190    1.083   .     S
C141   C143    1.391   .     A
C142   C151    1.401   .     A
C142   C8      1.392   1_655 S
C142   H55     1.084   1_655 S
C144   H188    1.083   .     S
C145   H187    1.072   .     S
C145   C147    1.395   .     A
C146   C149    1.391   .     A
C146   H186    1.079   .     S
C147   C152    1.424   .     A
C147   C150    1.420   .     A
C148   C165    1.401   .     S
C148   O198    1.289   .     A
C148   O60     1.278   1_655 S
C149   C151    1.406   .     A
C149   C153    1.407   .     A
C150   C774    1.387   .     S
C151   C775    1.383   1_554 S
C152   C161    1.448   .     A
C152   C765    1.424   .     S
C153   C159    1.436   .     A
C153   C764    1.424   1_554 S
C154   C159    1.531   .     S
C154   C155    1.536   .     S
C154   H177    1.103   .     S
C154   H176    1.113   .     S
C155   H174    1.108   .     S
C155   H175    1.112   .     S
C155   C360    1.526   .     S
C156   H173    1.110   .     S
C156   C563    1.526   1_545 S
C156   H579    1.111   1_545 S
C156   H36     1.110   1_655 S
C157   H184    1.104   .     S
C157   H185    1.103   .     S
C157   C158    1.540   .     S
C157   C161    1.518   .     S
C158   C160    1.524   .     S
C158   H183    1.112   .     S
C158   H182    1.111   .     S
C159   C162    1.396   .     A
C160   H181    1.111   .     S
C160   H180    1.110   .     S
C160   H179    1.109   .     S
C161   C163    1.402   .     A
C162   H167    1.085   .     S
C162   C762    1.387   1_554 S
C163   H178    1.086   .     S
C163   C763    1.383   .     S
C164   C301    1.337   .     S
C164   H396    1.087   .     S
C165   C436    1.337   1_645 S
C165   H576    1.088   1_545 S
C166   O201    1.301   .     A
H168   C369    1.088   .     S
H169   N193    1.029   .     S
H170   N194    1.029   .     S
H171   C360    1.111   .     S
H189   C7      1.083   1_655 S
H192   C572    1.087   1_545 S
N193   N194    1.285   .     D
N193   Zn204   2.021   .     S
N194   Zn203   2.021   .     S
O195   Zn203   1.952   .     S
O195   C1      1.277   1_655 S
O196   Zn204   1.952   .     S
O197   Zn204   1.977   .     S
O198   Zn203   1.977   .     S
O199   Zn203   1.937   .     S
O199   C30     1.291   1_655 S
O200   Zn204   1.937   .     S
O201   Zn204   1.897   .     S
O202   Zn203   1.897   .     S
C205   C232    1.401   .     S
C205   O265    1.289   .     A
C205   O399    1.277   1_455 S
C206   C208    1.454   .     S
C206   O270    1.302   .     A
C206   O336    1.291   .     S
C207   C213    1.385   .     A
C207   C234    1.451   .     S
C207   C211    1.398   .     A
C208   C214    1.389   .     A
C208   C280    1.404   .     S
C209   C218    1.405   .     A
C209   H258    1.083   .     S
C209   C211    1.391   .     A
C210   C219    1.401   .     A
C210   C280    1.392   .     S
C210   H327    1.084   .     S
C211   H393    1.083   1_455 S
C212   H256    1.083   .     S
C212   C344    1.404   1_455 S
C212   C346    1.392   1_455 S
C213   H255    1.072   .     S
C213   C215    1.395   .     A
C214   C217    1.391   .     A
C214   H254    1.079   .     S
C215   C220    1.424   .     A
C215   C218    1.420   .     A
C216   C233    1.401   .     S
C216   O266    1.289   .     A
C216   O332    1.278   .     S
C217   C219    1.406   .     A
C217   C221    1.407   .     A
C218   C842    1.387   .     S
C219   C843    1.383   1_554 S
C220   C229    1.448   .     A
C220   C833    1.424   .     S
C221   C227    1.436   .     A
C221   C832    1.424   1_554 S
C222   C227    1.531   .     S
C222   C223    1.536   .     S
C222   H245    1.103   .     S
C222   H244    1.113   .     S
C223   H242    1.108   .     S
C223   H243    1.112   .     S
C223   C428    1.526   .     S
C224   H241    1.110   .     S
C224   H308    1.110   .     S
C225   H252    1.104   .     S
C225   H253    1.103   .     S
C225   C226    1.540   .     S
C225   C229    1.518   .     S
C226   C228    1.524   .     S
C226   H251    1.112   .     S
C226   H250    1.111   .     S
C227   C230    1.396   .     A
C228   H249    1.111   .     S
C228   H248    1.110   .     S
C228   H247    1.109   .     S
C229   C231    1.402   .     A
C230   H235    1.085   .     S
C230   C830    1.387   1_554 S
C231   H246    1.086   .     S
C231   C831    1.383   .     S
C232   C573    1.337   1_455 S
C232   H464    1.087   .     S
C234   O269    1.301   .     A
C234   O403    1.291   1_455 S
H236   C437    1.088   .     S
H237   N261    1.029   .     S
H238   N262    1.029   .     S
H239   C428    1.111   .     S
H240   C360    1.110   1_455 S
H257   C279    1.083   .     S
H259   C346    1.084   1_455 S
N261   N262    1.285   .     D
N261   Zn272   2.021   .     S
N262   Zn271   2.021   .     S
O263   Zn271   1.952   .     S
O263   C273    1.277   .     S
O264   Zn272   1.952   .     S
O264   C352    1.278   1_455 S
O265   Zn272   1.977   .     S
O266   Zn271   1.977   .     S
O267   Zn271   1.937   .     S
O267   C302    1.291   .     S
O268   Zn272   1.937   .     S
O268   C342    1.291   1_455 S
O269   Zn272   1.897   .     S
O270   Zn271   1.897   .     S
C273   C300    1.401   .     S
C273   O333    1.289   .     A
C274   C276    1.454   .     S
C274   O338    1.302   .     A
C274   O404    1.291   .     S
C275   C281    1.385   .     A
C275   C302    1.451   .     S
C275   C279    1.398   .     A
C276   C282    1.389   .     A
C276   C348    1.404   .     S
C277   C286    1.405   .     A
C277   H326    1.083   .     S
C277   C279    1.391   .     A
C278   C287    1.401   .     A
C278   C348    1.392   .     S
C278   H395    1.084   .     S
C280   H324    1.083   .     S
C281   H323    1.072   .     S
C281   C283    1.395   .     A
C282   C285    1.391   .     A
C282   H322    1.079   .     S
C283   C288    1.424   .     A
C283   C286    1.420   .     A
C284   C301    1.401   .     S
C284   O334    1.289   .     A
C284   O400    1.278   .     S
C285   C287    1.406   .     A
C285   C289    1.407   .     A
C286   C910    1.387   .     S
C287   C911    1.383   1_554 S
C288   C297    1.448   .     A
C288   C901    1.424   .     S
C289   C295    1.436   .     A
C289   C900    1.424   1_554 S
C290   C295    1.531   .     S
C290   C291    1.536   .     S
C290   H313    1.103   .     S
C290   H312    1.113   .     S
C291   H310    1.108   .     S
C291   H311    1.112   .     S
C291   C496    1.526   .     S
C292   H309    1.110   .     S
C292   H376    1.110   .     S
C293   H320    1.104   .     S
C293   H321    1.103   .     S
C293   C294    1.540   .     S
C293   C297    1.518   .     S
C294   C296    1.524   .     S
C294   H319    1.112   .     S
C294   H318    1.111   .     S
C295   C298    1.396   .     A
C296   H317    1.111   .     S
C296   H316    1.110   .     S
C296   H315    1.109   .     S
C297   C299    1.402   .     A
C298   H303    1.085   .     S
C298   C898    1.387   1_554 S
C299   H314    1.086   .     S
C299   C899    1.383   .     S
C300   C437    1.337   .     S
C300   H532    1.087   .     S
C302   O337    1.301   .     A
H304   C505    1.088   .     S
H305   N329    1.029   .     S
H306   N330    1.029   .     S
H307   C496    1.111   .     S
H325   C347    1.083   .     S
N329   N330    1.285   .     D
N329   Zn340   2.021   .     S
N330   Zn339   2.021   .     S
O331   Zn339   1.952   .     S
O331   C341    1.277   .     S
O332   Zn340   1.952   .     S
O333   Zn340   1.977   .     S
O334   Zn339   1.977   .     S
O335   Zn339   1.937   .     S
O335   C370    1.291   .     S
O336   Zn340   1.937   .     S
O337   Zn340   1.897   .     S
O338   Zn339   1.897   .     S
C341   C368    1.401   .     S
C341   O401    1.289   .     A
C342   C344    1.454   .     S
C342   O406    1.302   .     A
C342   O268    1.291   1_655 S
C343   C349    1.385   .     A
C343   C370    1.451   .     S
C343   C347    1.398   .     A
C344   C350    1.389   .     A
C344   C212    1.404   1_655 S
C345   C354    1.405   .     A
C345   H394    1.083   .     S
C345   C347    1.391   .     A
C346   C355    1.401   .     A
C346   C212    1.392   1_655 S
C346   H259    1.084   1_655 S
C348   H392    1.083   .     S
C349   H391    1.072   .     S
C349   C351    1.395   .     A
C350   C353    1.391   .     A
C350   H390    1.079   .     S
C351   C356    1.424   .     A
C351   C354    1.420   .     A
C352   C369    1.401   .     S
C352   O402    1.289   .     A
C352   O264    1.278   1_655 S
C353   C355    1.406   .     A
C353   C357    1.407   .     A
C354   C978    1.387   .     S
C355   C979    1.383   1_554 S
C356   C365    1.448   .     A
C356   C969    1.424   .     S
C357   C363    1.436   .     A
C357   C968    1.424   1_554 S
C358   C363    1.531   .     S
C358   C359    1.536   .     S
C358   H381    1.103   .     S
C358   H380    1.113   .     S
C359   H378    1.108   .     S
C359   H379    1.112   .     S
C359   C564    1.526   .     S
C360   H377    1.110   .     S
C360   H240    1.110   1_655 S
C361   H388    1.104   .     S
C361   H389    1.103   .     S
C361   C362    1.540   .     S
C361   C365    1.518   .     S
C362   C364    1.524   .     S
C362   H387    1.112   .     S
C362   H386    1.111   .     S
C363   C366    1.396   .     A
C364   H385    1.111   .     S
C364   H384    1.110   .     S
C364   H383    1.109   .     S
C365   C367    1.402   .     A
C366   H371    1.085   .     S
C366   C966    1.387   1_554 S
C367   H382    1.086   .     S
C367   C967    1.383   .     S
C368   C505    1.337   .     S
C368   H600    1.087   .     S
C369   C28     1.337   1_655 S
C370   O405    1.301   .     A
H372   C573    1.088   .     S
H373   N397    1.029   .     S
H374   N398    1.029   .     S
H375   C564    1.111   .     S
H393   C211    1.083   1_655 S
N397   N398    1.285   .     D
N397   Zn408   2.021   .     S
N398   Zn407   2.021   .     S
O399   Zn407   1.952   .     S
O399   C205    1.277   1_655 S
O400   Zn408   1.952   .     S
O401   Zn408   1.977   .     S
O402   Zn407   1.977   .     S
O403   Zn407   1.937   .     S
O403   C234    1.291   1_655 S
O404   Zn408   1.937   .     S
O405   Zn408   1.897   .     S
O406   Zn407   1.897   .     S
C409   C436    1.401   .     S
C409   O469    1.289   .     A
C409   O603    1.277   1_455 S
C410   C412    1.454   .     S
C410   O474    1.302   .     A
C410   O540    1.291   .     S
C411   C417    1.385   .     A
C411   C438    1.451   .     S
C411   C415    1.398   .     A
C412   C418    1.389   .     A
C412   C484    1.404   .     S
C413   C422    1.405   .     A
C413   H462    1.083   .     S
C413   C415    1.391   .     A
C414   C423    1.401   .     A
C414   C484    1.392   .     S
C414   H531    1.084   .     S
C415   H597    1.083   1_455 S
C416   H460    1.083   .     S
C416   C548    1.404   1_455 S
C416   C550    1.392   1_455 S
C417   H459    1.072   .     S
C417   C419    1.395   .     A
C418   C421    1.391   .     A
C418   H458    1.079   .     S
C419   C424    1.424   .     A
C419   C422    1.420   .     A
C420   C437    1.401   .     S
C420   O470    1.289   .     A
C420   O536    1.278   .     S
C421   C423    1.406   .     A
C421   C425    1.407   .     A
C422   C1046   1.387   .     S
C423   C1047   1.383   1_554 S
C424   C433    1.448   .     A
C424   C1037   1.424   .     S
C425   C431    1.436   .     A
C425   C1036   1.424   1_554 S
C426   C431    1.531   .     S
C426   C427    1.536   .     S
C426   H449    1.103   .     S
C426   H448    1.113   .     S
C427   H446    1.108   .     S
C427   H447    1.112   .     S
C427   C20     1.526   1_565 S
C428   H445    1.110   .     S
C428   H512    1.110   .     S
C429   H456    1.104   .     S
C429   H457    1.103   .     S
C429   C430    1.540   .     S
C429   C433    1.518   .     S
C430   C432    1.524   .     S
C430   H455    1.112   .     S
C430   H454    1.111   .     S
C431   C434    1.396   .     A
C432   H453    1.111   .     S
C432   H452    1.110   .     S
C432   H451    1.109   .     S
C433   C435    1.402   .     A
C434   H439    1.085   .     S
C434   C1034   1.387   1_554 S
C435   H450    1.086   .     S
C435   C1035   1.383   .     S
C436   C165    1.337   1_465 S
C436   H56     1.087   1_565 S
C438   O473    1.301   .     A
C438   O607    1.291   1_455 S
H440   C29     1.088   1_565 S
H441   N465    1.029   .     S
H442   N466    1.029   .     S
H443   C20     1.111   1_565 S
H444   C564    1.110   1_455 S
H461   C483    1.083   .     S
H463   C550    1.084   1_455 S
N465   N466    1.285   .     D
N465   Zn476   2.021   .     S
N466   Zn475   2.021   .     S
O467   Zn475   1.952   .     S
O467   C477    1.277   .     S
O468   Zn476   1.952   .     S
O468   C556    1.278   1_455 S
O469   Zn476   1.977   .     S
O470   Zn475   1.977   .     S
O471   Zn475   1.937   .     S
O471   C506    1.291   .     S
O472   Zn476   1.937   .     S
O472   C546    1.291   1_455 S
O473   Zn476   1.897   .     S
O474   Zn475   1.897   .     S
C477   C504    1.401   .     S
C477   O537    1.289   .     A
C478   C480    1.454   .     S
C478   O542    1.302   .     A
C478   O608    1.291   .     S
C479   C485    1.385   .     A
C479   C506    1.451   .     S
C479   C483    1.398   .     A
C480   C486    1.389   .     A
C480   C552    1.404   .     S
C481   C490    1.405   .     A
C481   H530    1.083   .     S
C481   C483    1.391   .     A
C482   C491    1.401   .     A
C482   C552    1.392   .     S
C482   H599    1.084   .     S
C484   H528    1.083   .     S
C485   H527    1.072   .     S
C485   C487    1.395   .     A
C486   C489    1.391   .     A
C486   H526    1.079   .     S
C487   C492    1.424   .     A
C487   C490    1.420   .     A
C488   C505    1.401   .     S
C488   O538    1.289   .     A
C488   O604    1.278   .     S
C489   C491    1.406   .     A
C489   C493    1.407   .     A
C490   C1114   1.387   .     S
C491   C1115   1.383   1_554 S
C492   C501    1.448   .     A
C492   C1105   1.424   .     S
C493   C499    1.436   .     A
C493   C1104   1.424   1_554 S
C494   C499    1.531   .     S
C494   C495    1.536   .     S
C494   H517    1.103   .     S
C494   H516    1.113   .     S
C495   H514    1.108   .     S
C495   H515    1.112   .     S
C495   C88     1.526   1_565 S
C496   H513    1.110   .     S
C496   H580    1.110   .     S
C497   H524    1.104   .     S
C497   H525    1.103   .     S
C497   C498    1.540   .     S
C497   C501    1.518   .     S
C498   C500    1.524   .     S
C498   H523    1.112   .     S
C498   H522    1.111   .     S
C499   C502    1.396   .     A
C500   H521    1.111   .     S
C500   H520    1.110   .     S
C500   H519    1.109   .     S
C501   C503    1.402   .     A
C502   H507    1.085   .     S
C502   C1102   1.387   1_554 S
C503   H518    1.086   .     S
C503   C1103   1.383   .     S
C504   C29     1.337   1_565 S
C504   H124    1.087   1_565 S
C506   O541    1.301   .     A
H508   C97     1.088   1_565 S
H509   N533    1.029   .     S
H510   N534    1.029   .     S
H511   C88     1.111   1_565 S
H529   C551    1.083   .     S
N533   N534    1.285   .     D
N533   Zn544   2.021   .     S
N534   Zn543   2.021   .     S
O535   Zn543   1.952   .     S
O535   C545    1.277   .     S
O536   Zn544   1.952   .     S
O537   Zn544   1.977   .     S
O538   Zn543   1.977   .     S
O539   Zn543   1.937   .     S
O539   C574    1.291   .     S
O540   Zn544   1.937   .     S
O541   Zn544   1.897   .     S
O542   Zn543   1.897   .     S
C545   C572    1.401   .     S
C545   O605    1.289   .     A
C546   C548    1.454   .     S
C546   O610    1.302   .     A
C546   O472    1.291   1_655 S
C547   C553    1.385   .     A
C547   C574    1.451   .     S
C547   C551    1.398   .     A
C548   C554    1.389   .     A
C548   C416    1.404   1_655 S
C549   C558    1.405   .     A
C549   H598    1.083   .     S
C549   C551    1.391   .     A
C550   C559    1.401   .     A
C550   C416    1.392   1_655 S
C550   H463    1.084   1_655 S
C552   H596    1.083   .     S
C553   H595    1.072   .     S
C553   C555    1.395   .     A
C554   C557    1.391   .     A
C554   H594    1.079   .     S
C555   C560    1.424   .     A
C555   C558    1.420   .     A
C556   C573    1.401   .     S
C556   O606    1.289   .     A
C556   O468    1.278   1_655 S
C557   C559    1.406   .     A
C557   C561    1.407   .     A
C558   C1182   1.387   .     S
C559   C1183   1.383   1_554 S
C560   C569    1.448   .     A
C560   C1173   1.424   .     S
C561   C567    1.436   .     A
C561   C1172   1.424   1_554 S
C562   C567    1.531   .     S
C562   C563    1.536   .     S
C562   H585    1.103   .     S
C562   H584    1.113   .     S
C563   H582    1.108   .     S
C563   H583    1.112   .     S
C563   C156    1.526   1_565 S
C564   H581    1.110   .     S
C564   H444    1.110   1_655 S
C565   H592    1.104   .     S
C565   H593    1.103   .     S
C565   C566    1.540   .     S
C565   C569    1.518   .     S
C566   C568    1.524   .     S
C566   H591    1.112   .     S
C566   H590    1.111   .     S
C567   C570    1.396   .     A
C568   H589    1.111   .     S
C568   H588    1.110   .     S
C568   H587    1.109   .     S
C569   C571    1.402   .     A
C570   H575    1.085   .     S
C570   C1170   1.387   1_554 S
C571   H586    1.086   .     S
C571   C1171   1.383   .     S
C572   C97     1.337   1_565 S
C572   H192    1.087   1_565 S
C573   C232    1.337   1_655 S
C574   O609    1.301   .     A
H576   C165    1.088   1_565 S
H577   N601    1.029   .     S
H578   N602    1.029   .     S
H579   C156    1.111   1_565 S
H597   C415    1.083   1_655 S
N601   N602    1.285   .     D
N601   Zn612   2.021   .     S
N602   Zn611   2.021   .     S
O603   Zn611   1.952   .     S
O603   C409    1.277   1_655 S
O604   Zn612   1.952   .     S
O605   Zn612   1.977   .     S
O606   Zn611   1.977   .     S
O607   Zn611   1.937   .     S
O607   C438    1.291   1_655 S
O608   Zn612   1.937   .     S
O609   Zn612   1.897   .     S
O610   Zn611   1.897   .     S
C613   C640    1.401   .     S
C613   O673    1.289   .     A
C613   O807    1.277   1_455 S
C614   C616    1.454   .     S
C614   O678    1.302   .     A
C614   O744    1.291   .     S
C615   C621    1.385   .     A
C615   C642    1.451   .     S
C615   C619    1.398   .     A
C616   C622    1.389   .     A
C616   C688    1.404   .     S
C617   C626    1.405   .     A
C617   H666    1.083   .     S
C617   C619    1.391   .     A
C618   C627    1.401   .     A
C618   C688    1.392   .     S
C618   H735    1.084   .     S
C619   H801    1.083   1_455 S
C620   H664    1.083   .     S
C620   C752    1.404   1_455 S
C620   C754    1.392   1_455 S
C621   H663    1.072   .     S
C621   C623    1.395   .     A
C622   C625    1.391   .     A
C622   H662    1.079   .     S
C623   C628    1.424   .     A
C623   C626    1.420   .     A
C624   C641    1.401   .     S
C624   O674    1.289   .     A
C624   O740    1.278   .     S
C625   C627    1.406   .     A
C625   C629    1.407   .     A
C626   C26     1.387   1_556 S
C628   C637    1.448   .     A
C628   C17     1.424   1_556 S
C629   C635    1.436   .     A
C630   C635    1.531   .     S
C630   C631    1.536   .     S
C630   H653    1.103   .     S
C630   H652    1.113   .     S
C631   H650    1.108   .     S
C631   H651    1.112   .     S
C631   C836    1.526   .     S
C632   H649    1.110   .     S
C632   C1039   1.526   1_545 S
C632   H1055   1.111   1_545 S
C632   H716    1.110   .     S
C633   H660    1.104   .     S
C633   H661    1.103   .     S
C633   C634    1.540   .     S
C633   C637    1.518   .     S
C634   C636    1.524   .     S
C634   H659    1.112   .     S
C634   H658    1.111   .     S
C635   C638    1.396   .     A
C636   H657    1.111   .     S
C636   H656    1.110   .     S
C636   H655    1.109   .     S
C637   C639    1.402   .     A
C638   H643    1.085   .     S
C639   H654    1.086   .     S
C639   C15     1.383   1_556 S
C640   C981    1.337   1_455 S
C640   H872    1.087   .     S
C641   C1116   1.337   1_545 S
C641   H1052   1.088   1_545 S
C642   O677    1.301   .     A
C642   O811    1.291   1_455 S
H644   C845    1.088   .     S
H645   N669    1.029   .     S
H646   N670    1.029   .     S
H647   C836    1.111   .     S
H648   C768    1.110   1_455 S
H665   C687    1.083   .     S
H667   C754    1.084   1_455 S
H668   C1048   1.087   1_545 S
N669   N670    1.285   .     D
N669   Zn680   2.021   .     S
N670   Zn679   2.021   .     S
O671   Zn679   1.952   .     S
O671   C681    1.277   .     S
O672   Zn680   1.952   .     S
O672   C760    1.278   1_455 S
O673   Zn680   1.977   .     S
O674   Zn679   1.977   .     S
O675   Zn679   1.937   .     S
O675   C710    1.291   .     S
O676   Zn680   1.937   .     S
O676   C750    1.291   1_455 S
O677   Zn680   1.897   .     S
O678   Zn679   1.897   .     S
C681   C708    1.401   .     S
C681   O741    1.289   .     A
C682   C684    1.454   .     S
C682   O746    1.302   .     A
C682   O812    1.291   .     S
C683   C689    1.385   .     A
C683   C710    1.451   .     S
C683   C687    1.398   .     A
C684   C690    1.389   .     A
C684   C756    1.404   .     S
C685   C694    1.405   .     A
C685   H734    1.083   .     S
C685   C687    1.391   .     A
C686   C695    1.401   .     A
C686   C756    1.392   .     S
C686   H803    1.084   .     S
C688   H732    1.083   .     S
C689   H731    1.072   .     S
C689   C691    1.395   .     A
C690   C693    1.391   .     A
C690   H730    1.079   .     S
C691   C696    1.424   .     A
C691   C694    1.420   .     A
C692   C709    1.401   .     S
C692   O742    1.289   .     A
C692   O808    1.278   .     S
C693   C695    1.406   .     A
C693   C697    1.407   .     A
C694   C94     1.387   1_556 S
C696   C705    1.448   .     A
C696   C85     1.424   1_556 S
C697   C703    1.436   .     A
C698   C703    1.531   .     S
C698   C699    1.536   .     S
C698   H721    1.103   .     S
C698   H720    1.113   .     S
C699   H718    1.108   .     S
C699   H719    1.112   .     S
C699   C904    1.526   .     S
C700   H717    1.110   .     S
C700   C1107   1.526   1_545 S
C700   H1123   1.111   1_545 S
C700   H784    1.110   .     S
C701   H728    1.104   .     S
C701   H729    1.103   .     S
C701   C702    1.540   .     S
C701   C705    1.518   .     S
C702   C704    1.524   .     S
C702   H727    1.112   .     S
C702   H726    1.111   .     S
C703   C706    1.396   .     A
C704   H725    1.111   .     S
C704   H724    1.110   .     S
C704   H723    1.109   .     S
C705   C707    1.402   .     A
C706   H711    1.085   .     S
C707   H722    1.086   .     S
C707   C83     1.383   1_556 S
C708   C845    1.337   .     S
C708   H940    1.087   .     S
C709   C1184   1.337   1_545 S
C709   H1120   1.088   1_545 S
C710   O745    1.301   .     A
H712   C913    1.088   .     S
H713   N737    1.029   .     S
H714   N738    1.029   .     S
H715   C904    1.111   .     S
H733   C755    1.083   .     S
H736   C1116   1.087   1_545 S
N737   N738    1.285   .     D
N737   Zn748   2.021   .     S
N738   Zn747   2.021   .     S
O739   Zn747   1.952   .     S
O739   C749    1.277   .     S
O740   Zn748   1.952   .     S
O741   Zn748   1.977   .     S
O742   Zn747   1.977   .     S
O743   Zn747   1.937   .     S
O743   C778    1.291   .     S
O744   Zn748   1.937   .     S
O745   Zn748   1.897   .     S
O746   Zn747   1.897   .     S
C749   C776    1.401   .     S
C749   O809    1.289   .     A
C750   C752    1.454   .     S
C750   O814    1.302   .     A
C750   O676    1.291   1_655 S
C751   C757    1.385   .     A
C751   C778    1.451   .     S
C751   C755    1.398   .     A
C752   C758    1.389   .     A
C752   C620    1.404   1_655 S
C753   C762    1.405   .     A
C753   H802    1.083   .     S
C753   C755    1.391   .     A
C754   C763    1.401   .     A
C754   C620    1.392   1_655 S
C754   H667    1.084   1_655 S
C756   H800    1.083   .     S
C757   H799    1.072   .     S
C757   C759    1.395   .     A
C758   C761    1.391   .     A
C758   H798    1.079   .     S
C759   C764    1.424   .     A
C759   C762    1.420   .     A
C760   C777    1.401   .     S
C760   O810    1.289   .     A
C760   O672    1.278   1_655 S
C761   C763    1.406   .     A
C761   C765    1.407   .     A
C762   C162    1.387   1_556 S
C764   C773    1.448   .     A
C764   C153    1.424   1_556 S
C765   C771    1.436   .     A
C766   C771    1.531   .     S
C766   C767    1.536   .     S
C766   H789    1.103   .     S
C766   H788    1.113   .     S
C767   H786    1.108   .     S
C767   H787    1.112   .     S
C767   C972    1.526   .     S
C768   H785    1.110   .     S
C768   C1175   1.526   1_545 S
C768   H1191   1.111   1_545 S
C768   H648    1.110   1_655 S
C769   H796    1.104   .     S
C769   H797    1.103   .     S
C769   C770    1.540   .     S
C769   C773    1.518   .     S
C770   C772    1.524   .     S
C770   H795    1.112   .     S
C770   H794    1.111   .     S
C771   C774    1.396   .     A
C772   H793    1.111   .     S
C772   H792    1.110   .     S
C772   H791    1.109   .     S
C773   C775    1.402   .     A
C774   H779    1.085   .     S
C775   H790    1.086   .     S
C775   C151    1.383   1_556 S
C776   C913    1.337   .     S
C776   H1008   1.087   .     S
C777   C1048   1.337   1_645 S
C777   H1188   1.088   1_545 S
C778   O813    1.301   .     A
H780   C981    1.088   .     S
H781   N805    1.029   .     S
H782   N806    1.029   .     S
H783   C972    1.111   .     S
H801   C619    1.083   1_655 S
H804   C1184   1.087   1_545 S
N805   N806    1.285   .     D
N805   Zn816   2.021   .     S
N806   Zn815   2.021   .     S
O807   Zn815   1.952   .     S
O807   C613    1.277   1_655 S
O808   Zn816   1.952   .     S
O809   Zn816   1.977   .     S
O810   Zn815   1.977   .     S
O811   Zn815   1.937   .     S
O811   C642    1.291   1_655 S
O812   Zn816   1.937   .     S
O813   Zn816   1.897   .     S
O814   Zn815   1.897   .     S
C817   C844    1.401   .     S
C817   O877    1.289   .     A
C817   O1011   1.277   1_455 S
C818   C820    1.454   .     S
C818   O882    1.302   .     A
C818   O948    1.291   .     S
C819   C825    1.385   .     A
C819   C846    1.451   .     S
C819   C823    1.398   .     A
C820   C826    1.389   .     A
C820   C892    1.404   .     S
C821   C830    1.405   .     A
C821   H870    1.083   .     S
C821   C823    1.391   .     A
C822   C831    1.401   .     A
C822   C892    1.392   .     S
C822   H939    1.084   .     S
C823   H1005   1.083   1_455 S
C824   H868    1.083   .     S
C824   C956    1.404   1_455 S
C824   C958    1.392   1_455 S
C825   H867    1.072   .     S
C825   C827    1.395   .     A
C826   C829    1.391   .     A
C826   H866    1.079   .     S
C827   C832    1.424   .     A
C827   C830    1.420   .     A
C828   C845    1.401   .     S
C828   O878    1.289   .     A
C828   O944    1.278   .     S
C829   C831    1.406   .     A
C829   C833    1.407   .     A
C830   C230    1.387   1_556 S
C832   C841    1.448   .     A
C832   C221    1.424   1_556 S
C833   C839    1.436   .     A
C834   C839    1.531   .     S
C834   C835    1.536   .     S
C834   H857    1.103   .     S
C834   H856    1.113   .     S
C835   H854    1.108   .     S
C835   H855    1.112   .     S
C835   C1040   1.526   .     S
C836   H853    1.110   .     S
C836   H920    1.110   .     S
C837   H864    1.104   .     S
C837   H865    1.103   .     S
C837   C838    1.540   .     S
C837   C841    1.518   .     S
C838   C840    1.524   .     S
C838   H863    1.112   .     S
C838   H862    1.111   .     S
C839   C842    1.396   .     A
C840   H861    1.111   .     S
C840   H860    1.110   .     S
C840   H859    1.109   .     S
C841   C843    1.402   .     A
C842   H847    1.085   .     S
C843   H858    1.086   .     S
C843   C219    1.383   1_556 S
C844   C1185   1.337   1_455 S
C844   H1076   1.087   .     S
C846   O881    1.301   .     A
C846   O1015   1.291   1_455 S
H848   C1049   1.088   .     S
H849   N873    1.029   .     S
H850   N874    1.029   .     S
H851   C1040   1.111   .     S
H852   C972    1.110   1_455 S
H869   C891    1.083   .     S
H871   C958    1.084   1_455 S
N873   N874    1.285   .     D
N873   Zn884   2.021   .     S
N874   Zn883   2.021   .     S
O875   Zn883   1.952   .     S
O875   C885    1.277   .     S
O876   Zn884   1.952   .     S
O876   C964    1.278   1_455 S
O877   Zn884   1.977   .     S
O878   Zn883   1.977   .     S
O879   Zn883   1.937   .     S
O879   C914    1.291   .     S
O880   Zn884   1.937   .     S
O880   C954    1.291   1_455 S
O881   Zn884   1.897   .     S
O882   Zn883   1.897   .     S
C885   C912    1.401   .     S
C885   O945    1.289   .     A
C886   C888    1.454   .     S
C886   O950    1.302   .     A
C886   O1016   1.291   .     S
C887   C893    1.385   .     A
C887   C914    1.451   .     S
C887   C891    1.398   .     A
C888   C894    1.389   .     A
C888   C960    1.404   .     S
C889   C898    1.405   .     A
C889   H938    1.083   .     S
C889   C891    1.391   .     A
C890   C899    1.401   .     A
C890   C960    1.392   .     S
C890   H1007   1.084   .     S
C892   H936    1.083   .     S
C893   H935    1.072   .     S
C893   C895    1.395   .     A
C894   C897    1.391   .     A
C894   H934    1.079   .     S
C895   C900    1.424   .     A
C895   C898    1.420   .     A
C896   C913    1.401   .     S
C896   O946    1.289   .     A
C896   O1012   1.278   .     S
C897   C899    1.406   .     A
C897   C901    1.407   .     A
C898   C298    1.387   1_556 S
C900   C909    1.448   .     A
C900   C289    1.424   1_556 S
C901   C907    1.436   .     A
C902   C907    1.531   .     S
C902   C903    1.536   .     S
C902   H925    1.103   .     S
C902   H924    1.113   .     S
C903   H922    1.108   .     S
C903   H923    1.112   .     S
C903   C1108   1.526   .     S
C904   H921    1.110   .     S
C904   H988    1.110   .     S
C905   H932    1.104   .     S
C905   H933    1.103   .     S
C905   C906    1.540   .     S
C905   C909    1.518   .     S
C906   C908    1.524   .     S
C906   H931    1.112   .     S
C906   H930    1.111   .     S
C907   C910    1.396   .     A
C908   H929    1.111   .     S
C908   H928    1.110   .     S
C908   H927    1.109   .     S
C909   C911    1.402   .     A
C910   H915    1.085   .     S
C911   H926    1.086   .     S
C911   C287    1.383   1_556 S
C912   C1049   1.337   .     S
C912   H1144   1.087   .     S
C914   O949    1.301   .     A
H916   C1117   1.088   .     S
H917   N941    1.029   .     S
H918   N942    1.029   .     S
H919   C1108   1.111   .     S
H937   C959    1.083   .     S
N941   N942    1.285   .     D
N941   Zn952   2.021   .     S
N942   Zn951   2.021   .     S
O943   Zn951   1.952   .     S
O943   C953    1.277   .     S
O944   Zn952   1.952   .     S
O945   Zn952   1.977   .     S
O946   Zn951   1.977   .     S
O947   Zn951   1.937   .     S
O947   C982    1.291   .     S
O948   Zn952   1.937   .     S
O949   Zn952   1.897   .     S
O950   Zn951   1.897   .     S
C953   C980    1.401   .     S
C953   O1013   1.289   .     A
C954   C956    1.454   .     S
C954   O1018   1.302   .     A
C954   O880    1.291   1_655 S
C955   C961    1.385   .     A
C955   C982    1.451   .     S
C955   C959    1.398   .     A
C956   C962    1.389   .     A
C956   C824    1.404   1_655 S
C957   C966    1.405   .     A
C957   H1006   1.083   .     S
C957   C959    1.391   .     A
C958   C967    1.401   .     A
C958   C824    1.392   1_655 S
C958   H871    1.084   1_655 S
C960   H1004   1.083   .     S
C961   H1003   1.072   .     S
C961   C963    1.395   .     A
C962   C965    1.391   .     A
C962   H1002   1.079   .     S
C963   C968    1.424   .     A
C963   C966    1.420   .     A
C964   C981    1.401   .     S
C964   O1014   1.289   .     A
C964   O876    1.278   1_655 S
C965   C967    1.406   .     A
C965   C969    1.407   .     A
C966   C366    1.387   1_556 S
C968   C977    1.448   .     A
C968   C357    1.424   1_556 S
C969   C975    1.436   .     A
C970   C975    1.531   .     S
C970   C971    1.536   .     S
C970   H993    1.103   .     S
C970   H992    1.113   .     S
C971   H990    1.108   .     S
C971   H991    1.112   .     S
C971   C1176   1.526   .     S
C972   H989    1.110   .     S
C972   H852    1.110   1_655 S
C973   H1000   1.104   .     S
C973   H1001   1.103   .     S
C973   C974    1.540   .     S
C973   C977    1.518   .     S
C974   C976    1.524   .     S
C974   H999    1.112   .     S
C974   H998    1.111   .     S
C975   C978    1.396   .     A
C976   H997    1.111   .     S
C976   H996    1.110   .     S
C976   H995    1.109   .     S
C977   C979    1.402   .     A
C978   H983    1.085   .     S
C979   H994    1.086   .     S
C979   C355    1.383   1_556 S
C980   C1117   1.337   .     S
C980   H1212   1.087   .     S
C981   C640    1.337   1_655 S
C982   O1017   1.301   .     A
H984   C1185   1.088   .     S
H985   N1009   1.029   .     S
H986   N1010   1.029   .     S
H987   C1176   1.111   .     S
H1005  C823    1.083   1_655 S
N1009  N1010   1.285   .     D
N1009  Zn1020  2.021   .     S
N1010  Zn1019  2.021   .     S
O1011  Zn1019  1.952   .     S
O1011  C817    1.277   1_655 S
O1012  Zn1020  1.952   .     S
O1013  Zn1020  1.977   .     S
O1014  Zn1019  1.977   .     S
O1015  Zn1019  1.937   .     S
O1015  C846    1.291   1_655 S
O1016  Zn1020  1.937   .     S
O1017  Zn1020  1.897   .     S
O1018  Zn1019  1.897   .     S
C1021  C1048   1.401   .     S
C1021  O1081   1.289   .     A
C1021  O1215   1.277   1_455 S
C1022  C1024   1.454   .     S
C1022  O1086   1.302   .     A
C1022  O1152   1.291   .     S
C1023  C1029   1.385   .     A
C1023  C1050   1.451   .     S
C1023  C1027   1.398   .     A
C1024  C1030   1.389   .     A
C1024  C1096   1.404   .     S
C1025  C1034   1.405   .     A
C1025  H1074   1.083   .     S
C1025  C1027   1.391   .     A
C1026  C1035   1.401   .     A
C1026  C1096   1.392   .     S
C1026  H1143   1.084   .     S
C1027  H1209   1.083   1_455 S
C1028  H1072   1.083   .     S
C1028  C1160   1.404   1_455 S
C1028  C1162   1.392   1_455 S
C1029  H1071   1.072   .     S
C1029  C1031   1.395   .     A
C1030  C1033   1.391   .     A
C1030  H1070   1.079   .     S
C1031  C1036   1.424   .     A
C1031  C1034   1.420   .     A
C1032  C1049   1.401   .     S
C1032  O1082   1.289   .     A
C1032  O1148   1.278   .     S
C1033  C1035   1.406   .     A
C1033  C1037   1.407   .     A
C1034  C434    1.387   1_556 S
C1036  C1045   1.448   .     A
C1036  C425    1.424   1_556 S
C1037  C1043   1.436   .     A
C1038  C1043   1.531   .     S
C1038  C1039   1.536   .     S
C1038  H1061   1.103   .     S
C1038  H1060   1.113   .     S
C1039  H1058   1.108   .     S
C1039  H1059   1.112   .     S
C1039  C632    1.526   1_565 S
C1040  H1057   1.110   .     S
C1040  H1124   1.110   .     S
C1041  H1068   1.104   .     S
C1041  H1069   1.103   .     S
C1041  C1042   1.540   .     S
C1041  C1045   1.518   .     S
C1042  C1044   1.524   .     S
C1042  H1067   1.112   .     S
C1042  H1066   1.111   .     S
C1043  C1046   1.396   .     A
C1044  H1065   1.111   .     S
C1044  H1064   1.110   .     S
C1044  H1063   1.109   .     S
C1045  C1047   1.402   .     A
C1046  H1051   1.085   .     S
C1047  H1062   1.086   .     S
C1047  C423    1.383   1_556 S
C1048  C777    1.337   1_465 S
C1048  H668    1.087   1_565 S
C1050  O1085   1.301   .     A
C1050  O1219   1.291   1_455 S
H1052  C641    1.088   1_565 S
H1053  N1077   1.029   .     S
H1054  N1078   1.029   .     S
H1055  C632    1.111   1_565 S
H1056  C1176   1.110   1_455 S
H1073  C1095   1.083   .     S
H1075  C1162   1.084   1_455 S
N1077  N1078   1.285   .     D
N1077  Zn1088  2.021   .     S
N1078  Zn1087  2.021   .     S
O1079  Zn1087  1.952   .     S
O1079  C1089   1.277   .     S
O1080  Zn1088  1.952   .     S
O1080  C1168   1.278   1_455 S
O1081  Zn1088  1.977   .     S
O1082  Zn1087  1.977   .     S
O1083  Zn1087  1.937   .     S
O1083  C1118   1.291   .     S
O1084  Zn1088  1.937   .     S
O1084  C1158   1.291   1_455 S
O1085  Zn1088  1.897   .     S
O1086  Zn1087  1.897   .     S
C1089  C1116   1.401   .     S
C1089  O1149   1.289   .     A
C1090  C1092   1.454   .     S
C1090  O1154   1.302   .     A
C1090  O1220   1.291   .     S
C1091  C1097   1.385   .     A
C1091  C1118   1.451   .     S
C1091  C1095   1.398   .     A
C1092  C1098   1.389   .     A
C1092  C1164   1.404   .     S
C1093  C1102   1.405   .     A
C1093  H1142   1.083   .     S
C1093  C1095   1.391   .     A
C1094  C1103   1.401   .     A
C1094  C1164   1.392   .     S
C1094  H1211   1.084   .     S
C1096  H1140   1.083   .     S
C1097  H1139   1.072   .     S
C1097  C1099   1.395   .     A
C1098  C1101   1.391   .     A
C1098  H1138   1.079   .     S
C1099  C1104   1.424   .     A
C1099  C1102   1.420   .     A
C1100  C1117   1.401   .     S
C1100  O1150   1.289   .     A
C1100  O1216   1.278   .     S
C1101  C1103   1.406   .     A
C1101  C1105   1.407   .     A
C1102  C502    1.387   1_556 S
C1104  C1113   1.448   .     A
C1104  C493    1.424   1_556 S
C1105  C1111   1.436   .     A
C1106  C1111   1.531   .     S
C1106  C1107   1.536   .     S
C1106  H1129   1.103   .     S
C1106  H1128   1.113   .     S
C1107  H1126   1.108   .     S
C1107  H1127   1.112   .     S
C1107  C700    1.526   1_565 S
C1108  H1125   1.110   .     S
C1108  H1192   1.110   .     S
C1109  H1136   1.104   .     S
C1109  H1137   1.103   .     S
C1109  C1110   1.540   .     S
C1109  C1113   1.518   .     S
C1110  C1112   1.524   .     S
C1110  H1135   1.112   .     S
C1110  H1134   1.111   .     S
C1111  C1114   1.396   .     A
C1112  H1133   1.111   .     S
C1112  H1132   1.110   .     S
C1112  H1131   1.109   .     S
C1113  C1115   1.402   .     A
C1114  H1119   1.085   .     S
C1115  H1130   1.086   .     S
C1115  C491    1.383   1_556 S
C1116  C641    1.337   1_565 S
C1116  H736    1.087   1_565 S
C1118  O1153   1.301   .     A
H1120  C709    1.088   1_565 S
H1121  N1145   1.029   .     S
H1122  N1146   1.029   .     S
H1123  C700    1.111   1_565 S
H1141  C1163   1.083   .     S
N1145  N1146   1.285   .     D
N1145  Zn1156  2.021   .     S
N1146  Zn1155  2.021   .     S
O1147  Zn1155  1.952   .     S
O1147  C1157   1.277   .     S
O1148  Zn1156  1.952   .     S
O1149  Zn1156  1.977   .     S
O1150  Zn1155  1.977   .     S
O1151  Zn1155  1.937   .     S
O1151  C1186   1.291   .     S
O1152  Zn1156  1.937   .     S
O1153  Zn1156  1.897   .     S
O1154  Zn1155  1.897   .     S
C1157  C1184   1.401   .     S
C1157  O1217   1.289   .     A
C1158  C1160   1.454   .     S
C1158  O1222   1.302   .     A
C1158  O1084   1.291   1_655 S
C1159  C1165   1.385   .     A
C1159  C1186   1.451   .     S
C1159  C1163   1.398   .     A
C1160  C1166   1.389   .     A
C1160  C1028   1.404   1_655 S
C1161  C1170   1.405   .     A
C1161  H1210   1.083   .     S
C1161  C1163   1.391   .     A
C1162  C1171   1.401   .     A
C1162  C1028   1.392   1_655 S
C1162  H1075   1.084   1_655 S
C1164  H1208   1.083   .     S
C1165  H1207   1.072   .     S
C1165  C1167   1.395   .     A
C1166  C1169   1.391   .     A
C1166  H1206   1.079   .     S
C1167  C1172   1.424   .     A
C1167  C1170   1.420   .     A
C1168  C1185   1.401   .     S
C1168  O1218   1.289   .     A
C1168  O1080   1.278   1_655 S
C1169  C1171   1.406   .     A
C1169  C1173   1.407   .     A
C1170  C570    1.387   1_556 S
C1172  C1181   1.448   .     A
C1172  C561    1.424   1_556 S
C1173  C1179   1.436   .     A
C1174  C1179   1.531   .     S
C1174  C1175   1.536   .     S
C1174  H1197   1.103   .     S
C1174  H1196   1.113   .     S
C1175  H1194   1.108   .     S
C1175  H1195   1.112   .     S
C1175  C768    1.526   1_565 S
C1176  H1193   1.110   .     S
C1176  H1056   1.110   1_655 S
C1177  H1204   1.104   .     S
C1177  H1205   1.103   .     S
C1177  C1178   1.540   .     S
C1177  C1181   1.518   .     S
C1178  C1180   1.524   .     S
C1178  H1203   1.112   .     S
C1178  H1202   1.111   .     S
C1179  C1182   1.396   .     A
C1180  H1201   1.111   .     S
C1180  H1200   1.110   .     S
C1180  H1199   1.109   .     S
C1181  C1183   1.402   .     A
C1182  H1187   1.085   .     S
C1183  H1198   1.086   .     S
C1183  C559    1.383   1_556 S
C1184  C709    1.337   1_565 S
C1184  H804    1.087   1_565 S
C1185  C844    1.337   1_655 S
C1186  O1221   1.301   .     A
H1188  C777    1.088   1_565 S
H1189  N1213   1.029   .     S
H1190  N1214   1.029   .     S
H1191  C768    1.111   1_565 S
H1209  C1027   1.083   1_655 S
N1213  N1214   1.285   .     D
N1213  Zn1224  2.021   .     S
N1214  Zn1223  2.021   .     S
O1215  Zn1223  1.952   .     S
O1215  C1021   1.277   1_655 S
O1216  Zn1224  1.952   .     S
O1217  Zn1224  1.977   .     S
O1218  Zn1223  1.977   .     S
O1219  Zn1223  1.937   .     S
O1219  C1050   1.291   1_655 S
O1220  Zn1224  1.937   .     S
O1221  Zn1224  1.897   .     S
O1222  Zn1223  1.897   .     S
