data_str_m2_o1_o1_pcu_sym.55
_audit_creation_date              2020-01-03
_audit_creation_method            'Materials Studio'
_symmetry_space_group_name_H-M    'P1'
_symmetry_Int_Tables_number       1
_symmetry_cell_setting            triclinic
loop_
_symmetry_equiv_pos_as_xyz
  x,y,z
_cell_length_a                    32.1252
_cell_length_b                    28.9499
_cell_length_c                    29.1514
_cell_angle_alpha                 89.8853
_cell_angle_beta                  89.8902
_cell_angle_gamma                 89.6479
loop_
_atom_site_label
_atom_site_type_symbol
_atom_site_fract_x
_atom_site_fract_y
_atom_site_fract_z
_atom_site_U_iso_or_equiv
_atom_site_adp_type
_atom_site_occupancy
C1     C     0.05916   0.19053   0.16666   0.00000  Uiso   1.00
C2     C     0.49442   0.29000   0.30931   0.00000  Uiso   1.00
C3     C     0.00163   0.29034   0.02421   0.00000  Uiso   1.00
C4     C     0.00621   0.20993   0.30896   0.00000  Uiso   1.00
C5     C     0.25556   0.46000   0.02402   0.00000  Uiso   1.00
C6     C     0.24793   0.04055   0.30860   0.00000  Uiso   1.00
C7     C     0.24380   0.04008   0.02437   0.00000  Uiso   1.00
C8     C     0.24838   0.45966   0.30912   0.00000  Uiso   1.00
C9     C     0.38546   0.14781   0.12618   0.00000  Uiso   1.00
C10    C     0.10801   0.36077   0.20825   0.00000  Uiso   1.00
C11    C     0.11313   0.35401   0.12590   0.00000  Uiso   1.00
C12    C     0.43970   0.30811   0.16655   0.00000  Uiso   1.00
C13    C     0.39414   0.13665   0.20773   0.00000  Uiso   1.00
C14    C     0.13396   0.17224   0.16868   0.00000  Uiso   1.00
C15    C     0.39128   0.36001   0.12497   0.00000  Uiso   1.00
C16    C     0.38713   0.35412   0.20751   0.00000  Uiso   1.00
C17    C     0.08377   0.11003   0.16471   0.00000  Uiso   1.00
C18    C     0.14196   0.38927   0.12508   0.00000  Uiso   1.00
C19    C     0.36456   0.10216   0.20715   0.00000  Uiso   1.00
C20    C     0.35588   0.11332   0.12560   0.00000  Uiso   1.00
C21    C     0.13684   0.39603   0.20743   0.00000  Uiso   1.00
C22    C     0.35876   0.39004   0.20836   0.00000  Uiso   1.00
C23    C     0.44008   0.19136   0.16676   0.00000  Uiso   1.00
C24    C     0.11605   0.07776   0.16467   0.00000  Uiso   1.00
C25    C     0.16623   0.13997   0.16864   0.00000  Uiso   1.00
C26    C     0.36291   0.39593   0.12583   0.00000  Uiso   1.00
C27    C     0.09455   0.34091   0.16712   0.00000  Uiso   1.00
C28    C     0.40586   0.15861   0.16699   0.00000  Uiso   1.00
C29    C     0.40512   0.34048   0.16617   0.00000  Uiso   1.00
C30    C     0.09277   0.15715   0.16662   0.00000  Uiso   1.00
C31    C     0.34415   0.09136   0.16634   0.00000  Uiso   1.00
C32    C     0.15543   0.40912   0.16621   0.00000  Uiso   1.00
C33    C     0.15723   0.09285   0.16672   0.00000  Uiso   1.00
C34    C     0.06015   0.30835   0.16675   0.00000  Uiso   1.00
C35    C     0.34490   0.40956   0.16716   0.00000  Uiso   1.00
C36    C     0.00158   0.16391   0.04805   0.00000  Uiso   1.00
C37    C     0.03909   0.14028   0.05672   0.00000  Uiso   1.00
C38    C     0.03889   0.09346   0.06857   0.00000  Uiso   1.00
C39    C     0.00123   0.06996   0.07264   0.00000  Uiso   1.00
C40    C     0.46385   0.09284   0.06308   0.00000  Uiso   1.00
C41    C     0.46419   0.13924   0.04968   0.00000  Uiso   1.00
C42    C     0.47726   0.33394   0.29027   0.00000  Uiso   1.00
C43    C     0.00207   0.36479   0.26541   0.00000  Uiso   1.00
C44    C     0.48842   0.40974   0.25596   0.00000  Uiso   1.00
C45    C     0.31031   0.44190   0.16678   0.00000  Uiso   1.00
C46    C     0.45063   0.42549   0.27379   0.00000  Uiso   1.00
C47    C     0.42669   0.39625   0.30112   0.00000  Uiso   1.00
C48    C     0.43967   0.35070   0.30894   0.00000  Uiso   1.00
C49    C     0.01981   0.33384   0.04252   0.00000  Uiso   1.00
C50    C     0.49595   0.36589   0.06730   0.00000  Uiso   1.00
C51    C     0.01084   0.41021   0.07631   0.00000  Uiso   1.00
C52    C     0.04908   0.42405   0.05841   0.00000  Uiso   1.00
C53    C     0.07236   0.39347   0.03162   0.00000  Uiso   1.00
C54    C     0.05815   0.34849   0.02421   0.00000  Uiso   1.00
C55    C     0.02019   0.16655   0.28677   0.00000  Uiso   1.00
C56    C     0.19084   0.05947   0.16667   0.00000  Uiso   1.00
C57    C     0.49158   0.13145   0.27767   0.00000  Uiso   1.00
C58    C     0.00523   0.08721   0.26547   0.00000  Uiso   1.00
C59    C     0.04778   0.07722   0.26394   0.00000  Uiso   1.00
C60    C     0.07664   0.11156   0.27428   0.00000  Uiso   1.00
C61    C     0.06301   0.15601   0.28571   0.00000  Uiso   1.00
C62    C     0.27270   0.41605   0.04308   0.00000  Uiso   1.00
C63    C     0.24786   0.38521   0.06792   0.00000  Uiso   1.00
C64    C     0.26150   0.34026   0.07740   0.00000  Uiso   1.00
C65    C     0.29931   0.32451   0.05962   0.00000  Uiso   1.00
C66    C     0.32327   0.35373   0.03232   0.00000  Uiso   1.00
C67    C     0.18984   0.44166   0.16658   0.00000  Uiso   1.00
C68    C     0.31030   0.39928   0.02446   0.00000  Uiso   1.00
C69    C     0.24845   0.08609   0.28528   0.00000  Uiso   1.00
C70    C     0.28586   0.11074   0.28364   0.00000  Uiso   1.00
C71    C     0.28622   0.15714   0.27025   0.00000  Uiso   1.00
C72    C     0.24884   0.18005   0.26070   0.00000  Uiso   1.00
C73    C     0.21117   0.15657   0.26477   0.00000  Uiso   1.00
C74    C     0.21095   0.10975   0.27661   0.00000  Uiso   1.00
C75    C     0.22986   0.08346   0.04657   0.00000  Uiso   1.00
C76    C     0.18706   0.09406   0.04767   0.00000  Uiso   1.00
C77    C     0.17347   0.13851   0.05915   0.00000  Uiso   1.00
C78    C     0.30992   0.05863   0.16657   0.00000  Uiso   1.00
C79    C     0.20236   0.17282   0.06947   0.00000  Uiso   1.00
C80    C     0.24490   0.16279   0.06787   0.00000  Uiso   1.00
C81    C     0.25850   0.11854   0.05564   0.00000  Uiso   1.00
C82    C     0.23022   0.41615   0.29079   0.00000  Uiso   1.00
C83    C     0.19187   0.40148   0.30906   0.00000  Uiso   1.00
C84    C     0.17768   0.35650   0.30163   0.00000  Uiso   1.00
C85    C     0.20100   0.32593   0.27486   0.00000  Uiso   1.00
C86    C     0.23924   0.33979   0.25700   0.00000  Uiso   1.00
C87    C     0.25412   0.38412   0.26604   0.00000  Uiso   1.00
C88    C     0.00208   0.20945   0.02473   0.00000  Uiso   1.00
Cu89   Cu    0.00000   0.25000   0.21355   0.00000  Uiso   1.00
Cu90   Cu    0.00000   0.25000   0.11978   0.00000  Uiso   1.00
Cu91   Cu    0.25000   0.00000   0.21355   0.00000  Uiso   1.00
Cu92   Cu    0.25000   0.00000   0.11978   0.00000  Uiso   1.00
H93    H     0.39197   0.16621   0.09485   0.00000  Uiso   1.00
H94    H     0.35805   0.08376   0.23848   0.00000  Uiso   1.00
H95    H     0.34261   0.10379   0.09327   0.00000  Uiso   1.00
H96    H     0.14445   0.41325   0.23896   0.00000  Uiso   1.00
H97    H     0.34834   0.40247   0.24127   0.00000  Uiso   1.00
H98    H     0.10899   0.04124   0.16326   0.00000  Uiso   1.00
H99    H     0.19819   0.15165   0.16957   0.00000  Uiso   1.00
H100   H     0.35517   0.41319   0.09429   0.00000  Uiso   1.00
H101   H     0.06848   0.15777   0.05238   0.00000  Uiso   1.00
H102   H     0.06799   0.07529   0.07414   0.00000  Uiso   1.00
H103   H     0.00111   0.03376   0.08201   0.00000  Uiso   1.00
H104   H     0.09695   0.34910   0.24117   0.00000  Uiso   1.00
H105   H     0.43476   0.07421   0.06443   0.00000  Uiso   1.00
H106   H     0.43573   0.15539   0.03789   0.00000  Uiso   1.00
H107   H     0.03313   0.35566   0.25669   0.00000  Uiso   1.00
H108   H     0.00804   0.43298   0.23657   0.00000  Uiso   1.00
H109   H     0.44042   0.46062   0.26744   0.00000  Uiso   1.00
H110   H     0.39812   0.40885   0.31622   0.00000  Uiso   1.00
H111   H     0.42126   0.32876   0.33105   0.00000  Uiso   1.00
H112   H     0.46486   0.35804   0.07680   0.00000  Uiso   1.00
H113   H     0.49194   0.43443   0.09562   0.00000  Uiso   1.00
H114   H     0.06026   0.45869   0.06453   0.00000  Uiso   1.00
H115   H     0.10552   0.33679   0.09438   0.00000  Uiso   1.00
H116   H     0.10150   0.40455   0.01681   0.00000  Uiso   1.00
H117   H     0.07627   0.32547   0.00266   0.00000  Uiso   1.00
H118   H     0.45903   0.13747   0.28381   0.00000  Uiso   1.00
H119   H     0.48282   0.06028   0.25886   0.00000  Uiso   1.00
H120   H     0.05840   0.04279   0.25515   0.00000  Uiso   1.00
H121   H     0.10954   0.10368   0.27359   0.00000  Uiso   1.00
H122   H     0.08567   0.18189   0.29504   0.00000  Uiso   1.00
H123   H     0.21679   0.39435   0.07658   0.00000  Uiso   1.00
H124   H     0.24185   0.31703   0.09677   0.00000  Uiso   1.00
H125   H     0.30950   0.28938   0.06601   0.00000  Uiso   1.00
H126   H     0.40741   0.14618   0.24006   0.00000  Uiso   1.00
H127   H     0.35186   0.34112   0.01725   0.00000  Uiso   1.00
H128   H     0.32874   0.42121   0.00236   0.00000  Uiso   1.00
H129   H     0.31431   0.09457   0.29544   0.00000  Uiso   1.00
H130   H     0.31531   0.17575   0.26890   0.00000  Uiso   1.00
H131   H     0.24898   0.21624   0.25133   0.00000  Uiso   1.00
H132   H     0.18209   0.17477   0.25920   0.00000  Uiso   1.00
H133   H     0.18155   0.09228   0.28095   0.00000  Uiso   1.00
H134   H     0.16436   0.06819   0.03837   0.00000  Uiso   1.00
H135   H     0.14058   0.14642   0.05989   0.00000  Uiso   1.00
H136   H     0.19177   0.20725   0.07829   0.00000  Uiso   1.00
H137   H     0.14101   0.20876   0.17008   0.00000  Uiso   1.00
H138   H     0.26734   0.18970   0.07445   0.00000  Uiso   1.00
H139   H     0.29105   0.11249   0.04946   0.00000  Uiso   1.00
H140   H     0.17373   0.42449   0.33060   0.00000  Uiso   1.00
H141   H     0.14853   0.34541   0.31641   0.00000  Uiso   1.00
H142   H     0.18983   0.29129   0.26872   0.00000  Uiso   1.00
H143   H     0.25817   0.31558   0.23772   0.00000  Uiso   1.00
H144   H     0.28521   0.39198   0.25659   0.00000  Uiso   1.00
H145   H     0.40171   0.34758   0.09206   0.00000  Uiso   1.00
H146   H     0.39487   0.33686   0.23905   0.00000  Uiso   1.00
H147   H     0.05181   0.09835   0.16378   0.00000  Uiso   1.00
H148   H     0.15300   0.40096   0.09217   0.00000  Uiso   1.00
N149   N     0.00000   0.25000   0.28402   0.00000  Uiso   1.00
N150   N     0.00000   0.25000   0.04931   0.00000  Uiso   1.00
N151   N     0.25000   0.00000   0.28402   0.00000  Uiso   1.00
N152   N     0.25000   0.00000   0.04931   0.00000  Uiso   1.00
O153   O     0.04509   0.20491   0.20625   0.00000  Uiso   1.00
O154   O     0.20492   0.04509   0.12709   0.00000  Uiso   1.00
O155   O     0.20492   0.04509   0.20625   0.00000  Uiso   1.00
O156   O     0.29509   0.45491   0.12709   0.00000  Uiso   1.00
O157   O     0.20492   0.45491   0.12709   0.00000  Uiso   1.00
O158   O     0.29509   0.04509   0.20625   0.00000  Uiso   1.00
O159   O     0.29509   0.04509   0.12709   0.00000  Uiso   1.00
O160   O     0.20492   0.45491   0.20625   0.00000  Uiso   1.00
O161   O     0.45492   0.29509   0.12709   0.00000  Uiso   1.00
O162   O     0.45492   0.29509   0.20625   0.00000  Uiso   1.00
O163   O     0.04509   0.20491   0.12709   0.00000  Uiso   1.00
O164   O     0.45492   0.20491   0.12709   0.00000  Uiso   1.00
O165   O     0.04509   0.29509   0.20625   0.00000  Uiso   1.00
O166   O     0.04509   0.29509   0.12709   0.00000  Uiso   1.00
O167   O     0.45492   0.20491   0.20625   0.00000  Uiso   1.00
O168   O     0.29509   0.45491   0.20625   0.00000  Uiso   1.00
C169   C     0.55916   0.19053   0.16666   0.00000  Uiso   1.00
C170   C     0.99442   0.29000   0.30931   0.00000  Uiso   1.00
C171   C     0.50163   0.29034   0.02421   0.00000  Uiso   1.00
C172   C     0.50621   0.20993   0.30896   0.00000  Uiso   1.00
C173   C     0.75556   0.46000   0.02402   0.00000  Uiso   1.00
C174   C     0.74793   0.04055   0.30860   0.00000  Uiso   1.00
C175   C     0.74380   0.04008   0.02437   0.00000  Uiso   1.00
C176   C     0.74838   0.45966   0.30912   0.00000  Uiso   1.00
C177   C     0.88546   0.14781   0.12618   0.00000  Uiso   1.00
C178   C     0.60801   0.36077   0.20825   0.00000  Uiso   1.00
C179   C     0.61313   0.35401   0.12590   0.00000  Uiso   1.00
C180   C     0.93970   0.30811   0.16655   0.00000  Uiso   1.00
C181   C     0.89414   0.13665   0.20773   0.00000  Uiso   1.00
C182   C     0.63396   0.17224   0.16868   0.00000  Uiso   1.00
C183   C     0.89128   0.36001   0.12497   0.00000  Uiso   1.00
C184   C     0.88713   0.35412   0.20751   0.00000  Uiso   1.00
C185   C     0.58377   0.11003   0.16471   0.00000  Uiso   1.00
C186   C     0.64196   0.38927   0.12508   0.00000  Uiso   1.00
C187   C     0.86456   0.10216   0.20715   0.00000  Uiso   1.00
C188   C     0.85588   0.11332   0.12560   0.00000  Uiso   1.00
C189   C     0.63684   0.39603   0.20743   0.00000  Uiso   1.00
C190   C     0.85876   0.39004   0.20836   0.00000  Uiso   1.00
C191   C     0.94008   0.19136   0.16676   0.00000  Uiso   1.00
C192   C     0.61605   0.07776   0.16467   0.00000  Uiso   1.00
C193   C     0.66623   0.13997   0.16864   0.00000  Uiso   1.00
C194   C     0.86291   0.39593   0.12583   0.00000  Uiso   1.00
C195   C     0.59455   0.34091   0.16712   0.00000  Uiso   1.00
C196   C     0.90586   0.15861   0.16699   0.00000  Uiso   1.00
C197   C     0.90512   0.34048   0.16617   0.00000  Uiso   1.00
C198   C     0.59277   0.15715   0.16662   0.00000  Uiso   1.00
C199   C     0.84415   0.09136   0.16634   0.00000  Uiso   1.00
C200   C     0.65543   0.40912   0.16621   0.00000  Uiso   1.00
C201   C     0.65723   0.09285   0.16672   0.00000  Uiso   1.00
C202   C     0.56015   0.30835   0.16675   0.00000  Uiso   1.00
C203   C     0.84490   0.40956   0.16716   0.00000  Uiso   1.00
C204   C     0.50158   0.16391   0.04805   0.00000  Uiso   1.00
C205   C     0.53909   0.14028   0.05672   0.00000  Uiso   1.00
C206   C     0.53889   0.09346   0.06857   0.00000  Uiso   1.00
C207   C     0.50123   0.06996   0.07264   0.00000  Uiso   1.00
C208   C     0.96385   0.09284   0.06308   0.00000  Uiso   1.00
C209   C     0.96419   0.13924   0.04968   0.00000  Uiso   1.00
C210   C     0.97726   0.33394   0.29027   0.00000  Uiso   1.00
C211   C     0.50207   0.36479   0.26541   0.00000  Uiso   1.00
C212   C     0.98842   0.40974   0.25596   0.00000  Uiso   1.00
C213   C     0.81031   0.44190   0.16678   0.00000  Uiso   1.00
C214   C     0.95063   0.42549   0.27379   0.00000  Uiso   1.00
C215   C     0.92669   0.39625   0.30112   0.00000  Uiso   1.00
C216   C     0.93967   0.35070   0.30894   0.00000  Uiso   1.00
C217   C     0.51981   0.33384   0.04252   0.00000  Uiso   1.00
C218   C     0.99595   0.36589   0.06730   0.00000  Uiso   1.00
C219   C     0.51084   0.41021   0.07631   0.00000  Uiso   1.00
C220   C     0.54908   0.42405   0.05841   0.00000  Uiso   1.00
C221   C     0.57236   0.39347   0.03162   0.00000  Uiso   1.00
C222   C     0.55815   0.34849   0.02421   0.00000  Uiso   1.00
C223   C     0.52019   0.16655   0.28677   0.00000  Uiso   1.00
C224   C     0.69084   0.05947   0.16667   0.00000  Uiso   1.00
C225   C     0.99158   0.13145   0.27767   0.00000  Uiso   1.00
C226   C     0.50523   0.08721   0.26547   0.00000  Uiso   1.00
C227   C     0.54778   0.07722   0.26394   0.00000  Uiso   1.00
C228   C     0.57664   0.11156   0.27428   0.00000  Uiso   1.00
C229   C     0.56301   0.15601   0.28571   0.00000  Uiso   1.00
C230   C     0.77270   0.41605   0.04308   0.00000  Uiso   1.00
C231   C     0.74786   0.38521   0.06792   0.00000  Uiso   1.00
C232   C     0.76150   0.34026   0.07740   0.00000  Uiso   1.00
C233   C     0.79931   0.32451   0.05962   0.00000  Uiso   1.00
C234   C     0.82327   0.35373   0.03232   0.00000  Uiso   1.00
C235   C     0.68984   0.44166   0.16658   0.00000  Uiso   1.00
C236   C     0.81030   0.39928   0.02446   0.00000  Uiso   1.00
C237   C     0.74845   0.08609   0.28528   0.00000  Uiso   1.00
C238   C     0.78586   0.11074   0.28364   0.00000  Uiso   1.00
C239   C     0.78622   0.15714   0.27025   0.00000  Uiso   1.00
C240   C     0.74884   0.18005   0.26070   0.00000  Uiso   1.00
C241   C     0.71117   0.15657   0.26477   0.00000  Uiso   1.00
C242   C     0.71095   0.10975   0.27661   0.00000  Uiso   1.00
C243   C     0.72986   0.08346   0.04657   0.00000  Uiso   1.00
C244   C     0.68706   0.09406   0.04767   0.00000  Uiso   1.00
C245   C     0.67347   0.13851   0.05915   0.00000  Uiso   1.00
C246   C     0.80992   0.05863   0.16657   0.00000  Uiso   1.00
C247   C     0.70236   0.17282   0.06947   0.00000  Uiso   1.00
C248   C     0.74490   0.16279   0.06787   0.00000  Uiso   1.00
C249   C     0.75850   0.11854   0.05564   0.00000  Uiso   1.00
C250   C     0.73022   0.41615   0.29079   0.00000  Uiso   1.00
C251   C     0.69187   0.40148   0.30906   0.00000  Uiso   1.00
C252   C     0.67768   0.35650   0.30163   0.00000  Uiso   1.00
C253   C     0.70100   0.32593   0.27486   0.00000  Uiso   1.00
C254   C     0.73924   0.33979   0.25700   0.00000  Uiso   1.00
C255   C     0.75412   0.38412   0.26604   0.00000  Uiso   1.00
C256   C     0.50208   0.20945   0.02473   0.00000  Uiso   1.00
Cu257  Cu    0.50000   0.25000   0.21355   0.00000  Uiso   1.00
Cu258  Cu    0.50000   0.25000   0.11978   0.00000  Uiso   1.00
Cu259  Cu    0.75000   0.00000   0.21355   0.00000  Uiso   1.00
Cu260  Cu    0.75000   0.00000   0.11978   0.00000  Uiso   1.00
H261   H     0.89197   0.16621   0.09485   0.00000  Uiso   1.00
H262   H     0.85805   0.08376   0.23848   0.00000  Uiso   1.00
H263   H     0.84261   0.10379   0.09327   0.00000  Uiso   1.00
H264   H     0.64445   0.41325   0.23896   0.00000  Uiso   1.00
H265   H     0.84834   0.40247   0.24127   0.00000  Uiso   1.00
H266   H     0.60899   0.04124   0.16326   0.00000  Uiso   1.00
H267   H     0.69819   0.15165   0.16957   0.00000  Uiso   1.00
H268   H     0.85517   0.41319   0.09429   0.00000  Uiso   1.00
H269   H     0.56848   0.15777   0.05238   0.00000  Uiso   1.00
H270   H     0.56799   0.07529   0.07414   0.00000  Uiso   1.00
H271   H     0.50111   0.03376   0.08201   0.00000  Uiso   1.00
H272   H     0.59695   0.34910   0.24117   0.00000  Uiso   1.00
H273   H     0.93476   0.07421   0.06443   0.00000  Uiso   1.00
H274   H     0.93573   0.15539   0.03789   0.00000  Uiso   1.00
H275   H     0.53313   0.35566   0.25669   0.00000  Uiso   1.00
H276   H     0.50804   0.43298   0.23657   0.00000  Uiso   1.00
H277   H     0.94042   0.46062   0.26744   0.00000  Uiso   1.00
H278   H     0.89812   0.40885   0.31622   0.00000  Uiso   1.00
H279   H     0.92126   0.32876   0.33105   0.00000  Uiso   1.00
H280   H     0.96486   0.35804   0.07680   0.00000  Uiso   1.00
H281   H     0.99194   0.43443   0.09562   0.00000  Uiso   1.00
H282   H     0.56026   0.45869   0.06453   0.00000  Uiso   1.00
H283   H     0.60552   0.33679   0.09438   0.00000  Uiso   1.00
H284   H     0.60150   0.40455   0.01681   0.00000  Uiso   1.00
H285   H     0.57627   0.32547   0.00266   0.00000  Uiso   1.00
H286   H     0.95903   0.13747   0.28381   0.00000  Uiso   1.00
H287   H     0.98282   0.06028   0.25886   0.00000  Uiso   1.00
H288   H     0.55840   0.04279   0.25515   0.00000  Uiso   1.00
H289   H     0.60954   0.10368   0.27359   0.00000  Uiso   1.00
H290   H     0.58567   0.18189   0.29504   0.00000  Uiso   1.00
H291   H     0.71679   0.39435   0.07658   0.00000  Uiso   1.00
H292   H     0.74185   0.31703   0.09677   0.00000  Uiso   1.00
H293   H     0.80950   0.28938   0.06601   0.00000  Uiso   1.00
H294   H     0.90741   0.14618   0.24006   0.00000  Uiso   1.00
H295   H     0.85186   0.34112   0.01725   0.00000  Uiso   1.00
H296   H     0.82874   0.42121   0.00236   0.00000  Uiso   1.00
H297   H     0.81431   0.09457   0.29544   0.00000  Uiso   1.00
H298   H     0.81531   0.17575   0.26890   0.00000  Uiso   1.00
H299   H     0.74898   0.21624   0.25133   0.00000  Uiso   1.00
H300   H     0.68209   0.17477   0.25920   0.00000  Uiso   1.00
H301   H     0.68155   0.09228   0.28095   0.00000  Uiso   1.00
H302   H     0.66436   0.06819   0.03837   0.00000  Uiso   1.00
H303   H     0.64058   0.14642   0.05989   0.00000  Uiso   1.00
H304   H     0.69177   0.20725   0.07829   0.00000  Uiso   1.00
H305   H     0.64101   0.20876   0.17008   0.00000  Uiso   1.00
H306   H     0.76734   0.18970   0.07445   0.00000  Uiso   1.00
H307   H     0.79105   0.11249   0.04946   0.00000  Uiso   1.00
H308   H     0.67373   0.42449   0.33060   0.00000  Uiso   1.00
H309   H     0.64853   0.34541   0.31641   0.00000  Uiso   1.00
H310   H     0.68983   0.29129   0.26872   0.00000  Uiso   1.00
H311   H     0.75817   0.31558   0.23772   0.00000  Uiso   1.00
H312   H     0.78521   0.39198   0.25659   0.00000  Uiso   1.00
H313   H     0.90171   0.34758   0.09206   0.00000  Uiso   1.00
H314   H     0.89487   0.33686   0.23905   0.00000  Uiso   1.00
H315   H     0.55181   0.09835   0.16378   0.00000  Uiso   1.00
H316   H     0.65300   0.40096   0.09217   0.00000  Uiso   1.00
N317   N     0.50000   0.25000   0.28402   0.00000  Uiso   1.00
N318   N     0.50000   0.25000   0.04931   0.00000  Uiso   1.00
N319   N     0.75000   0.00000   0.28402   0.00000  Uiso   1.00
N320   N     0.75000   0.00000   0.04931   0.00000  Uiso   1.00
O321   O     0.54509   0.20491   0.20625   0.00000  Uiso   1.00
O322   O     0.70492   0.04509   0.12709   0.00000  Uiso   1.00
O323   O     0.70492   0.04509   0.20625   0.00000  Uiso   1.00
O324   O     0.79509   0.45491   0.12709   0.00000  Uiso   1.00
O325   O     0.70492   0.45491   0.12709   0.00000  Uiso   1.00
O326   O     0.79509   0.04509   0.20625   0.00000  Uiso   1.00
O327   O     0.79509   0.04509   0.12709   0.00000  Uiso   1.00
O328   O     0.70492   0.45491   0.20625   0.00000  Uiso   1.00
O329   O     0.95492   0.29509   0.12709   0.00000  Uiso   1.00
O330   O     0.95492   0.29509   0.20625   0.00000  Uiso   1.00
O331   O     0.54509   0.20491   0.12709   0.00000  Uiso   1.00
O332   O     0.95492   0.20491   0.12709   0.00000  Uiso   1.00
O333   O     0.54509   0.29509   0.20625   0.00000  Uiso   1.00
O334   O     0.54509   0.29509   0.12709   0.00000  Uiso   1.00
O335   O     0.95492   0.20491   0.20625   0.00000  Uiso   1.00
O336   O     0.79509   0.45491   0.20625   0.00000  Uiso   1.00
C337   C     0.05916   0.69053   0.16666   0.00000  Uiso   1.00
C338   C     0.49442   0.79000   0.30931   0.00000  Uiso   1.00
C339   C     0.00163   0.79034   0.02421   0.00000  Uiso   1.00
C340   C     0.00621   0.70993   0.30896   0.00000  Uiso   1.00
C341   C     0.25556   0.96000   0.02402   0.00000  Uiso   1.00
C342   C     0.24793   0.54055   0.30860   0.00000  Uiso   1.00
C343   C     0.24380   0.54008   0.02437   0.00000  Uiso   1.00
C344   C     0.24838   0.95966   0.30912   0.00000  Uiso   1.00
C345   C     0.38546   0.64781   0.12618   0.00000  Uiso   1.00
C346   C     0.10801   0.86077   0.20825   0.00000  Uiso   1.00
C347   C     0.11313   0.85401   0.12590   0.00000  Uiso   1.00
C348   C     0.43970   0.80811   0.16655   0.00000  Uiso   1.00
C349   C     0.39414   0.63665   0.20773   0.00000  Uiso   1.00
C350   C     0.13396   0.67224   0.16868   0.00000  Uiso   1.00
C351   C     0.39128   0.86001   0.12497   0.00000  Uiso   1.00
C352   C     0.38713   0.85412   0.20751   0.00000  Uiso   1.00
C353   C     0.08377   0.61003   0.16471   0.00000  Uiso   1.00
C354   C     0.14196   0.88927   0.12508   0.00000  Uiso   1.00
C355   C     0.36456   0.60216   0.20715   0.00000  Uiso   1.00
C356   C     0.35588   0.61332   0.12560   0.00000  Uiso   1.00
C357   C     0.13684   0.89603   0.20743   0.00000  Uiso   1.00
C358   C     0.35876   0.89004   0.20836   0.00000  Uiso   1.00
C359   C     0.44008   0.69136   0.16676   0.00000  Uiso   1.00
C360   C     0.11605   0.57776   0.16467   0.00000  Uiso   1.00
C361   C     0.16623   0.63997   0.16864   0.00000  Uiso   1.00
C362   C     0.36291   0.89593   0.12583   0.00000  Uiso   1.00
C363   C     0.09455   0.84091   0.16712   0.00000  Uiso   1.00
C364   C     0.40586   0.65861   0.16699   0.00000  Uiso   1.00
C365   C     0.40512   0.84048   0.16617   0.00000  Uiso   1.00
C366   C     0.09277   0.65715   0.16662   0.00000  Uiso   1.00
C367   C     0.34415   0.59136   0.16634   0.00000  Uiso   1.00
C368   C     0.15543   0.90912   0.16621   0.00000  Uiso   1.00
C369   C     0.15723   0.59285   0.16672   0.00000  Uiso   1.00
C370   C     0.06015   0.80835   0.16675   0.00000  Uiso   1.00
C371   C     0.34490   0.90956   0.16716   0.00000  Uiso   1.00
C372   C     0.00158   0.66391   0.04805   0.00000  Uiso   1.00
C373   C     0.03909   0.64028   0.05672   0.00000  Uiso   1.00
C374   C     0.03889   0.59346   0.06857   0.00000  Uiso   1.00
C375   C     0.00123   0.56996   0.07264   0.00000  Uiso   1.00
C376   C     0.46385   0.59284   0.06308   0.00000  Uiso   1.00
C377   C     0.46419   0.63924   0.04968   0.00000  Uiso   1.00
C378   C     0.47726   0.83394   0.29027   0.00000  Uiso   1.00
C379   C     0.00207   0.86479   0.26541   0.00000  Uiso   1.00
C380   C     0.48842   0.90974   0.25596   0.00000  Uiso   1.00
C381   C     0.31031   0.94190   0.16678   0.00000  Uiso   1.00
C382   C     0.45063   0.92549   0.27379   0.00000  Uiso   1.00
C383   C     0.42669   0.89625   0.30112   0.00000  Uiso   1.00
C384   C     0.43967   0.85070   0.30894   0.00000  Uiso   1.00
C385   C     0.01981   0.83384   0.04252   0.00000  Uiso   1.00
C386   C     0.49595   0.86589   0.06730   0.00000  Uiso   1.00
C387   C     0.01084   0.91021   0.07631   0.00000  Uiso   1.00
C388   C     0.04908   0.92405   0.05841   0.00000  Uiso   1.00
C389   C     0.07236   0.89347   0.03162   0.00000  Uiso   1.00
C390   C     0.05815   0.84849   0.02421   0.00000  Uiso   1.00
C391   C     0.02019   0.66655   0.28677   0.00000  Uiso   1.00
C392   C     0.19084   0.55947   0.16667   0.00000  Uiso   1.00
C393   C     0.49158   0.63145   0.27767   0.00000  Uiso   1.00
C394   C     0.00523   0.58721   0.26547   0.00000  Uiso   1.00
C395   C     0.04778   0.57722   0.26394   0.00000  Uiso   1.00
C396   C     0.07664   0.61156   0.27428   0.00000  Uiso   1.00
C397   C     0.06301   0.65601   0.28571   0.00000  Uiso   1.00
C398   C     0.27270   0.91605   0.04308   0.00000  Uiso   1.00
C399   C     0.24786   0.88521   0.06792   0.00000  Uiso   1.00
C400   C     0.26150   0.84026   0.07740   0.00000  Uiso   1.00
C401   C     0.29931   0.82451   0.05962   0.00000  Uiso   1.00
C402   C     0.32327   0.85373   0.03232   0.00000  Uiso   1.00
C403   C     0.18984   0.94166   0.16658   0.00000  Uiso   1.00
C404   C     0.31030   0.89928   0.02446   0.00000  Uiso   1.00
C405   C     0.24845   0.58609   0.28528   0.00000  Uiso   1.00
C406   C     0.28586   0.61074   0.28364   0.00000  Uiso   1.00
C407   C     0.28622   0.65714   0.27025   0.00000  Uiso   1.00
C408   C     0.24884   0.68005   0.26070   0.00000  Uiso   1.00
C409   C     0.21117   0.65657   0.26477   0.00000  Uiso   1.00
C410   C     0.21095   0.60975   0.27661   0.00000  Uiso   1.00
C411   C     0.22986   0.58346   0.04657   0.00000  Uiso   1.00
C412   C     0.18706   0.59406   0.04767   0.00000  Uiso   1.00
C413   C     0.17347   0.63851   0.05915   0.00000  Uiso   1.00
C414   C     0.30992   0.55863   0.16657   0.00000  Uiso   1.00
C415   C     0.20236   0.67282   0.06947   0.00000  Uiso   1.00
C416   C     0.24490   0.66279   0.06787   0.00000  Uiso   1.00
C417   C     0.25850   0.61854   0.05564   0.00000  Uiso   1.00
C418   C     0.23022   0.91615   0.29079   0.00000  Uiso   1.00
C419   C     0.19187   0.90148   0.30906   0.00000  Uiso   1.00
C420   C     0.17768   0.85650   0.30163   0.00000  Uiso   1.00
C421   C     0.20100   0.82593   0.27486   0.00000  Uiso   1.00
C422   C     0.23924   0.83979   0.25700   0.00000  Uiso   1.00
C423   C     0.25412   0.88412   0.26604   0.00000  Uiso   1.00
C424   C     0.00208   0.70945   0.02473   0.00000  Uiso   1.00
Cu425  Cu    0.00000   0.75000   0.21355   0.00000  Uiso   1.00
Cu426  Cu    0.00000   0.75000   0.11978   0.00000  Uiso   1.00
Cu427  Cu    0.25000   0.50000   0.21355   0.00000  Uiso   1.00
Cu428  Cu    0.25000   0.50000   0.11978   0.00000  Uiso   1.00
H429   H     0.39197   0.66621   0.09485   0.00000  Uiso   1.00
H430   H     0.35805   0.58376   0.23848   0.00000  Uiso   1.00
H431   H     0.34261   0.60379   0.09327   0.00000  Uiso   1.00
H432   H     0.14445   0.91325   0.23896   0.00000  Uiso   1.00
H433   H     0.34834   0.90247   0.24127   0.00000  Uiso   1.00
H434   H     0.10899   0.54124   0.16326   0.00000  Uiso   1.00
H435   H     0.19819   0.65165   0.16957   0.00000  Uiso   1.00
H436   H     0.35517   0.91319   0.09429   0.00000  Uiso   1.00
H437   H     0.06848   0.65777   0.05238   0.00000  Uiso   1.00
H438   H     0.06799   0.57529   0.07414   0.00000  Uiso   1.00
H439   H     0.00111   0.53376   0.08201   0.00000  Uiso   1.00
H440   H     0.09695   0.84910   0.24117   0.00000  Uiso   1.00
H441   H     0.43476   0.57421   0.06443   0.00000  Uiso   1.00
H442   H     0.43573   0.65539   0.03789   0.00000  Uiso   1.00
H443   H     0.03313   0.85566   0.25669   0.00000  Uiso   1.00
H444   H     0.00804   0.93298   0.23657   0.00000  Uiso   1.00
H445   H     0.44042   0.96062   0.26744   0.00000  Uiso   1.00
H446   H     0.39812   0.90885   0.31622   0.00000  Uiso   1.00
H447   H     0.42126   0.82876   0.33105   0.00000  Uiso   1.00
H448   H     0.46486   0.85804   0.07680   0.00000  Uiso   1.00
H449   H     0.49194   0.93443   0.09562   0.00000  Uiso   1.00
H450   H     0.06026   0.95869   0.06453   0.00000  Uiso   1.00
H451   H     0.10552   0.83679   0.09438   0.00000  Uiso   1.00
H452   H     0.10150   0.90455   0.01681   0.00000  Uiso   1.00
H453   H     0.07627   0.82547   0.00266   0.00000  Uiso   1.00
H454   H     0.45903   0.63747   0.28381   0.00000  Uiso   1.00
H455   H     0.48282   0.56028   0.25886   0.00000  Uiso   1.00
H456   H     0.05840   0.54279   0.25515   0.00000  Uiso   1.00
H457   H     0.10954   0.60368   0.27359   0.00000  Uiso   1.00
H458   H     0.08567   0.68189   0.29504   0.00000  Uiso   1.00
H459   H     0.21679   0.89435   0.07658   0.00000  Uiso   1.00
H460   H     0.24185   0.81703   0.09677   0.00000  Uiso   1.00
H461   H     0.30950   0.78938   0.06601   0.00000  Uiso   1.00
H462   H     0.40741   0.64618   0.24006   0.00000  Uiso   1.00
H463   H     0.35186   0.84112   0.01725   0.00000  Uiso   1.00
H464   H     0.32874   0.92121   0.00236   0.00000  Uiso   1.00
H465   H     0.31431   0.59457   0.29544   0.00000  Uiso   1.00
H466   H     0.31531   0.67575   0.26890   0.00000  Uiso   1.00
H467   H     0.24898   0.71624   0.25133   0.00000  Uiso   1.00
H468   H     0.18209   0.67477   0.25920   0.00000  Uiso   1.00
H469   H     0.18155   0.59228   0.28095   0.00000  Uiso   1.00
H470   H     0.16436   0.56819   0.03837   0.00000  Uiso   1.00
H471   H     0.14058   0.64642   0.05989   0.00000  Uiso   1.00
H472   H     0.19177   0.70725   0.07829   0.00000  Uiso   1.00
H473   H     0.14101   0.70876   0.17008   0.00000  Uiso   1.00
H474   H     0.26734   0.68970   0.07445   0.00000  Uiso   1.00
H475   H     0.29105   0.61249   0.04946   0.00000  Uiso   1.00
H476   H     0.17373   0.92449   0.33060   0.00000  Uiso   1.00
H477   H     0.14853   0.84541   0.31641   0.00000  Uiso   1.00
H478   H     0.18983   0.79129   0.26872   0.00000  Uiso   1.00
H479   H     0.25817   0.81558   0.23772   0.00000  Uiso   1.00
H480   H     0.28521   0.89198   0.25659   0.00000  Uiso   1.00
H481   H     0.40171   0.84758   0.09206   0.00000  Uiso   1.00
H482   H     0.39487   0.83686   0.23905   0.00000  Uiso   1.00
H483   H     0.05181   0.59835   0.16378   0.00000  Uiso   1.00
H484   H     0.15300   0.90096   0.09217   0.00000  Uiso   1.00
N485   N     0.00000   0.75000   0.28402   0.00000  Uiso   1.00
N486   N     0.00000   0.75000   0.04931   0.00000  Uiso   1.00
N487   N     0.25000   0.50000   0.28402   0.00000  Uiso   1.00
N488   N     0.25000   0.50000   0.04931   0.00000  Uiso   1.00
O489   O     0.04509   0.70491   0.20625   0.00000  Uiso   1.00
O490   O     0.20492   0.54509   0.12709   0.00000  Uiso   1.00
O491   O     0.20492   0.54509   0.20625   0.00000  Uiso   1.00
O492   O     0.29509   0.95491   0.12709   0.00000  Uiso   1.00
O493   O     0.20492   0.95491   0.12709   0.00000  Uiso   1.00
O494   O     0.29509   0.54509   0.20625   0.00000  Uiso   1.00
O495   O     0.29509   0.54509   0.12709   0.00000  Uiso   1.00
O496   O     0.20492   0.95491   0.20625   0.00000  Uiso   1.00
O497   O     0.45492   0.79509   0.12709   0.00000  Uiso   1.00
O498   O     0.45492   0.79509   0.20625   0.00000  Uiso   1.00
O499   O     0.04509   0.70491   0.12709   0.00000  Uiso   1.00
O500   O     0.45492   0.70491   0.12709   0.00000  Uiso   1.00
O501   O     0.04509   0.79509   0.20625   0.00000  Uiso   1.00
O502   O     0.04509   0.79509   0.12709   0.00000  Uiso   1.00
O503   O     0.45492   0.70491   0.20625   0.00000  Uiso   1.00
O504   O     0.29509   0.95491   0.20625   0.00000  Uiso   1.00
C505   C     0.55916   0.69053   0.16666   0.00000  Uiso   1.00
C506   C     0.99442   0.79000   0.30931   0.00000  Uiso   1.00
C507   C     0.50163   0.79034   0.02421   0.00000  Uiso   1.00
C508   C     0.50621   0.70993   0.30896   0.00000  Uiso   1.00
C509   C     0.75556   0.96000   0.02402   0.00000  Uiso   1.00
C510   C     0.74793   0.54055   0.30860   0.00000  Uiso   1.00
C511   C     0.74380   0.54008   0.02437   0.00000  Uiso   1.00
C512   C     0.74838   0.95966   0.30912   0.00000  Uiso   1.00
C513   C     0.88546   0.64781   0.12618   0.00000  Uiso   1.00
C514   C     0.60801   0.86077   0.20825   0.00000  Uiso   1.00
C515   C     0.61313   0.85401   0.12590   0.00000  Uiso   1.00
C516   C     0.93970   0.80811   0.16655   0.00000  Uiso   1.00
C517   C     0.89414   0.63665   0.20773   0.00000  Uiso   1.00
C518   C     0.63396   0.67224   0.16868   0.00000  Uiso   1.00
C519   C     0.89128   0.86001   0.12497   0.00000  Uiso   1.00
C520   C     0.88713   0.85412   0.20751   0.00000  Uiso   1.00
C521   C     0.58377   0.61003   0.16471   0.00000  Uiso   1.00
C522   C     0.64196   0.88927   0.12508   0.00000  Uiso   1.00
C523   C     0.86456   0.60216   0.20715   0.00000  Uiso   1.00
C524   C     0.85588   0.61332   0.12560   0.00000  Uiso   1.00
C525   C     0.63684   0.89603   0.20743   0.00000  Uiso   1.00
C526   C     0.85876   0.89004   0.20836   0.00000  Uiso   1.00
C527   C     0.94008   0.69136   0.16676   0.00000  Uiso   1.00
C528   C     0.61605   0.57776   0.16467   0.00000  Uiso   1.00
C529   C     0.66623   0.63997   0.16864   0.00000  Uiso   1.00
C530   C     0.86291   0.89593   0.12583   0.00000  Uiso   1.00
C531   C     0.59455   0.84091   0.16712   0.00000  Uiso   1.00
C532   C     0.90586   0.65861   0.16699   0.00000  Uiso   1.00
C533   C     0.90512   0.84048   0.16617   0.00000  Uiso   1.00
C534   C     0.59277   0.65715   0.16662   0.00000  Uiso   1.00
C535   C     0.84415   0.59136   0.16634   0.00000  Uiso   1.00
C536   C     0.65543   0.90912   0.16621   0.00000  Uiso   1.00
C537   C     0.65723   0.59285   0.16672   0.00000  Uiso   1.00
C538   C     0.56015   0.80835   0.16675   0.00000  Uiso   1.00
C539   C     0.84490   0.90956   0.16716   0.00000  Uiso   1.00
C540   C     0.50158   0.66391   0.04805   0.00000  Uiso   1.00
C541   C     0.53909   0.64028   0.05672   0.00000  Uiso   1.00
C542   C     0.53889   0.59346   0.06857   0.00000  Uiso   1.00
C543   C     0.50123   0.56996   0.07264   0.00000  Uiso   1.00
C544   C     0.96385   0.59284   0.06308   0.00000  Uiso   1.00
C545   C     0.96419   0.63924   0.04968   0.00000  Uiso   1.00
C546   C     0.97726   0.83394   0.29027   0.00000  Uiso   1.00
C547   C     0.50207   0.86479   0.26541   0.00000  Uiso   1.00
C548   C     0.98842   0.90974   0.25596   0.00000  Uiso   1.00
C549   C     0.81031   0.94190   0.16678   0.00000  Uiso   1.00
C550   C     0.95063   0.92549   0.27379   0.00000  Uiso   1.00
C551   C     0.92669   0.89625   0.30112   0.00000  Uiso   1.00
C552   C     0.93967   0.85070   0.30894   0.00000  Uiso   1.00
C553   C     0.51981   0.83384   0.04252   0.00000  Uiso   1.00
C554   C     0.99595   0.86589   0.06730   0.00000  Uiso   1.00
C555   C     0.51084   0.91021   0.07631   0.00000  Uiso   1.00
C556   C     0.54908   0.92405   0.05841   0.00000  Uiso   1.00
C557   C     0.57236   0.89347   0.03162   0.00000  Uiso   1.00
C558   C     0.55815   0.84849   0.02421   0.00000  Uiso   1.00
C559   C     0.52019   0.66655   0.28677   0.00000  Uiso   1.00
C560   C     0.69084   0.55947   0.16667   0.00000  Uiso   1.00
C561   C     0.99158   0.63145   0.27767   0.00000  Uiso   1.00
C562   C     0.50523   0.58721   0.26547   0.00000  Uiso   1.00
C563   C     0.54778   0.57722   0.26394   0.00000  Uiso   1.00
C564   C     0.57664   0.61156   0.27428   0.00000  Uiso   1.00
C565   C     0.56301   0.65601   0.28571   0.00000  Uiso   1.00
C566   C     0.77270   0.91605   0.04308   0.00000  Uiso   1.00
C567   C     0.74786   0.88521   0.06792   0.00000  Uiso   1.00
C568   C     0.76150   0.84026   0.07740   0.00000  Uiso   1.00
C569   C     0.79931   0.82451   0.05962   0.00000  Uiso   1.00
C570   C     0.82327   0.85373   0.03232   0.00000  Uiso   1.00
C571   C     0.68984   0.94166   0.16658   0.00000  Uiso   1.00
C572   C     0.81030   0.89928   0.02446   0.00000  Uiso   1.00
C573   C     0.74845   0.58609   0.28528   0.00000  Uiso   1.00
C574   C     0.78586   0.61074   0.28364   0.00000  Uiso   1.00
C575   C     0.78622   0.65714   0.27025   0.00000  Uiso   1.00
C576   C     0.74884   0.68005   0.26070   0.00000  Uiso   1.00
C577   C     0.71117   0.65657   0.26477   0.00000  Uiso   1.00
C578   C     0.71095   0.60975   0.27661   0.00000  Uiso   1.00
C579   C     0.72986   0.58346   0.04657   0.00000  Uiso   1.00
C580   C     0.68706   0.59406   0.04767   0.00000  Uiso   1.00
C581   C     0.67347   0.63851   0.05915   0.00000  Uiso   1.00
C582   C     0.80992   0.55863   0.16657   0.00000  Uiso   1.00
C583   C     0.70236   0.67282   0.06947   0.00000  Uiso   1.00
C584   C     0.74490   0.66279   0.06787   0.00000  Uiso   1.00
C585   C     0.75850   0.61854   0.05564   0.00000  Uiso   1.00
C586   C     0.73022   0.91615   0.29079   0.00000  Uiso   1.00
C587   C     0.69187   0.90148   0.30906   0.00000  Uiso   1.00
C588   C     0.67768   0.85650   0.30163   0.00000  Uiso   1.00
C589   C     0.70100   0.82593   0.27486   0.00000  Uiso   1.00
C590   C     0.73924   0.83979   0.25700   0.00000  Uiso   1.00
C591   C     0.75412   0.88412   0.26604   0.00000  Uiso   1.00
C592   C     0.50208   0.70945   0.02473   0.00000  Uiso   1.00
Cu593  Cu    0.50000   0.75000   0.21355   0.00000  Uiso   1.00
Cu594  Cu    0.50000   0.75000   0.11978   0.00000  Uiso   1.00
Cu595  Cu    0.75000   0.50000   0.21355   0.00000  Uiso   1.00
Cu596  Cu    0.75000   0.50000   0.11978   0.00000  Uiso   1.00
H597   H     0.89197   0.66621   0.09485   0.00000  Uiso   1.00
H598   H     0.85805   0.58376   0.23848   0.00000  Uiso   1.00
H599   H     0.84261   0.60379   0.09327   0.00000  Uiso   1.00
H600   H     0.64445   0.91325   0.23896   0.00000  Uiso   1.00
H601   H     0.84834   0.90247   0.24127   0.00000  Uiso   1.00
H602   H     0.60899   0.54124   0.16326   0.00000  Uiso   1.00
H603   H     0.69819   0.65165   0.16957   0.00000  Uiso   1.00
H604   H     0.85517   0.91319   0.09429   0.00000  Uiso   1.00
H605   H     0.56848   0.65777   0.05238   0.00000  Uiso   1.00
H606   H     0.56799   0.57529   0.07414   0.00000  Uiso   1.00
H607   H     0.50111   0.53376   0.08201   0.00000  Uiso   1.00
H608   H     0.59695   0.84910   0.24117   0.00000  Uiso   1.00
H609   H     0.93476   0.57421   0.06443   0.00000  Uiso   1.00
H610   H     0.93573   0.65539   0.03789   0.00000  Uiso   1.00
H611   H     0.53313   0.85566   0.25669   0.00000  Uiso   1.00
H612   H     0.50804   0.93298   0.23657   0.00000  Uiso   1.00
H613   H     0.94042   0.96062   0.26744   0.00000  Uiso   1.00
H614   H     0.89812   0.90885   0.31622   0.00000  Uiso   1.00
H615   H     0.92126   0.82876   0.33105   0.00000  Uiso   1.00
H616   H     0.96486   0.85804   0.07680   0.00000  Uiso   1.00
H617   H     0.99194   0.93443   0.09562   0.00000  Uiso   1.00
H618   H     0.56026   0.95869   0.06453   0.00000  Uiso   1.00
H619   H     0.60552   0.83679   0.09438   0.00000  Uiso   1.00
H620   H     0.60150   0.90455   0.01681   0.00000  Uiso   1.00
H621   H     0.57627   0.82547   0.00266   0.00000  Uiso   1.00
H622   H     0.95903   0.63747   0.28381   0.00000  Uiso   1.00
H623   H     0.98282   0.56028   0.25886   0.00000  Uiso   1.00
H624   H     0.55840   0.54279   0.25515   0.00000  Uiso   1.00
H625   H     0.60954   0.60368   0.27359   0.00000  Uiso   1.00
H626   H     0.58567   0.68189   0.29504   0.00000  Uiso   1.00
H627   H     0.71679   0.89435   0.07658   0.00000  Uiso   1.00
H628   H     0.74185   0.81703   0.09677   0.00000  Uiso   1.00
H629   H     0.80950   0.78938   0.06601   0.00000  Uiso   1.00
H630   H     0.90741   0.64618   0.24006   0.00000  Uiso   1.00
H631   H     0.85186   0.84112   0.01725   0.00000  Uiso   1.00
H632   H     0.82874   0.92121   0.00236   0.00000  Uiso   1.00
H633   H     0.81431   0.59457   0.29544   0.00000  Uiso   1.00
H634   H     0.81531   0.67575   0.26890   0.00000  Uiso   1.00
H635   H     0.74898   0.71624   0.25133   0.00000  Uiso   1.00
H636   H     0.68209   0.67477   0.25920   0.00000  Uiso   1.00
H637   H     0.68155   0.59228   0.28095   0.00000  Uiso   1.00
H638   H     0.66436   0.56819   0.03837   0.00000  Uiso   1.00
H639   H     0.64058   0.64642   0.05989   0.00000  Uiso   1.00
H640   H     0.69177   0.70725   0.07829   0.00000  Uiso   1.00
H641   H     0.64101   0.70876   0.17008   0.00000  Uiso   1.00
H642   H     0.76734   0.68970   0.07445   0.00000  Uiso   1.00
H643   H     0.79105   0.61249   0.04946   0.00000  Uiso   1.00
H644   H     0.67373   0.92449   0.33060   0.00000  Uiso   1.00
H645   H     0.64853   0.84541   0.31641   0.00000  Uiso   1.00
H646   H     0.68983   0.79129   0.26872   0.00000  Uiso   1.00
H647   H     0.75817   0.81558   0.23772   0.00000  Uiso   1.00
H648   H     0.78521   0.89198   0.25659   0.00000  Uiso   1.00
H649   H     0.90171   0.84758   0.09206   0.00000  Uiso   1.00
H650   H     0.89487   0.83686   0.23905   0.00000  Uiso   1.00
H651   H     0.55181   0.59835   0.16378   0.00000  Uiso   1.00
H652   H     0.65300   0.90096   0.09217   0.00000  Uiso   1.00
N653   N     0.50000   0.75000   0.28402   0.00000  Uiso   1.00
N654   N     0.50000   0.75000   0.04931   0.00000  Uiso   1.00
N655   N     0.75000   0.50000   0.28402   0.00000  Uiso   1.00
N656   N     0.75000   0.50000   0.04931   0.00000  Uiso   1.00
O657   O     0.54509   0.70491   0.20625   0.00000  Uiso   1.00
O658   O     0.70492   0.54509   0.12709   0.00000  Uiso   1.00
O659   O     0.70492   0.54509   0.20625   0.00000  Uiso   1.00
O660   O     0.79509   0.95491   0.12709   0.00000  Uiso   1.00
O661   O     0.70492   0.95491   0.12709   0.00000  Uiso   1.00
O662   O     0.79509   0.54509   0.20625   0.00000  Uiso   1.00
O663   O     0.79509   0.54509   0.12709   0.00000  Uiso   1.00
O664   O     0.70492   0.95491   0.20625   0.00000  Uiso   1.00
O665   O     0.95492   0.79509   0.12709   0.00000  Uiso   1.00
O666   O     0.95492   0.79509   0.20625   0.00000  Uiso   1.00
O667   O     0.54509   0.70491   0.12709   0.00000  Uiso   1.00
O668   O     0.95492   0.70491   0.12709   0.00000  Uiso   1.00
O669   O     0.54509   0.79509   0.20625   0.00000  Uiso   1.00
O670   O     0.54509   0.79509   0.12709   0.00000  Uiso   1.00
O671   O     0.95492   0.70491   0.20625   0.00000  Uiso   1.00
O672   O     0.79509   0.95491   0.20625   0.00000  Uiso   1.00
C673   C     0.05916   0.19053   0.49999   0.00000  Uiso   1.00
C674   C     0.49442   0.29000   0.64265   0.00000  Uiso   1.00
C675   C     0.00163   0.29034   0.35755   0.00000  Uiso   1.00
C676   C     0.00621   0.20993   0.64229   0.00000  Uiso   1.00
C677   C     0.25556   0.46000   0.35736   0.00000  Uiso   1.00
C678   C     0.24793   0.04055   0.64193   0.00000  Uiso   1.00
C679   C     0.24380   0.04008   0.35771   0.00000  Uiso   1.00
C680   C     0.24838   0.45966   0.64245   0.00000  Uiso   1.00
C681   C     0.38546   0.14781   0.45952   0.00000  Uiso   1.00
C682   C     0.10801   0.36077   0.54159   0.00000  Uiso   1.00
C683   C     0.11313   0.35401   0.45923   0.00000  Uiso   1.00
C684   C     0.43970   0.30811   0.49988   0.00000  Uiso   1.00
C685   C     0.39414   0.13665   0.54107   0.00000  Uiso   1.00
C686   C     0.13396   0.17224   0.50201   0.00000  Uiso   1.00
C687   C     0.39128   0.36001   0.45830   0.00000  Uiso   1.00
C688   C     0.38713   0.35412   0.54084   0.00000  Uiso   1.00
C689   C     0.08377   0.11003   0.49805   0.00000  Uiso   1.00
C690   C     0.14196   0.38927   0.45841   0.00000  Uiso   1.00
C691   C     0.36456   0.10216   0.54048   0.00000  Uiso   1.00
C692   C     0.35588   0.11332   0.45893   0.00000  Uiso   1.00
C693   C     0.13684   0.39603   0.54077   0.00000  Uiso   1.00
C694   C     0.35876   0.39004   0.54169   0.00000  Uiso   1.00
C695   C     0.44008   0.19136   0.50009   0.00000  Uiso   1.00
C696   C     0.11605   0.07776   0.49800   0.00000  Uiso   1.00
C697   C     0.16623   0.13997   0.50197   0.00000  Uiso   1.00
C698   C     0.36291   0.39593   0.45916   0.00000  Uiso   1.00
C699   C     0.09455   0.34091   0.50046   0.00000  Uiso   1.00
C700   C     0.40586   0.15861   0.50033   0.00000  Uiso   1.00
C701   C     0.40512   0.34048   0.49951   0.00000  Uiso   1.00
C702   C     0.09277   0.15715   0.49995   0.00000  Uiso   1.00
C703   C     0.34415   0.09136   0.49967   0.00000  Uiso   1.00
C704   C     0.15543   0.40912   0.49955   0.00000  Uiso   1.00
C705   C     0.15723   0.09285   0.50005   0.00000  Uiso   1.00
C706   C     0.06015   0.30835   0.50009   0.00000  Uiso   1.00
C707   C     0.34490   0.40956   0.50049   0.00000  Uiso   1.00
C708   C     0.00158   0.16391   0.38139   0.00000  Uiso   1.00
C709   C     0.03909   0.14028   0.39005   0.00000  Uiso   1.00
C710   C     0.03889   0.09346   0.40190   0.00000  Uiso   1.00
C711   C     0.00123   0.06996   0.40597   0.00000  Uiso   1.00
C712   C     0.46385   0.09284   0.39642   0.00000  Uiso   1.00
C713   C     0.46419   0.13924   0.38302   0.00000  Uiso   1.00
C714   C     0.47726   0.33394   0.62360   0.00000  Uiso   1.00
C715   C     0.00207   0.36479   0.59874   0.00000  Uiso   1.00
C716   C     0.48842   0.40974   0.58929   0.00000  Uiso   1.00
C717   C     0.31031   0.44190   0.50012   0.00000  Uiso   1.00
C718   C     0.45063   0.42549   0.60713   0.00000  Uiso   1.00
C719   C     0.42669   0.39625   0.63445   0.00000  Uiso   1.00
C720   C     0.43967   0.35070   0.64227   0.00000  Uiso   1.00
C721   C     0.01981   0.33384   0.37586   0.00000  Uiso   1.00
C722   C     0.49595   0.36589   0.40064   0.00000  Uiso   1.00
C723   C     0.01084   0.41021   0.40964   0.00000  Uiso   1.00
C724   C     0.04908   0.42405   0.39175   0.00000  Uiso   1.00
C725   C     0.07236   0.39347   0.36495   0.00000  Uiso   1.00
C726   C     0.05815   0.34849   0.35755   0.00000  Uiso   1.00
C727   C     0.02019   0.16655   0.62011   0.00000  Uiso   1.00
C728   C     0.19084   0.05947   0.50001   0.00000  Uiso   1.00
C729   C     0.49158   0.13145   0.61100   0.00000  Uiso   1.00
C730   C     0.00523   0.08721   0.59880   0.00000  Uiso   1.00
C731   C     0.04778   0.07722   0.59727   0.00000  Uiso   1.00
C732   C     0.07664   0.11156   0.60761   0.00000  Uiso   1.00
C733   C     0.06301   0.15601   0.61904   0.00000  Uiso   1.00
C734   C     0.27270   0.41605   0.37642   0.00000  Uiso   1.00
C735   C     0.24786   0.38521   0.40125   0.00000  Uiso   1.00
C736   C     0.26150   0.34026   0.41073   0.00000  Uiso   1.00
C737   C     0.29931   0.32451   0.39296   0.00000  Uiso   1.00
C738   C     0.32327   0.35373   0.36565   0.00000  Uiso   1.00
C739   C     0.18984   0.44166   0.49991   0.00000  Uiso   1.00
C740   C     0.31030   0.39928   0.35779   0.00000  Uiso   1.00
C741   C     0.24845   0.08609   0.61861   0.00000  Uiso   1.00
C742   C     0.28586   0.11074   0.61698   0.00000  Uiso   1.00
C743   C     0.28622   0.15714   0.60358   0.00000  Uiso   1.00
C744   C     0.24884   0.18005   0.59403   0.00000  Uiso   1.00
C745   C     0.21117   0.15657   0.59810   0.00000  Uiso   1.00
C746   C     0.21095   0.10975   0.60994   0.00000  Uiso   1.00
C747   C     0.22986   0.08346   0.37990   0.00000  Uiso   1.00
C748   C     0.18706   0.09406   0.38101   0.00000  Uiso   1.00
C749   C     0.17347   0.13851   0.39248   0.00000  Uiso   1.00
C750   C     0.30992   0.05863   0.49991   0.00000  Uiso   1.00
C751   C     0.20236   0.17282   0.40280   0.00000  Uiso   1.00
C752   C     0.24490   0.16279   0.40120   0.00000  Uiso   1.00
C753   C     0.25850   0.11854   0.38897   0.00000  Uiso   1.00
C754   C     0.23022   0.41615   0.62412   0.00000  Uiso   1.00
C755   C     0.19187   0.40148   0.64239   0.00000  Uiso   1.00
C756   C     0.17768   0.35650   0.63496   0.00000  Uiso   1.00
C757   C     0.20100   0.32593   0.60819   0.00000  Uiso   1.00
C758   C     0.23924   0.33979   0.59034   0.00000  Uiso   1.00
C759   C     0.25412   0.38412   0.59937   0.00000  Uiso   1.00
C760   C     0.00208   0.20945   0.35807   0.00000  Uiso   1.00
Cu761  Cu    0.00000   0.25000   0.54689   0.00000  Uiso   1.00
Cu762  Cu    0.00000   0.25000   0.45311   0.00000  Uiso   1.00
Cu763  Cu    0.25000   0.00000   0.54689   0.00000  Uiso   1.00
Cu764  Cu    0.25000   0.00000   0.45311   0.00000  Uiso   1.00
H765   H     0.39197   0.16621   0.42818   0.00000  Uiso   1.00
H766   H     0.35805   0.08376   0.57181   0.00000  Uiso   1.00
H767   H     0.34261   0.10379   0.42661   0.00000  Uiso   1.00
H768   H     0.14445   0.41325   0.57229   0.00000  Uiso   1.00
H769   H     0.34834   0.40247   0.57460   0.00000  Uiso   1.00
H770   H     0.10899   0.04124   0.49660   0.00000  Uiso   1.00
H771   H     0.19819   0.15165   0.50290   0.00000  Uiso   1.00
H772   H     0.35517   0.41319   0.42762   0.00000  Uiso   1.00
H773   H     0.06848   0.15777   0.38571   0.00000  Uiso   1.00
H774   H     0.06799   0.07529   0.40748   0.00000  Uiso   1.00
H775   H     0.00111   0.03376   0.41535   0.00000  Uiso   1.00
H776   H     0.09695   0.34910   0.57450   0.00000  Uiso   1.00
H777   H     0.43476   0.07421   0.39776   0.00000  Uiso   1.00
H778   H     0.43573   0.15539   0.37122   0.00000  Uiso   1.00
H779   H     0.03313   0.35566   0.59003   0.00000  Uiso   1.00
H780   H     0.00804   0.43298   0.56991   0.00000  Uiso   1.00
H781   H     0.44042   0.46062   0.60077   0.00000  Uiso   1.00
H782   H     0.39812   0.40885   0.64955   0.00000  Uiso   1.00
H783   H     0.42126   0.32876   0.66439   0.00000  Uiso   1.00
H784   H     0.46486   0.35804   0.41013   0.00000  Uiso   1.00
H785   H     0.49194   0.43443   0.42895   0.00000  Uiso   1.00
H786   H     0.06026   0.45869   0.39786   0.00000  Uiso   1.00
H787   H     0.10552   0.33679   0.42771   0.00000  Uiso   1.00
H788   H     0.10150   0.40455   0.35015   0.00000  Uiso   1.00
H789   H     0.07627   0.32547   0.33600   0.00000  Uiso   1.00
H790   H     0.45903   0.13747   0.61714   0.00000  Uiso   1.00
H791   H     0.48282   0.06028   0.59220   0.00000  Uiso   1.00
H792   H     0.05840   0.04279   0.58849   0.00000  Uiso   1.00
H793   H     0.10954   0.10368   0.60692   0.00000  Uiso   1.00
H794   H     0.08567   0.18189   0.62837   0.00000  Uiso   1.00
H795   H     0.21679   0.39435   0.40992   0.00000  Uiso   1.00
H796   H     0.24185   0.31703   0.43011   0.00000  Uiso   1.00
H797   H     0.30950   0.28938   0.39935   0.00000  Uiso   1.00
H798   H     0.40741   0.14618   0.57339   0.00000  Uiso   1.00
H799   H     0.35186   0.34112   0.35059   0.00000  Uiso   1.00
H800   H     0.32874   0.42121   0.33569   0.00000  Uiso   1.00
H801   H     0.31431   0.09457   0.62877   0.00000  Uiso   1.00
H802   H     0.31531   0.17575   0.60223   0.00000  Uiso   1.00
H803   H     0.24898   0.21624   0.58466   0.00000  Uiso   1.00
H804   H     0.18209   0.17477   0.59253   0.00000  Uiso   1.00
H805   H     0.18155   0.09228   0.61429   0.00000  Uiso   1.00
H806   H     0.16436   0.06819   0.37171   0.00000  Uiso   1.00
H807   H     0.14058   0.14642   0.39322   0.00000  Uiso   1.00
H808   H     0.19177   0.20725   0.41162   0.00000  Uiso   1.00
H809   H     0.14101   0.20876   0.50341   0.00000  Uiso   1.00
H810   H     0.26734   0.18970   0.40778   0.00000  Uiso   1.00
H811   H     0.29105   0.11249   0.38279   0.00000  Uiso   1.00
H812   H     0.17373   0.42449   0.66393   0.00000  Uiso   1.00
H813   H     0.14853   0.34541   0.64974   0.00000  Uiso   1.00
H814   H     0.18983   0.29129   0.60205   0.00000  Uiso   1.00
H815   H     0.25817   0.31558   0.57105   0.00000  Uiso   1.00
H816   H     0.28521   0.39198   0.58992   0.00000  Uiso   1.00
H817   H     0.40171   0.34758   0.42540   0.00000  Uiso   1.00
H818   H     0.39487   0.33686   0.57238   0.00000  Uiso   1.00
H819   H     0.05181   0.09835   0.49712   0.00000  Uiso   1.00
H820   H     0.15300   0.40096   0.42550   0.00000  Uiso   1.00
N821   N     0.00000   0.25000   0.61736   0.00000  Uiso   1.00
N822   N     0.00000   0.25000   0.38264   0.00000  Uiso   1.00
N823   N     0.25000   0.00000   0.61736   0.00000  Uiso   1.00
N824   N     0.25000   0.00000   0.38264   0.00000  Uiso   1.00
O825   O     0.04509   0.20491   0.53958   0.00000  Uiso   1.00
O826   O     0.20492   0.04509   0.46042   0.00000  Uiso   1.00
O827   O     0.20492   0.04509   0.53958   0.00000  Uiso   1.00
O828   O     0.29509   0.45491   0.46042   0.00000  Uiso   1.00
O829   O     0.20492   0.45491   0.46042   0.00000  Uiso   1.00
O830   O     0.29509   0.04509   0.53958   0.00000  Uiso   1.00
O831   O     0.29509   0.04509   0.46042   0.00000  Uiso   1.00
O832   O     0.20492   0.45491   0.53958   0.00000  Uiso   1.00
O833   O     0.45492   0.29509   0.46042   0.00000  Uiso   1.00
O834   O     0.45492   0.29509   0.53958   0.00000  Uiso   1.00
O835   O     0.04509   0.20491   0.46042   0.00000  Uiso   1.00
O836   O     0.45492   0.20491   0.46042   0.00000  Uiso   1.00
O837   O     0.04509   0.29509   0.53958   0.00000  Uiso   1.00
O838   O     0.04509   0.29509   0.46042   0.00000  Uiso   1.00
O839   O     0.45492   0.20491   0.53958   0.00000  Uiso   1.00
O840   O     0.29509   0.45491   0.53958   0.00000  Uiso   1.00
C841   C     0.55916   0.19053   0.49999   0.00000  Uiso   1.00
C842   C     0.99442   0.29000   0.64265   0.00000  Uiso   1.00
C843   C     0.50163   0.29034   0.35755   0.00000  Uiso   1.00
C844   C     0.50621   0.20993   0.64229   0.00000  Uiso   1.00
C845   C     0.75556   0.46000   0.35736   0.00000  Uiso   1.00
C846   C     0.74793   0.04055   0.64193   0.00000  Uiso   1.00
C847   C     0.74380   0.04008   0.35771   0.00000  Uiso   1.00
C848   C     0.74838   0.45966   0.64245   0.00000  Uiso   1.00
C849   C     0.88546   0.14781   0.45952   0.00000  Uiso   1.00
C850   C     0.60801   0.36077   0.54159   0.00000  Uiso   1.00
C851   C     0.61313   0.35401   0.45923   0.00000  Uiso   1.00
C852   C     0.93970   0.30811   0.49988   0.00000  Uiso   1.00
C853   C     0.89414   0.13665   0.54107   0.00000  Uiso   1.00
C854   C     0.63396   0.17224   0.50201   0.00000  Uiso   1.00
C855   C     0.89128   0.36001   0.45830   0.00000  Uiso   1.00
C856   C     0.88713   0.35412   0.54084   0.00000  Uiso   1.00
C857   C     0.58377   0.11003   0.49805   0.00000  Uiso   1.00
C858   C     0.64196   0.38927   0.45841   0.00000  Uiso   1.00
C859   C     0.86456   0.10216   0.54048   0.00000  Uiso   1.00
C860   C     0.85588   0.11332   0.45893   0.00000  Uiso   1.00
C861   C     0.63684   0.39603   0.54077   0.00000  Uiso   1.00
C862   C     0.85876   0.39004   0.54169   0.00000  Uiso   1.00
C863   C     0.94008   0.19136   0.50009   0.00000  Uiso   1.00
C864   C     0.61605   0.07776   0.49800   0.00000  Uiso   1.00
C865   C     0.66623   0.13997   0.50197   0.00000  Uiso   1.00
C866   C     0.86291   0.39593   0.45916   0.00000  Uiso   1.00
C867   C     0.59455   0.34091   0.50046   0.00000  Uiso   1.00
C868   C     0.90586   0.15861   0.50033   0.00000  Uiso   1.00
C869   C     0.90512   0.34048   0.49951   0.00000  Uiso   1.00
C870   C     0.59277   0.15715   0.49995   0.00000  Uiso   1.00
C871   C     0.84415   0.09136   0.49967   0.00000  Uiso   1.00
C872   C     0.65543   0.40912   0.49955   0.00000  Uiso   1.00
C873   C     0.65723   0.09285   0.50005   0.00000  Uiso   1.00
C874   C     0.56015   0.30835   0.50009   0.00000  Uiso   1.00
C875   C     0.84490   0.40956   0.50049   0.00000  Uiso   1.00
C876   C     0.50158   0.16391   0.38139   0.00000  Uiso   1.00
C877   C     0.53909   0.14028   0.39005   0.00000  Uiso   1.00
C878   C     0.53889   0.09346   0.40190   0.00000  Uiso   1.00
C879   C     0.50123   0.06996   0.40597   0.00000  Uiso   1.00
C880   C     0.96385   0.09284   0.39642   0.00000  Uiso   1.00
C881   C     0.96419   0.13924   0.38302   0.00000  Uiso   1.00
C882   C     0.97726   0.33394   0.62360   0.00000  Uiso   1.00
C883   C     0.50207   0.36479   0.59874   0.00000  Uiso   1.00
C884   C     0.98842   0.40974   0.58929   0.00000  Uiso   1.00
C885   C     0.81031   0.44190   0.50012   0.00000  Uiso   1.00
C886   C     0.95063   0.42549   0.60713   0.00000  Uiso   1.00
C887   C     0.92669   0.39625   0.63445   0.00000  Uiso   1.00
C888   C     0.93967   0.35070   0.64227   0.00000  Uiso   1.00
C889   C     0.51981   0.33384   0.37586   0.00000  Uiso   1.00
C890   C     0.99595   0.36589   0.40064   0.00000  Uiso   1.00
C891   C     0.51084   0.41021   0.40964   0.00000  Uiso   1.00
C892   C     0.54908   0.42405   0.39175   0.00000  Uiso   1.00
C893   C     0.57236   0.39347   0.36495   0.00000  Uiso   1.00
C894   C     0.55815   0.34849   0.35755   0.00000  Uiso   1.00
C895   C     0.52019   0.16655   0.62011   0.00000  Uiso   1.00
C896   C     0.69084   0.05947   0.50001   0.00000  Uiso   1.00
C897   C     0.99158   0.13145   0.61100   0.00000  Uiso   1.00
C898   C     0.50523   0.08721   0.59880   0.00000  Uiso   1.00
C899   C     0.54778   0.07722   0.59727   0.00000  Uiso   1.00
C900   C     0.57664   0.11156   0.60761   0.00000  Uiso   1.00
C901   C     0.56301   0.15601   0.61904   0.00000  Uiso   1.00
C902   C     0.77270   0.41605   0.37642   0.00000  Uiso   1.00
C903   C     0.74786   0.38521   0.40125   0.00000  Uiso   1.00
C904   C     0.76150   0.34026   0.41073   0.00000  Uiso   1.00
C905   C     0.79931   0.32451   0.39296   0.00000  Uiso   1.00
C906   C     0.82327   0.35373   0.36565   0.00000  Uiso   1.00
C907   C     0.68984   0.44166   0.49991   0.00000  Uiso   1.00
C908   C     0.81030   0.39928   0.35779   0.00000  Uiso   1.00
C909   C     0.74845   0.08609   0.61861   0.00000  Uiso   1.00
C910   C     0.78586   0.11074   0.61698   0.00000  Uiso   1.00
C911   C     0.78622   0.15714   0.60358   0.00000  Uiso   1.00
C912   C     0.74884   0.18005   0.59403   0.00000  Uiso   1.00
C913   C     0.71117   0.15657   0.59810   0.00000  Uiso   1.00
C914   C     0.71095   0.10975   0.60994   0.00000  Uiso   1.00
C915   C     0.72986   0.08346   0.37990   0.00000  Uiso   1.00
C916   C     0.68706   0.09406   0.38101   0.00000  Uiso   1.00
C917   C     0.67347   0.13851   0.39248   0.00000  Uiso   1.00
C918   C     0.80992   0.05863   0.49991   0.00000  Uiso   1.00
C919   C     0.70236   0.17282   0.40280   0.00000  Uiso   1.00
C920   C     0.74490   0.16279   0.40120   0.00000  Uiso   1.00
C921   C     0.75850   0.11854   0.38897   0.00000  Uiso   1.00
C922   C     0.73022   0.41615   0.62412   0.00000  Uiso   1.00
C923   C     0.69187   0.40148   0.64239   0.00000  Uiso   1.00
C924   C     0.67768   0.35650   0.63496   0.00000  Uiso   1.00
C925   C     0.70100   0.32593   0.60819   0.00000  Uiso   1.00
C926   C     0.73924   0.33979   0.59034   0.00000  Uiso   1.00
C927   C     0.75412   0.38412   0.59937   0.00000  Uiso   1.00
C928   C     0.50208   0.20945   0.35807   0.00000  Uiso   1.00
Cu929  Cu    0.50000   0.25000   0.54689   0.00000  Uiso   1.00
Cu930  Cu    0.50000   0.25000   0.45311   0.00000  Uiso   1.00
Cu931  Cu    0.75000   0.00000   0.54689   0.00000  Uiso   1.00
Cu932  Cu    0.75000   0.00000   0.45311   0.00000  Uiso   1.00
H933   H     0.89197   0.16621   0.42818   0.00000  Uiso   1.00
H934   H     0.85805   0.08376   0.57181   0.00000  Uiso   1.00
H935   H     0.84261   0.10379   0.42661   0.00000  Uiso   1.00
H936   H     0.64445   0.41325   0.57229   0.00000  Uiso   1.00
H937   H     0.84834   0.40247   0.57460   0.00000  Uiso   1.00
H938   H     0.60899   0.04124   0.49660   0.00000  Uiso   1.00
H939   H     0.69819   0.15165   0.50290   0.00000  Uiso   1.00
H940   H     0.85517   0.41319   0.42762   0.00000  Uiso   1.00
H941   H     0.56848   0.15777   0.38571   0.00000  Uiso   1.00
H942   H     0.56799   0.07529   0.40748   0.00000  Uiso   1.00
H943   H     0.50111   0.03376   0.41535   0.00000  Uiso   1.00
H944   H     0.59695   0.34910   0.57450   0.00000  Uiso   1.00
H945   H     0.93476   0.07421   0.39776   0.00000  Uiso   1.00
H946   H     0.93573   0.15539   0.37122   0.00000  Uiso   1.00
H947   H     0.53313   0.35566   0.59003   0.00000  Uiso   1.00
H948   H     0.50804   0.43298   0.56991   0.00000  Uiso   1.00
H949   H     0.94042   0.46062   0.60077   0.00000  Uiso   1.00
H950   H     0.89812   0.40885   0.64955   0.00000  Uiso   1.00
H951   H     0.92126   0.32876   0.66439   0.00000  Uiso   1.00
H952   H     0.96486   0.35804   0.41013   0.00000  Uiso   1.00
H953   H     0.99194   0.43443   0.42895   0.00000  Uiso   1.00
H954   H     0.56026   0.45869   0.39786   0.00000  Uiso   1.00
H955   H     0.60552   0.33679   0.42771   0.00000  Uiso   1.00
H956   H     0.60150   0.40455   0.35015   0.00000  Uiso   1.00
H957   H     0.57627   0.32547   0.33600   0.00000  Uiso   1.00
H958   H     0.95903   0.13747   0.61714   0.00000  Uiso   1.00
H959   H     0.98282   0.06028   0.59220   0.00000  Uiso   1.00
H960   H     0.55840   0.04279   0.58849   0.00000  Uiso   1.00
H961   H     0.60954   0.10368   0.60692   0.00000  Uiso   1.00
H962   H     0.58567   0.18189   0.62837   0.00000  Uiso   1.00
H963   H     0.71679   0.39435   0.40992   0.00000  Uiso   1.00
H964   H     0.74185   0.31703   0.43011   0.00000  Uiso   1.00
H965   H     0.80950   0.28938   0.39935   0.00000  Uiso   1.00
H966   H     0.90741   0.14618   0.57339   0.00000  Uiso   1.00
H967   H     0.85186   0.34112   0.35059   0.00000  Uiso   1.00
H968   H     0.82874   0.42121   0.33569   0.00000  Uiso   1.00
H969   H     0.81431   0.09457   0.62877   0.00000  Uiso   1.00
H970   H     0.81531   0.17575   0.60223   0.00000  Uiso   1.00
H971   H     0.74898   0.21624   0.58466   0.00000  Uiso   1.00
H972   H     0.68209   0.17477   0.59253   0.00000  Uiso   1.00
H973   H     0.68155   0.09228   0.61429   0.00000  Uiso   1.00
H974   H     0.66436   0.06819   0.37171   0.00000  Uiso   1.00
H975   H     0.64058   0.14642   0.39322   0.00000  Uiso   1.00
H976   H     0.69177   0.20725   0.41162   0.00000  Uiso   1.00
H977   H     0.64101   0.20876   0.50341   0.00000  Uiso   1.00
H978   H     0.76734   0.18970   0.40778   0.00000  Uiso   1.00
H979   H     0.79105   0.11249   0.38279   0.00000  Uiso   1.00
H980   H     0.67373   0.42449   0.66393   0.00000  Uiso   1.00
H981   H     0.64853   0.34541   0.64974   0.00000  Uiso   1.00
H982   H     0.68983   0.29129   0.60205   0.00000  Uiso   1.00
H983   H     0.75817   0.31558   0.57105   0.00000  Uiso   1.00
H984   H     0.78521   0.39198   0.58992   0.00000  Uiso   1.00
H985   H     0.90171   0.34758   0.42540   0.00000  Uiso   1.00
H986   H     0.89487   0.33686   0.57238   0.00000  Uiso   1.00
H987   H     0.55181   0.09835   0.49712   0.00000  Uiso   1.00
H988   H     0.65300   0.40096   0.42550   0.00000  Uiso   1.00
N989   N     0.50000   0.25000   0.61736   0.00000  Uiso   1.00
N990   N     0.50000   0.25000   0.38264   0.00000  Uiso   1.00
N991   N     0.75000   0.00000   0.61736   0.00000  Uiso   1.00
N992   N     0.75000   0.00000   0.38264   0.00000  Uiso   1.00
O993   O     0.54509   0.20491   0.53958   0.00000  Uiso   1.00
O994   O     0.70492   0.04509   0.46042   0.00000  Uiso   1.00
O995   O     0.70492   0.04509   0.53958   0.00000  Uiso   1.00
O996   O     0.79509   0.45491   0.46042   0.00000  Uiso   1.00
O997   O     0.70492   0.45491   0.46042   0.00000  Uiso   1.00
O998   O     0.79509   0.04509   0.53958   0.00000  Uiso   1.00
O999   O     0.79509   0.04509   0.46042   0.00000  Uiso   1.00
O1000  O     0.70492   0.45491   0.53958   0.00000  Uiso   1.00
O1001  O     0.95492   0.29509   0.46042   0.00000  Uiso   1.00
O1002  O     0.95492   0.29509   0.53958   0.00000  Uiso   1.00
O1003  O     0.54509   0.20491   0.46042   0.00000  Uiso   1.00
O1004  O     0.95492   0.20491   0.46042   0.00000  Uiso   1.00
O1005  O     0.54509   0.29509   0.53958   0.00000  Uiso   1.00
O1006  O     0.54509   0.29509   0.46042   0.00000  Uiso   1.00
O1007  O     0.95492   0.20491   0.53958   0.00000  Uiso   1.00
O1008  O     0.79509   0.45491   0.53958   0.00000  Uiso   1.00
C1009  C     0.05916   0.69053   0.49999   0.00000  Uiso   1.00
C1010  C     0.49442   0.79000   0.64265   0.00000  Uiso   1.00
C1011  C     0.00163   0.79034   0.35755   0.00000  Uiso   1.00
C1012  C     0.00621   0.70993   0.64229   0.00000  Uiso   1.00
C1013  C     0.25556   0.96000   0.35736   0.00000  Uiso   1.00
C1014  C     0.24793   0.54055   0.64193   0.00000  Uiso   1.00
C1015  C     0.24380   0.54008   0.35771   0.00000  Uiso   1.00
C1016  C     0.24838   0.95966   0.64245   0.00000  Uiso   1.00
C1017  C     0.38546   0.64781   0.45952   0.00000  Uiso   1.00
C1018  C     0.10801   0.86077   0.54159   0.00000  Uiso   1.00
C1019  C     0.11313   0.85401   0.45923   0.00000  Uiso   1.00
C1020  C     0.43970   0.80811   0.49988   0.00000  Uiso   1.00
C1021  C     0.39414   0.63665   0.54107   0.00000  Uiso   1.00
C1022  C     0.13396   0.67224   0.50201   0.00000  Uiso   1.00
C1023  C     0.39128   0.86001   0.45830   0.00000  Uiso   1.00
C1024  C     0.38713   0.85412   0.54084   0.00000  Uiso   1.00
C1025  C     0.08377   0.61003   0.49805   0.00000  Uiso   1.00
C1026  C     0.14196   0.88927   0.45841   0.00000  Uiso   1.00
C1027  C     0.36456   0.60216   0.54048   0.00000  Uiso   1.00
C1028  C     0.35588   0.61332   0.45893   0.00000  Uiso   1.00
C1029  C     0.13684   0.89603   0.54077   0.00000  Uiso   1.00
C1030  C     0.35876   0.89004   0.54169   0.00000  Uiso   1.00
C1031  C     0.44008   0.69136   0.50009   0.00000  Uiso   1.00
C1032  C     0.11605   0.57776   0.49800   0.00000  Uiso   1.00
C1033  C     0.16623   0.63997   0.50197   0.00000  Uiso   1.00
C1034  C     0.36291   0.89593   0.45916   0.00000  Uiso   1.00
C1035  C     0.09455   0.84091   0.50046   0.00000  Uiso   1.00
C1036  C     0.40586   0.65861   0.50033   0.00000  Uiso   1.00
C1037  C     0.40512   0.84048   0.49951   0.00000  Uiso   1.00
C1038  C     0.09277   0.65715   0.49995   0.00000  Uiso   1.00
C1039  C     0.34415   0.59136   0.49967   0.00000  Uiso   1.00
C1040  C     0.15543   0.90912   0.49955   0.00000  Uiso   1.00
C1041  C     0.15723   0.59285   0.50005   0.00000  Uiso   1.00
C1042  C     0.06015   0.80835   0.50009   0.00000  Uiso   1.00
C1043  C     0.34490   0.90956   0.50049   0.00000  Uiso   1.00
C1044  C     0.00158   0.66391   0.38139   0.00000  Uiso   1.00
C1045  C     0.03909   0.64028   0.39005   0.00000  Uiso   1.00
C1046  C     0.03889   0.59346   0.40190   0.00000  Uiso   1.00
C1047  C     0.00123   0.56996   0.40597   0.00000  Uiso   1.00
C1048  C     0.46385   0.59284   0.39642   0.00000  Uiso   1.00
C1049  C     0.46419   0.63924   0.38302   0.00000  Uiso   1.00
C1050  C     0.47726   0.83394   0.62360   0.00000  Uiso   1.00
C1051  C     0.00207   0.86479   0.59874   0.00000  Uiso   1.00
C1052  C     0.48842   0.90974   0.58929   0.00000  Uiso   1.00
C1053  C     0.31031   0.94190   0.50012   0.00000  Uiso   1.00
C1054  C     0.45063   0.92549   0.60713   0.00000  Uiso   1.00
C1055  C     0.42669   0.89625   0.63445   0.00000  Uiso   1.00
C1056  C     0.43967   0.85070   0.64227   0.00000  Uiso   1.00
C1057  C     0.01981   0.83384   0.37586   0.00000  Uiso   1.00
C1058  C     0.49595   0.86589   0.40064   0.00000  Uiso   1.00
C1059  C     0.01084   0.91021   0.40964   0.00000  Uiso   1.00
C1060  C     0.04908   0.92405   0.39175   0.00000  Uiso   1.00
C1061  C     0.07236   0.89347   0.36495   0.00000  Uiso   1.00
C1062  C     0.05815   0.84849   0.35755   0.00000  Uiso   1.00
C1063  C     0.02019   0.66655   0.62011   0.00000  Uiso   1.00
C1064  C     0.19084   0.55947   0.50001   0.00000  Uiso   1.00
C1065  C     0.49158   0.63145   0.61100   0.00000  Uiso   1.00
C1066  C     0.00523   0.58721   0.59880   0.00000  Uiso   1.00
C1067  C     0.04778   0.57722   0.59727   0.00000  Uiso   1.00
C1068  C     0.07664   0.61156   0.60761   0.00000  Uiso   1.00
C1069  C     0.06301   0.65601   0.61904   0.00000  Uiso   1.00
C1070  C     0.27270   0.91605   0.37642   0.00000  Uiso   1.00
C1071  C     0.24786   0.88521   0.40125   0.00000  Uiso   1.00
C1072  C     0.26150   0.84026   0.41073   0.00000  Uiso   1.00
C1073  C     0.29931   0.82451   0.39296   0.00000  Uiso   1.00
C1074  C     0.32327   0.85373   0.36565   0.00000  Uiso   1.00
C1075  C     0.18984   0.94166   0.49991   0.00000  Uiso   1.00
C1076  C     0.31030   0.89928   0.35779   0.00000  Uiso   1.00
C1077  C     0.24845   0.58609   0.61861   0.00000  Uiso   1.00
C1078  C     0.28586   0.61074   0.61698   0.00000  Uiso   1.00
C1079  C     0.28622   0.65714   0.60358   0.00000  Uiso   1.00
C1080  C     0.24884   0.68005   0.59403   0.00000  Uiso   1.00
C1081  C     0.21117   0.65657   0.59810   0.00000  Uiso   1.00
C1082  C     0.21095   0.60975   0.60994   0.00000  Uiso   1.00
C1083  C     0.22986   0.58346   0.37990   0.00000  Uiso   1.00
C1084  C     0.18706   0.59406   0.38101   0.00000  Uiso   1.00
C1085  C     0.17347   0.63851   0.39248   0.00000  Uiso   1.00
C1086  C     0.30992   0.55863   0.49991   0.00000  Uiso   1.00
C1087  C     0.20236   0.67282   0.40280   0.00000  Uiso   1.00
C1088  C     0.24490   0.66279   0.40120   0.00000  Uiso   1.00
C1089  C     0.25850   0.61854   0.38897   0.00000  Uiso   1.00
C1090  C     0.23022   0.91615   0.62412   0.00000  Uiso   1.00
C1091  C     0.19187   0.90148   0.64239   0.00000  Uiso   1.00
C1092  C     0.17768   0.85650   0.63496   0.00000  Uiso   1.00
C1093  C     0.20100   0.82593   0.60819   0.00000  Uiso   1.00
C1094  C     0.23924   0.83979   0.59034   0.00000  Uiso   1.00
C1095  C     0.25412   0.88412   0.59937   0.00000  Uiso   1.00
C1096  C     0.00208   0.70945   0.35807   0.00000  Uiso   1.00
Cu1097 Cu    0.00000   0.75000   0.54689   0.00000  Uiso   1.00
Cu1098 Cu    0.00000   0.75000   0.45311   0.00000  Uiso   1.00
Cu1099 Cu    0.25000   0.50000   0.54689   0.00000  Uiso   1.00
Cu1100 Cu    0.25000   0.50000   0.45311   0.00000  Uiso   1.00
H1101  H     0.39197   0.66621   0.42818   0.00000  Uiso   1.00
H1102  H     0.35805   0.58376   0.57181   0.00000  Uiso   1.00
H1103  H     0.34261   0.60379   0.42661   0.00000  Uiso   1.00
H1104  H     0.14445   0.91325   0.57229   0.00000  Uiso   1.00
H1105  H     0.34834   0.90247   0.57460   0.00000  Uiso   1.00
H1106  H     0.10899   0.54124   0.49660   0.00000  Uiso   1.00
H1107  H     0.19819   0.65165   0.50290   0.00000  Uiso   1.00
H1108  H     0.35517   0.91319   0.42762   0.00000  Uiso   1.00
H1109  H     0.06848   0.65777   0.38571   0.00000  Uiso   1.00
H1110  H     0.06799   0.57529   0.40748   0.00000  Uiso   1.00
H1111  H     0.00111   0.53376   0.41535   0.00000  Uiso   1.00
H1112  H     0.09695   0.84910   0.57450   0.00000  Uiso   1.00
H1113  H     0.43476   0.57421   0.39776   0.00000  Uiso   1.00
H1114  H     0.43573   0.65539   0.37122   0.00000  Uiso   1.00
H1115  H     0.03313   0.85566   0.59003   0.00000  Uiso   1.00
H1116  H     0.00804   0.93298   0.56991   0.00000  Uiso   1.00
H1117  H     0.44042   0.96062   0.60077   0.00000  Uiso   1.00
H1118  H     0.39812   0.90885   0.64955   0.00000  Uiso   1.00
H1119  H     0.42126   0.82876   0.66439   0.00000  Uiso   1.00
H1120  H     0.46486   0.85804   0.41013   0.00000  Uiso   1.00
H1121  H     0.49194   0.93443   0.42895   0.00000  Uiso   1.00
H1122  H     0.06026   0.95869   0.39786   0.00000  Uiso   1.00
H1123  H     0.10552   0.83679   0.42771   0.00000  Uiso   1.00
H1124  H     0.10150   0.90455   0.35015   0.00000  Uiso   1.00
H1125  H     0.07627   0.82547   0.33600   0.00000  Uiso   1.00
H1126  H     0.45903   0.63747   0.61714   0.00000  Uiso   1.00
H1127  H     0.48282   0.56028   0.59220   0.00000  Uiso   1.00
H1128  H     0.05840   0.54279   0.58849   0.00000  Uiso   1.00
H1129  H     0.10954   0.60368   0.60692   0.00000  Uiso   1.00
H1130  H     0.08567   0.68189   0.62837   0.00000  Uiso   1.00
H1131  H     0.21679   0.89435   0.40992   0.00000  Uiso   1.00
H1132  H     0.24185   0.81703   0.43011   0.00000  Uiso   1.00
H1133  H     0.30950   0.78938   0.39935   0.00000  Uiso   1.00
H1134  H     0.40741   0.64618   0.57339   0.00000  Uiso   1.00
H1135  H     0.35186   0.84112   0.35059   0.00000  Uiso   1.00
H1136  H     0.32874   0.92121   0.33569   0.00000  Uiso   1.00
H1137  H     0.31431   0.59457   0.62877   0.00000  Uiso   1.00
H1138  H     0.31531   0.67575   0.60223   0.00000  Uiso   1.00
H1139  H     0.24898   0.71624   0.58466   0.00000  Uiso   1.00
H1140  H     0.18209   0.67477   0.59253   0.00000  Uiso   1.00
H1141  H     0.18155   0.59228   0.61429   0.00000  Uiso   1.00
H1142  H     0.16436   0.56819   0.37171   0.00000  Uiso   1.00
H1143  H     0.14058   0.64642   0.39322   0.00000  Uiso   1.00
H1144  H     0.19177   0.70725   0.41162   0.00000  Uiso   1.00
H1145  H     0.14101   0.70876   0.50341   0.00000  Uiso   1.00
H1146  H     0.26734   0.68970   0.40778   0.00000  Uiso   1.00
H1147  H     0.29105   0.61249   0.38279   0.00000  Uiso   1.00
H1148  H     0.17373   0.92449   0.66393   0.00000  Uiso   1.00
H1149  H     0.14853   0.84541   0.64974   0.00000  Uiso   1.00
H1150  H     0.18983   0.79129   0.60205   0.00000  Uiso   1.00
H1151  H     0.25817   0.81558   0.57105   0.00000  Uiso   1.00
H1152  H     0.28521   0.89198   0.58992   0.00000  Uiso   1.00
H1153  H     0.40171   0.84758   0.42540   0.00000  Uiso   1.00
H1154  H     0.39487   0.83686   0.57238   0.00000  Uiso   1.00
H1155  H     0.05181   0.59835   0.49712   0.00000  Uiso   1.00
H1156  H     0.15300   0.90096   0.42550   0.00000  Uiso   1.00
N1157  N     0.00000   0.75000   0.61736   0.00000  Uiso   1.00
N1158  N     0.00000   0.75000   0.38264   0.00000  Uiso   1.00
N1159  N     0.25000   0.50000   0.61736   0.00000  Uiso   1.00
N1160  N     0.25000   0.50000   0.38264   0.00000  Uiso   1.00
O1161  O     0.04509   0.70491   0.53958   0.00000  Uiso   1.00
O1162  O     0.20492   0.54509   0.46042   0.00000  Uiso   1.00
O1163  O     0.20492   0.54509   0.53958   0.00000  Uiso   1.00
O1164  O     0.29509   0.95491   0.46042   0.00000  Uiso   1.00
O1165  O     0.20492   0.95491   0.46042   0.00000  Uiso   1.00
O1166  O     0.29509   0.54509   0.53958   0.00000  Uiso   1.00
O1167  O     0.29509   0.54509   0.46042   0.00000  Uiso   1.00
O1168  O     0.20492   0.95491   0.53958   0.00000  Uiso   1.00
O1169  O     0.45492   0.79509   0.46042   0.00000  Uiso   1.00
O1170  O     0.45492   0.79509   0.53958   0.00000  Uiso   1.00
O1171  O     0.04509   0.70491   0.46042   0.00000  Uiso   1.00
O1172  O     0.45492   0.70491   0.46042   0.00000  Uiso   1.00
O1173  O     0.04509   0.79509   0.53958   0.00000  Uiso   1.00
O1174  O     0.04509   0.79509   0.46042   0.00000  Uiso   1.00
O1175  O     0.45492   0.70491   0.53958   0.00000  Uiso   1.00
O1176  O     0.29509   0.95491   0.53958   0.00000  Uiso   1.00
C1177  C     0.55916   0.69053   0.49999   0.00000  Uiso   1.00
C1178  C     0.99442   0.79000   0.64265   0.00000  Uiso   1.00
C1179  C     0.50163   0.79034   0.35755   0.00000  Uiso   1.00
C1180  C     0.50621   0.70993   0.64229   0.00000  Uiso   1.00
C1181  C     0.75556   0.96000   0.35736   0.00000  Uiso   1.00
C1182  C     0.74793   0.54055   0.64193   0.00000  Uiso   1.00
C1183  C     0.74380   0.54008   0.35771   0.00000  Uiso   1.00
C1184  C     0.74838   0.95966   0.64245   0.00000  Uiso   1.00
C1185  C     0.88546   0.64781   0.45952   0.00000  Uiso   1.00
C1186  C     0.60801   0.86077   0.54159   0.00000  Uiso   1.00
C1187  C     0.61313   0.85401   0.45923   0.00000  Uiso   1.00
C1188  C     0.93970   0.80811   0.49988   0.00000  Uiso   1.00
C1189  C     0.89414   0.63665   0.54107   0.00000  Uiso   1.00
C1190  C     0.63396   0.67224   0.50201   0.00000  Uiso   1.00
C1191  C     0.89128   0.86001   0.45830   0.00000  Uiso   1.00
C1192  C     0.88713   0.85412   0.54084   0.00000  Uiso   1.00
C1193  C     0.58377   0.61003   0.49805   0.00000  Uiso   1.00
C1194  C     0.64196   0.88927   0.45841   0.00000  Uiso   1.00
C1195  C     0.86456   0.60216   0.54048   0.00000  Uiso   1.00
C1196  C     0.85588   0.61332   0.45893   0.00000  Uiso   1.00
C1197  C     0.63684   0.89603   0.54077   0.00000  Uiso   1.00
C1198  C     0.85876   0.89004   0.54169   0.00000  Uiso   1.00
C1199  C     0.94008   0.69136   0.50009   0.00000  Uiso   1.00
C1200  C     0.61605   0.57776   0.49800   0.00000  Uiso   1.00
C1201  C     0.66623   0.63997   0.50197   0.00000  Uiso   1.00
C1202  C     0.86291   0.89593   0.45916   0.00000  Uiso   1.00
C1203  C     0.59455   0.84091   0.50046   0.00000  Uiso   1.00
C1204  C     0.90586   0.65861   0.50033   0.00000  Uiso   1.00
C1205  C     0.90512   0.84048   0.49951   0.00000  Uiso   1.00
C1206  C     0.59277   0.65715   0.49995   0.00000  Uiso   1.00
C1207  C     0.84415   0.59136   0.49967   0.00000  Uiso   1.00
C1208  C     0.65543   0.90912   0.49955   0.00000  Uiso   1.00
C1209  C     0.65723   0.59285   0.50005   0.00000  Uiso   1.00
C1210  C     0.56015   0.80835   0.50009   0.00000  Uiso   1.00
C1211  C     0.84490   0.90956   0.50049   0.00000  Uiso   1.00
C1212  C     0.50158   0.66391   0.38139   0.00000  Uiso   1.00
C1213  C     0.53909   0.64028   0.39005   0.00000  Uiso   1.00
C1214  C     0.53889   0.59346   0.40190   0.00000  Uiso   1.00
C1215  C     0.50123   0.56996   0.40597   0.00000  Uiso   1.00
C1216  C     0.96385   0.59284   0.39642   0.00000  Uiso   1.00
C1217  C     0.96419   0.63924   0.38302   0.00000  Uiso   1.00
C1218  C     0.97726   0.83394   0.62360   0.00000  Uiso   1.00
C1219  C     0.50207   0.86479   0.59874   0.00000  Uiso   1.00
C1220  C     0.98842   0.90974   0.58929   0.00000  Uiso   1.00
C1221  C     0.81031   0.94190   0.50012   0.00000  Uiso   1.00
C1222  C     0.95063   0.92549   0.60713   0.00000  Uiso   1.00
C1223  C     0.92669   0.89625   0.63445   0.00000  Uiso   1.00
C1224  C     0.93967   0.85070   0.64227   0.00000  Uiso   1.00
C1225  C     0.51981   0.83384   0.37586   0.00000  Uiso   1.00
C1226  C     0.99595   0.86589   0.40064   0.00000  Uiso   1.00
C1227  C     0.51084   0.91021   0.40964   0.00000  Uiso   1.00
C1228  C     0.54908   0.92405   0.39175   0.00000  Uiso   1.00
C1229  C     0.57236   0.89347   0.36495   0.00000  Uiso   1.00
C1230  C     0.55815   0.84849   0.35755   0.00000  Uiso   1.00
C1231  C     0.52019   0.66655   0.62011   0.00000  Uiso   1.00
C1232  C     0.69084   0.55947   0.50001   0.00000  Uiso   1.00
C1233  C     0.99158   0.63145   0.61100   0.00000  Uiso   1.00
C1234  C     0.50523   0.58721   0.59880   0.00000  Uiso   1.00
C1235  C     0.54778   0.57722   0.59727   0.00000  Uiso   1.00
C1236  C     0.57664   0.61156   0.60761   0.00000  Uiso   1.00
C1237  C     0.56301   0.65601   0.61904   0.00000  Uiso   1.00
C1238  C     0.77270   0.91605   0.37642   0.00000  Uiso   1.00
C1239  C     0.74786   0.88521   0.40125   0.00000  Uiso   1.00
C1240  C     0.76150   0.84026   0.41073   0.00000  Uiso   1.00
C1241  C     0.79931   0.82451   0.39296   0.00000  Uiso   1.00
C1242  C     0.82327   0.85373   0.36565   0.00000  Uiso   1.00
C1243  C     0.68984   0.94166   0.49991   0.00000  Uiso   1.00
C1244  C     0.81030   0.89928   0.35779   0.00000  Uiso   1.00
C1245  C     0.74845   0.58609   0.61861   0.00000  Uiso   1.00
C1246  C     0.78586   0.61074   0.61698   0.00000  Uiso   1.00
C1247  C     0.78622   0.65714   0.60358   0.00000  Uiso   1.00
C1248  C     0.74884   0.68005   0.59403   0.00000  Uiso   1.00
C1249  C     0.71117   0.65657   0.59810   0.00000  Uiso   1.00
C1250  C     0.71095   0.60975   0.60994   0.00000  Uiso   1.00
C1251  C     0.72986   0.58346   0.37990   0.00000  Uiso   1.00
C1252  C     0.68706   0.59406   0.38101   0.00000  Uiso   1.00
C1253  C     0.67347   0.63851   0.39248   0.00000  Uiso   1.00
C1254  C     0.80992   0.55863   0.49991   0.00000  Uiso   1.00
C1255  C     0.70236   0.67282   0.40280   0.00000  Uiso   1.00
C1256  C     0.74490   0.66279   0.40120   0.00000  Uiso   1.00
C1257  C     0.75850   0.61854   0.38897   0.00000  Uiso   1.00
C1258  C     0.73022   0.91615   0.62412   0.00000  Uiso   1.00
C1259  C     0.69187   0.90148   0.64239   0.00000  Uiso   1.00
C1260  C     0.67768   0.85650   0.63496   0.00000  Uiso   1.00
C1261  C     0.70100   0.82593   0.60819   0.00000  Uiso   1.00
C1262  C     0.73924   0.83979   0.59034   0.00000  Uiso   1.00
C1263  C     0.75412   0.88412   0.59937   0.00000  Uiso   1.00
C1264  C     0.50208   0.70945   0.35807   0.00000  Uiso   1.00
Cu1265 Cu    0.50000   0.75000   0.54689   0.00000  Uiso   1.00
Cu1266 Cu    0.50000   0.75000   0.45311   0.00000  Uiso   1.00
Cu1267 Cu    0.75000   0.50000   0.54689   0.00000  Uiso   1.00
Cu1268 Cu    0.75000   0.50000   0.45311   0.00000  Uiso   1.00
H1269  H     0.89197   0.66621   0.42818   0.00000  Uiso   1.00
H1270  H     0.85805   0.58376   0.57181   0.00000  Uiso   1.00
H1271  H     0.84261   0.60379   0.42661   0.00000  Uiso   1.00
H1272  H     0.64445   0.91325   0.57229   0.00000  Uiso   1.00
H1273  H     0.84834   0.90247   0.57460   0.00000  Uiso   1.00
H1274  H     0.60899   0.54124   0.49660   0.00000  Uiso   1.00
H1275  H     0.69819   0.65165   0.50290   0.00000  Uiso   1.00
H1276  H     0.85517   0.91319   0.42762   0.00000  Uiso   1.00
H1277  H     0.56848   0.65777   0.38571   0.00000  Uiso   1.00
H1278  H     0.56799   0.57529   0.40748   0.00000  Uiso   1.00
H1279  H     0.50111   0.53376   0.41535   0.00000  Uiso   1.00
H1280  H     0.59695   0.84910   0.57450   0.00000  Uiso   1.00
H1281  H     0.93476   0.57421   0.39776   0.00000  Uiso   1.00
H1282  H     0.93573   0.65539   0.37122   0.00000  Uiso   1.00
H1283  H     0.53313   0.85566   0.59003   0.00000  Uiso   1.00
H1284  H     0.50804   0.93298   0.56991   0.00000  Uiso   1.00
H1285  H     0.94042   0.96062   0.60077   0.00000  Uiso   1.00
H1286  H     0.89812   0.90885   0.64955   0.00000  Uiso   1.00
H1287  H     0.92126   0.82876   0.66439   0.00000  Uiso   1.00
H1288  H     0.96486   0.85804   0.41013   0.00000  Uiso   1.00
H1289  H     0.99194   0.93443   0.42895   0.00000  Uiso   1.00
H1290  H     0.56026   0.95869   0.39786   0.00000  Uiso   1.00
H1291  H     0.60552   0.83679   0.42771   0.00000  Uiso   1.00
H1292  H     0.60150   0.90455   0.35015   0.00000  Uiso   1.00
H1293  H     0.57627   0.82547   0.33600   0.00000  Uiso   1.00
H1294  H     0.95903   0.63747   0.61714   0.00000  Uiso   1.00
H1295  H     0.98282   0.56028   0.59220   0.00000  Uiso   1.00
H1296  H     0.55840   0.54279   0.58849   0.00000  Uiso   1.00
H1297  H     0.60954   0.60368   0.60692   0.00000  Uiso   1.00
H1298  H     0.58567   0.68189   0.62837   0.00000  Uiso   1.00
H1299  H     0.71679   0.89435   0.40992   0.00000  Uiso   1.00
H1300  H     0.74185   0.81703   0.43011   0.00000  Uiso   1.00
H1301  H     0.80950   0.78938   0.39935   0.00000  Uiso   1.00
H1302  H     0.90741   0.64618   0.57339   0.00000  Uiso   1.00
H1303  H     0.85186   0.84112   0.35059   0.00000  Uiso   1.00
H1304  H     0.82874   0.92121   0.33569   0.00000  Uiso   1.00
H1305  H     0.81431   0.59457   0.62877   0.00000  Uiso   1.00
H1306  H     0.81531   0.67575   0.60223   0.00000  Uiso   1.00
H1307  H     0.74898   0.71624   0.58466   0.00000  Uiso   1.00
H1308  H     0.68209   0.67477   0.59253   0.00000  Uiso   1.00
H1309  H     0.68155   0.59228   0.61429   0.00000  Uiso   1.00
H1310  H     0.66436   0.56819   0.37171   0.00000  Uiso   1.00
H1311  H     0.64058   0.64642   0.39322   0.00000  Uiso   1.00
H1312  H     0.69177   0.70725   0.41162   0.00000  Uiso   1.00
H1313  H     0.64101   0.70876   0.50341   0.00000  Uiso   1.00
H1314  H     0.76734   0.68970   0.40778   0.00000  Uiso   1.00
H1315  H     0.79105   0.61249   0.38279   0.00000  Uiso   1.00
H1316  H     0.67373   0.92449   0.66393   0.00000  Uiso   1.00
H1317  H     0.64853   0.84541   0.64974   0.00000  Uiso   1.00
H1318  H     0.68983   0.79129   0.60205   0.00000  Uiso   1.00
H1319  H     0.75817   0.81558   0.57105   0.00000  Uiso   1.00
H1320  H     0.78521   0.89198   0.58992   0.00000  Uiso   1.00
H1321  H     0.90171   0.84758   0.42540   0.00000  Uiso   1.00
H1322  H     0.89487   0.83686   0.57238   0.00000  Uiso   1.00
H1323  H     0.55181   0.59835   0.49712   0.00000  Uiso   1.00
H1324  H     0.65300   0.90096   0.42550   0.00000  Uiso   1.00
N1325  N     0.50000   0.75000   0.61736   0.00000  Uiso   1.00
N1326  N     0.50000   0.75000   0.38264   0.00000  Uiso   1.00
N1327  N     0.75000   0.50000   0.61736   0.00000  Uiso   1.00
N1328  N     0.75000   0.50000   0.38264   0.00000  Uiso   1.00
O1329  O     0.54509   0.70491   0.53958   0.00000  Uiso   1.00
O1330  O     0.70492   0.54509   0.46042   0.00000  Uiso   1.00
O1331  O     0.70492   0.54509   0.53958   0.00000  Uiso   1.00
O1332  O     0.79509   0.95491   0.46042   0.00000  Uiso   1.00
O1333  O     0.70492   0.95491   0.46042   0.00000  Uiso   1.00
O1334  O     0.79509   0.54509   0.53958   0.00000  Uiso   1.00
O1335  O     0.79509   0.54509   0.46042   0.00000  Uiso   1.00
O1336  O     0.70492   0.95491   0.53958   0.00000  Uiso   1.00
O1337  O     0.95492   0.79509   0.46042   0.00000  Uiso   1.00
O1338  O     0.95492   0.79509   0.53958   0.00000  Uiso   1.00
O1339  O     0.54509   0.70491   0.46042   0.00000  Uiso   1.00
O1340  O     0.95492   0.70491   0.46042   0.00000  Uiso   1.00
O1341  O     0.54509   0.79509   0.53958   0.00000  Uiso   1.00
O1342  O     0.54509   0.79509   0.46042   0.00000  Uiso   1.00
O1343  O     0.95492   0.70491   0.53958   0.00000  Uiso   1.00
O1344  O     0.79509   0.95491   0.53958   0.00000  Uiso   1.00
C1345  C     0.05916   0.19053   0.83333   0.00000  Uiso   1.00
C1346  C     0.49442   0.29000   0.97598   0.00000  Uiso   1.00
C1347  C     0.00163   0.29034   0.69088   0.00000  Uiso   1.00
C1348  C     0.00621   0.20993   0.97563   0.00000  Uiso   1.00
C1349  C     0.25556   0.46000   0.69069   0.00000  Uiso   1.00
C1350  C     0.24793   0.04055   0.97527   0.00000  Uiso   1.00
C1351  C     0.24380   0.04008   0.69104   0.00000  Uiso   1.00
C1352  C     0.24838   0.45966   0.97579   0.00000  Uiso   1.00
C1353  C     0.38546   0.14781   0.79285   0.00000  Uiso   1.00
C1354  C     0.10801   0.36077   0.87492   0.00000  Uiso   1.00
C1355  C     0.11313   0.35401   0.79257   0.00000  Uiso   1.00
C1356  C     0.43970   0.30811   0.83322   0.00000  Uiso   1.00
C1357  C     0.39414   0.13665   0.87440   0.00000  Uiso   1.00
C1358  C     0.13396   0.17224   0.83534   0.00000  Uiso   1.00
C1359  C     0.39128   0.36001   0.79164   0.00000  Uiso   1.00
C1360  C     0.38713   0.35412   0.87417   0.00000  Uiso   1.00
C1361  C     0.08377   0.11003   0.83138   0.00000  Uiso   1.00
C1362  C     0.14196   0.38927   0.79175   0.00000  Uiso   1.00
C1363  C     0.36456   0.10216   0.87381   0.00000  Uiso   1.00
C1364  C     0.35588   0.11332   0.79226   0.00000  Uiso   1.00
C1365  C     0.13684   0.39603   0.87410   0.00000  Uiso   1.00
C1366  C     0.35876   0.39004   0.87503   0.00000  Uiso   1.00
C1367  C     0.44008   0.19136   0.83343   0.00000  Uiso   1.00
C1368  C     0.11605   0.07776   0.83134   0.00000  Uiso   1.00
C1369  C     0.16623   0.13997   0.83530   0.00000  Uiso   1.00
C1370  C     0.36291   0.39593   0.79249   0.00000  Uiso   1.00
C1371  C     0.09455   0.34091   0.83379   0.00000  Uiso   1.00
C1372  C     0.40586   0.15861   0.83366   0.00000  Uiso   1.00
C1373  C     0.40512   0.34048   0.83284   0.00000  Uiso   1.00
C1374  C     0.09277   0.15715   0.83329   0.00000  Uiso   1.00
C1375  C     0.34415   0.09136   0.83300   0.00000  Uiso   1.00
C1376  C     0.15543   0.40912   0.83288   0.00000  Uiso   1.00
C1377  C     0.15723   0.09285   0.83339   0.00000  Uiso   1.00
C1378  C     0.06015   0.30835   0.83342   0.00000  Uiso   1.00
C1379  C     0.34490   0.40956   0.83383   0.00000  Uiso   1.00
C1380  C     0.00158   0.16391   0.71472   0.00000  Uiso   1.00
C1381  C     0.03909   0.14028   0.72339   0.00000  Uiso   1.00
C1382  C     0.03889   0.09346   0.73523   0.00000  Uiso   1.00
C1383  C     0.00123   0.06996   0.73931   0.00000  Uiso   1.00
C1384  C     0.46385   0.09284   0.72975   0.00000  Uiso   1.00
C1385  C     0.46419   0.13924   0.71635   0.00000  Uiso   1.00
C1386  C     0.47726   0.33394   0.95694   0.00000  Uiso   1.00
C1387  C     0.00207   0.36479   0.93208   0.00000  Uiso   1.00
C1388  C     0.48842   0.40974   0.92263   0.00000  Uiso   1.00
C1389  C     0.31031   0.44190   0.83345   0.00000  Uiso   1.00
C1390  C     0.45063   0.42549   0.94046   0.00000  Uiso   1.00
C1391  C     0.42669   0.39625   0.96778   0.00000  Uiso   1.00
C1392  C     0.43967   0.35070   0.97560   0.00000  Uiso   1.00
C1393  C     0.01981   0.33384   0.70919   0.00000  Uiso   1.00
C1394  C     0.49595   0.36589   0.73397   0.00000  Uiso   1.00
C1395  C     0.01084   0.41021   0.74298   0.00000  Uiso   1.00
C1396  C     0.04908   0.42405   0.72508   0.00000  Uiso   1.00
C1397  C     0.07236   0.39347   0.69829   0.00000  Uiso   1.00
C1398  C     0.05815   0.34849   0.69088   0.00000  Uiso   1.00
C1399  C     0.02019   0.16655   0.95344   0.00000  Uiso   1.00
C1400  C     0.19084   0.05947   0.83334   0.00000  Uiso   1.00
C1401  C     0.49158   0.13145   0.94434   0.00000  Uiso   1.00
C1402  C     0.00523   0.08721   0.93214   0.00000  Uiso   1.00
C1403  C     0.04778   0.07722   0.93060   0.00000  Uiso   1.00
C1404  C     0.07664   0.11156   0.94094   0.00000  Uiso   1.00
C1405  C     0.06301   0.15601   0.95238   0.00000  Uiso   1.00
C1406  C     0.27270   0.41605   0.70975   0.00000  Uiso   1.00
C1407  C     0.24786   0.38521   0.73458   0.00000  Uiso   1.00
C1408  C     0.26150   0.34026   0.74407   0.00000  Uiso   1.00
C1409  C     0.29931   0.32451   0.72629   0.00000  Uiso   1.00
C1410  C     0.32327   0.35373   0.69898   0.00000  Uiso   1.00
C1411  C     0.18984   0.44166   0.83325   0.00000  Uiso   1.00
C1412  C     0.31030   0.39928   0.69113   0.00000  Uiso   1.00
C1413  C     0.24845   0.08609   0.95194   0.00000  Uiso   1.00
C1414  C     0.28586   0.11074   0.95031   0.00000  Uiso   1.00
C1415  C     0.28622   0.15714   0.93691   0.00000  Uiso   1.00
C1416  C     0.24884   0.18005   0.92736   0.00000  Uiso   1.00
C1417  C     0.21117   0.15657   0.93143   0.00000  Uiso   1.00
C1418  C     0.21095   0.10975   0.94328   0.00000  Uiso   1.00
C1419  C     0.22986   0.08346   0.71323   0.00000  Uiso   1.00
C1420  C     0.18706   0.09406   0.71434   0.00000  Uiso   1.00
C1421  C     0.17347   0.13851   0.72581   0.00000  Uiso   1.00
C1422  C     0.30992   0.05863   0.83324   0.00000  Uiso   1.00
C1423  C     0.20236   0.17282   0.73613   0.00000  Uiso   1.00
C1424  C     0.24490   0.16279   0.73453   0.00000  Uiso   1.00
C1425  C     0.25850   0.11854   0.72231   0.00000  Uiso   1.00
C1426  C     0.23022   0.41615   0.95746   0.00000  Uiso   1.00
C1427  C     0.19187   0.40148   0.97573   0.00000  Uiso   1.00
C1428  C     0.17768   0.35650   0.96829   0.00000  Uiso   1.00
C1429  C     0.20100   0.32593   0.94152   0.00000  Uiso   1.00
C1430  C     0.23924   0.33979   0.92367   0.00000  Uiso   1.00
C1431  C     0.25412   0.38412   0.93270   0.00000  Uiso   1.00
C1432  C     0.00208   0.20945   0.69140   0.00000  Uiso   1.00
Cu1433 Cu    0.00000   0.25000   0.88022   0.00000  Uiso   1.00
Cu1434 Cu    0.00000   0.25000   0.78645   0.00000  Uiso   1.00
Cu1435 Cu    0.25000   0.00000   0.88022   0.00000  Uiso   1.00
Cu1436 Cu    0.25000   0.00000   0.78645   0.00000  Uiso   1.00
H1437  H     0.39197   0.16621   0.76151   0.00000  Uiso   1.00
H1438  H     0.35805   0.08376   0.90515   0.00000  Uiso   1.00
H1439  H     0.34261   0.10379   0.75994   0.00000  Uiso   1.00
H1440  H     0.14445   0.41325   0.90563   0.00000  Uiso   1.00
H1441  H     0.34834   0.40247   0.90794   0.00000  Uiso   1.00
H1442  H     0.10899   0.04124   0.82993   0.00000  Uiso   1.00
H1443  H     0.19819   0.15165   0.83624   0.00000  Uiso   1.00
H1444  H     0.35517   0.41319   0.76096   0.00000  Uiso   1.00
H1445  H     0.06848   0.15777   0.71904   0.00000  Uiso   1.00
H1446  H     0.06799   0.07529   0.74081   0.00000  Uiso   1.00
H1447  H     0.00111   0.03376   0.74868   0.00000  Uiso   1.00
H1448  H     0.09695   0.34910   0.90783   0.00000  Uiso   1.00
H1449  H     0.43476   0.07421   0.73110   0.00000  Uiso   1.00
H1450  H     0.43573   0.15539   0.70455   0.00000  Uiso   1.00
H1451  H     0.03313   0.35566   0.92336   0.00000  Uiso   1.00
H1452  H     0.00804   0.43298   0.90324   0.00000  Uiso   1.00
H1453  H     0.44042   0.46062   0.93410   0.00000  Uiso   1.00
H1454  H     0.39812   0.40885   0.98289   0.00000  Uiso   1.00
H1455  H     0.42126   0.32876   0.99772   0.00000  Uiso   1.00
H1456  H     0.46486   0.35804   0.74346   0.00000  Uiso   1.00
H1457  H     0.49194   0.43443   0.76228   0.00000  Uiso   1.00
H1458  H     0.06026   0.45869   0.73120   0.00000  Uiso   1.00
H1459  H     0.10552   0.33679   0.76104   0.00000  Uiso   1.00
H1460  H     0.10150   0.40455   0.68348   0.00000  Uiso   1.00
H1461  H     0.07627   0.32547   0.66933   0.00000  Uiso   1.00
H1462  H     0.45903   0.13747   0.95047   0.00000  Uiso   1.00
H1463  H     0.48282   0.06028   0.92553   0.00000  Uiso   1.00
H1464  H     0.05840   0.04279   0.92182   0.00000  Uiso   1.00
H1465  H     0.10954   0.10368   0.94025   0.00000  Uiso   1.00
H1466  H     0.08567   0.18189   0.96170   0.00000  Uiso   1.00
H1467  H     0.21679   0.39435   0.74325   0.00000  Uiso   1.00
H1468  H     0.24185   0.31703   0.76344   0.00000  Uiso   1.00
H1469  H     0.30950   0.28938   0.73268   0.00000  Uiso   1.00
H1470  H     0.40741   0.14618   0.90672   0.00000  Uiso   1.00
H1471  H     0.35186   0.34112   0.68392   0.00000  Uiso   1.00
H1472  H     0.32874   0.42121   0.66903   0.00000  Uiso   1.00
H1473  H     0.31431   0.09457   0.96211   0.00000  Uiso   1.00
H1474  H     0.31531   0.17575   0.93556   0.00000  Uiso   1.00
H1475  H     0.24898   0.21624   0.91800   0.00000  Uiso   1.00
H1476  H     0.18209   0.17477   0.92586   0.00000  Uiso   1.00
H1477  H     0.18155   0.09228   0.94762   0.00000  Uiso   1.00
H1478  H     0.16436   0.06819   0.70504   0.00000  Uiso   1.00
H1479  H     0.14058   0.14642   0.72656   0.00000  Uiso   1.00
H1480  H     0.19177   0.20725   0.74496   0.00000  Uiso   1.00
H1481  H     0.14101   0.20876   0.83675   0.00000  Uiso   1.00
H1482  H     0.26734   0.18970   0.74111   0.00000  Uiso   1.00
H1483  H     0.29105   0.11249   0.71612   0.00000  Uiso   1.00
H1484  H     0.17373   0.42449   0.99726   0.00000  Uiso   1.00
H1485  H     0.14853   0.34541   0.98307   0.00000  Uiso   1.00
H1486  H     0.18983   0.29129   0.93539   0.00000  Uiso   1.00
H1487  H     0.25817   0.31558   0.90438   0.00000  Uiso   1.00
H1488  H     0.28521   0.39198   0.92326   0.00000  Uiso   1.00
H1489  H     0.40171   0.34758   0.75873   0.00000  Uiso   1.00
H1490  H     0.39487   0.33686   0.90571   0.00000  Uiso   1.00
H1491  H     0.05181   0.09835   0.83045   0.00000  Uiso   1.00
H1492  H     0.15300   0.40096   0.75883   0.00000  Uiso   1.00
N1493  N     0.00000   0.25000   0.95069   0.00000  Uiso   1.00
N1494  N     0.00000   0.25000   0.71598   0.00000  Uiso   1.00
N1495  N     0.25000   0.00000   0.95069   0.00000  Uiso   1.00
N1496  N     0.25000   0.00000   0.71598   0.00000  Uiso   1.00
O1497  O     0.04509   0.20491   0.87291   0.00000  Uiso   1.00
O1498  O     0.20492   0.04509   0.79375   0.00000  Uiso   1.00
O1499  O     0.20492   0.04509   0.87291   0.00000  Uiso   1.00
O1500  O     0.29509   0.45491   0.79375   0.00000  Uiso   1.00
O1501  O     0.20492   0.45491   0.79375   0.00000  Uiso   1.00
O1502  O     0.29509   0.04509   0.87291   0.00000  Uiso   1.00
O1503  O     0.29509   0.04509   0.79375   0.00000  Uiso   1.00
O1504  O     0.20492   0.45491   0.87291   0.00000  Uiso   1.00
O1505  O     0.45492   0.29509   0.79375   0.00000  Uiso   1.00
O1506  O     0.45492   0.29509   0.87291   0.00000  Uiso   1.00
O1507  O     0.04509   0.20491   0.79375   0.00000  Uiso   1.00
O1508  O     0.45492   0.20491   0.79375   0.00000  Uiso   1.00
O1509  O     0.04509   0.29509   0.87291   0.00000  Uiso   1.00
O1510  O     0.04509   0.29509   0.79375   0.00000  Uiso   1.00
O1511  O     0.45492   0.20491   0.87291   0.00000  Uiso   1.00
O1512  O     0.29509   0.45491   0.87291   0.00000  Uiso   1.00
C1513  C     0.55916   0.19053   0.83333   0.00000  Uiso   1.00
C1514  C     0.99442   0.29000   0.97598   0.00000  Uiso   1.00
C1515  C     0.50163   0.29034   0.69088   0.00000  Uiso   1.00
C1516  C     0.50621   0.20993   0.97563   0.00000  Uiso   1.00
C1517  C     0.75556   0.46000   0.69069   0.00000  Uiso   1.00
C1518  C     0.74793   0.04055   0.97527   0.00000  Uiso   1.00
C1519  C     0.74380   0.04008   0.69104   0.00000  Uiso   1.00
C1520  C     0.74838   0.45966   0.97579   0.00000  Uiso   1.00
C1521  C     0.88546   0.14781   0.79285   0.00000  Uiso   1.00
C1522  C     0.60801   0.36077   0.87492   0.00000  Uiso   1.00
C1523  C     0.61313   0.35401   0.79257   0.00000  Uiso   1.00
C1524  C     0.93970   0.30811   0.83322   0.00000  Uiso   1.00
C1525  C     0.89414   0.13665   0.87440   0.00000  Uiso   1.00
C1526  C     0.63396   0.17224   0.83534   0.00000  Uiso   1.00
C1527  C     0.89128   0.36001   0.79164   0.00000  Uiso   1.00
C1528  C     0.88713   0.35412   0.87417   0.00000  Uiso   1.00
C1529  C     0.58377   0.11003   0.83138   0.00000  Uiso   1.00
C1530  C     0.64196   0.38927   0.79175   0.00000  Uiso   1.00
C1531  C     0.86456   0.10216   0.87381   0.00000  Uiso   1.00
C1532  C     0.85588   0.11332   0.79226   0.00000  Uiso   1.00
C1533  C     0.63684   0.39603   0.87410   0.00000  Uiso   1.00
C1534  C     0.85876   0.39004   0.87503   0.00000  Uiso   1.00
C1535  C     0.94008   0.19136   0.83343   0.00000  Uiso   1.00
C1536  C     0.61605   0.07776   0.83134   0.00000  Uiso   1.00
C1537  C     0.66623   0.13997   0.83530   0.00000  Uiso   1.00
C1538  C     0.86291   0.39593   0.79249   0.00000  Uiso   1.00
C1539  C     0.59455   0.34091   0.83379   0.00000  Uiso   1.00
C1540  C     0.90586   0.15861   0.83366   0.00000  Uiso   1.00
C1541  C     0.90512   0.34048   0.83284   0.00000  Uiso   1.00
C1542  C     0.59277   0.15715   0.83329   0.00000  Uiso   1.00
C1543  C     0.84415   0.09136   0.83300   0.00000  Uiso   1.00
C1544  C     0.65543   0.40912   0.83288   0.00000  Uiso   1.00
C1545  C     0.65723   0.09285   0.83339   0.00000  Uiso   1.00
C1546  C     0.56015   0.30835   0.83342   0.00000  Uiso   1.00
C1547  C     0.84490   0.40956   0.83383   0.00000  Uiso   1.00
C1548  C     0.50158   0.16391   0.71472   0.00000  Uiso   1.00
C1549  C     0.53909   0.14028   0.72339   0.00000  Uiso   1.00
C1550  C     0.53889   0.09346   0.73523   0.00000  Uiso   1.00
C1551  C     0.50123   0.06996   0.73931   0.00000  Uiso   1.00
C1552  C     0.96385   0.09284   0.72975   0.00000  Uiso   1.00
C1553  C     0.96419   0.13924   0.71635   0.00000  Uiso   1.00
C1554  C     0.97726   0.33394   0.95694   0.00000  Uiso   1.00
C1555  C     0.50207   0.36479   0.93208   0.00000  Uiso   1.00
C1556  C     0.98842   0.40974   0.92263   0.00000  Uiso   1.00
C1557  C     0.81031   0.44190   0.83345   0.00000  Uiso   1.00
C1558  C     0.95063   0.42549   0.94046   0.00000  Uiso   1.00
C1559  C     0.92669   0.39625   0.96778   0.00000  Uiso   1.00
C1560  C     0.93967   0.35070   0.97560   0.00000  Uiso   1.00
C1561  C     0.51981   0.33384   0.70919   0.00000  Uiso   1.00
C1562  C     0.99595   0.36589   0.73397   0.00000  Uiso   1.00
C1563  C     0.51084   0.41021   0.74298   0.00000  Uiso   1.00
C1564  C     0.54908   0.42405   0.72508   0.00000  Uiso   1.00
C1565  C     0.57236   0.39347   0.69829   0.00000  Uiso   1.00
C1566  C     0.55815   0.34849   0.69088   0.00000  Uiso   1.00
C1567  C     0.52019   0.16655   0.95344   0.00000  Uiso   1.00
C1568  C     0.69084   0.05947   0.83334   0.00000  Uiso   1.00
C1569  C     0.99158   0.13145   0.94434   0.00000  Uiso   1.00
C1570  C     0.50523   0.08721   0.93214   0.00000  Uiso   1.00
C1571  C     0.54778   0.07722   0.93060   0.00000  Uiso   1.00
C1572  C     0.57664   0.11156   0.94094   0.00000  Uiso   1.00
C1573  C     0.56301   0.15601   0.95238   0.00000  Uiso   1.00
C1574  C     0.77270   0.41605   0.70975   0.00000  Uiso   1.00
C1575  C     0.74786   0.38521   0.73458   0.00000  Uiso   1.00
C1576  C     0.76150   0.34026   0.74407   0.00000  Uiso   1.00
C1577  C     0.79931   0.32451   0.72629   0.00000  Uiso   1.00
C1578  C     0.82327   0.35373   0.69898   0.00000  Uiso   1.00
C1579  C     0.68984   0.44166   0.83325   0.00000  Uiso   1.00
C1580  C     0.81030   0.39928   0.69113   0.00000  Uiso   1.00
C1581  C     0.74845   0.08609   0.95194   0.00000  Uiso   1.00
C1582  C     0.78586   0.11074   0.95031   0.00000  Uiso   1.00
C1583  C     0.78622   0.15714   0.93691   0.00000  Uiso   1.00
C1584  C     0.74884   0.18005   0.92736   0.00000  Uiso   1.00
C1585  C     0.71117   0.15657   0.93143   0.00000  Uiso   1.00
C1586  C     0.71095   0.10975   0.94328   0.00000  Uiso   1.00
C1587  C     0.72986   0.08346   0.71323   0.00000  Uiso   1.00
C1588  C     0.68706   0.09406   0.71434   0.00000  Uiso   1.00
C1589  C     0.67347   0.13851   0.72581   0.00000  Uiso   1.00
C1590  C     0.80992   0.05863   0.83324   0.00000  Uiso   1.00
C1591  C     0.70236   0.17282   0.73613   0.00000  Uiso   1.00
C1592  C     0.74490   0.16279   0.73453   0.00000  Uiso   1.00
C1593  C     0.75850   0.11854   0.72231   0.00000  Uiso   1.00
C1594  C     0.73022   0.41615   0.95746   0.00000  Uiso   1.00
C1595  C     0.69187   0.40148   0.97573   0.00000  Uiso   1.00
C1596  C     0.67768   0.35650   0.96829   0.00000  Uiso   1.00
C1597  C     0.70100   0.32593   0.94152   0.00000  Uiso   1.00
C1598  C     0.73924   0.33979   0.92367   0.00000  Uiso   1.00
C1599  C     0.75412   0.38412   0.93270   0.00000  Uiso   1.00
C1600  C     0.50208   0.20945   0.69140   0.00000  Uiso   1.00
Cu1601 Cu    0.50000   0.25000   0.88022   0.00000  Uiso   1.00
Cu1602 Cu    0.50000   0.25000   0.78645   0.00000  Uiso   1.00
Cu1603 Cu    0.75000   0.00000   0.88022   0.00000  Uiso   1.00
Cu1604 Cu    0.75000   0.00000   0.78645   0.00000  Uiso   1.00
H1605  H     0.89197   0.16621   0.76151   0.00000  Uiso   1.00
H1606  H     0.85805   0.08376   0.90515   0.00000  Uiso   1.00
H1607  H     0.84261   0.10379   0.75994   0.00000  Uiso   1.00
H1608  H     0.64445   0.41325   0.90563   0.00000  Uiso   1.00
H1609  H     0.84834   0.40247   0.90794   0.00000  Uiso   1.00
H1610  H     0.60899   0.04124   0.82993   0.00000  Uiso   1.00
H1611  H     0.69819   0.15165   0.83624   0.00000  Uiso   1.00
H1612  H     0.85517   0.41319   0.76096   0.00000  Uiso   1.00
H1613  H     0.56848   0.15777   0.71904   0.00000  Uiso   1.00
H1614  H     0.56799   0.07529   0.74081   0.00000  Uiso   1.00
H1615  H     0.50111   0.03376   0.74868   0.00000  Uiso   1.00
H1616  H     0.59695   0.34910   0.90783   0.00000  Uiso   1.00
H1617  H     0.93476   0.07421   0.73110   0.00000  Uiso   1.00
H1618  H     0.93573   0.15539   0.70455   0.00000  Uiso   1.00
H1619  H     0.53313   0.35566   0.92336   0.00000  Uiso   1.00
H1620  H     0.50804   0.43298   0.90324   0.00000  Uiso   1.00
H1621  H     0.94042   0.46062   0.93410   0.00000  Uiso   1.00
H1622  H     0.89812   0.40885   0.98289   0.00000  Uiso   1.00
H1623  H     0.92126   0.32876   0.99772   0.00000  Uiso   1.00
H1624  H     0.96486   0.35804   0.74346   0.00000  Uiso   1.00
H1625  H     0.99194   0.43443   0.76228   0.00000  Uiso   1.00
H1626  H     0.56026   0.45869   0.73120   0.00000  Uiso   1.00
H1627  H     0.60552   0.33679   0.76104   0.00000  Uiso   1.00
H1628  H     0.60150   0.40455   0.68348   0.00000  Uiso   1.00
H1629  H     0.57627   0.32547   0.66933   0.00000  Uiso   1.00
H1630  H     0.95903   0.13747   0.95047   0.00000  Uiso   1.00
H1631  H     0.98282   0.06028   0.92553   0.00000  Uiso   1.00
H1632  H     0.55840   0.04279   0.92182   0.00000  Uiso   1.00
H1633  H     0.60954   0.10368   0.94025   0.00000  Uiso   1.00
H1634  H     0.58567   0.18189   0.96170   0.00000  Uiso   1.00
H1635  H     0.71679   0.39435   0.74325   0.00000  Uiso   1.00
H1636  H     0.74185   0.31703   0.76344   0.00000  Uiso   1.00
H1637  H     0.80950   0.28938   0.73268   0.00000  Uiso   1.00
H1638  H     0.90741   0.14618   0.90672   0.00000  Uiso   1.00
H1639  H     0.85186   0.34112   0.68392   0.00000  Uiso   1.00
H1640  H     0.82874   0.42121   0.66903   0.00000  Uiso   1.00
H1641  H     0.81431   0.09457   0.96211   0.00000  Uiso   1.00
H1642  H     0.81531   0.17575   0.93556   0.00000  Uiso   1.00
H1643  H     0.74898   0.21624   0.91800   0.00000  Uiso   1.00
H1644  H     0.68209   0.17477   0.92586   0.00000  Uiso   1.00
H1645  H     0.68155   0.09228   0.94762   0.00000  Uiso   1.00
H1646  H     0.66436   0.06819   0.70504   0.00000  Uiso   1.00
H1647  H     0.64058   0.14642   0.72656   0.00000  Uiso   1.00
H1648  H     0.69177   0.20725   0.74496   0.00000  Uiso   1.00
H1649  H     0.64101   0.20876   0.83675   0.00000  Uiso   1.00
H1650  H     0.76734   0.18970   0.74111   0.00000  Uiso   1.00
H1651  H     0.79105   0.11249   0.71612   0.00000  Uiso   1.00
H1652  H     0.67373   0.42449   0.99726   0.00000  Uiso   1.00
H1653  H     0.64853   0.34541   0.98307   0.00000  Uiso   1.00
H1654  H     0.68983   0.29129   0.93539   0.00000  Uiso   1.00
H1655  H     0.75817   0.31558   0.90438   0.00000  Uiso   1.00
H1656  H     0.78521   0.39198   0.92326   0.00000  Uiso   1.00
H1657  H     0.90171   0.34758   0.75873   0.00000  Uiso   1.00
H1658  H     0.89487   0.33686   0.90571   0.00000  Uiso   1.00
H1659  H     0.55181   0.09835   0.83045   0.00000  Uiso   1.00
H1660  H     0.65300   0.40096   0.75883   0.00000  Uiso   1.00
N1661  N     0.50000   0.25000   0.95069   0.00000  Uiso   1.00
N1662  N     0.50000   0.25000   0.71598   0.00000  Uiso   1.00
N1663  N     0.75000   0.00000   0.95069   0.00000  Uiso   1.00
N1664  N     0.75000   0.00000   0.71598   0.00000  Uiso   1.00
O1665  O     0.54509   0.20491   0.87291   0.00000  Uiso   1.00
O1666  O     0.70492   0.04509   0.79375   0.00000  Uiso   1.00
O1667  O     0.70492   0.04509   0.87291   0.00000  Uiso   1.00
O1668  O     0.79509   0.45491   0.79375   0.00000  Uiso   1.00
O1669  O     0.70492   0.45491   0.79375   0.00000  Uiso   1.00
O1670  O     0.79509   0.04509   0.87291   0.00000  Uiso   1.00
O1671  O     0.79509   0.04509   0.79375   0.00000  Uiso   1.00
O1672  O     0.70492   0.45491   0.87291   0.00000  Uiso   1.00
O1673  O     0.95492   0.29509   0.79375   0.00000  Uiso   1.00
O1674  O     0.95492   0.29509   0.87291   0.00000  Uiso   1.00
O1675  O     0.54509   0.20491   0.79375   0.00000  Uiso   1.00
O1676  O     0.95492   0.20491   0.79375   0.00000  Uiso   1.00
O1677  O     0.54509   0.29509   0.87291   0.00000  Uiso   1.00
O1678  O     0.54509   0.29509   0.79375   0.00000  Uiso   1.00
O1679  O     0.95492   0.20491   0.87291   0.00000  Uiso   1.00
O1680  O     0.79509   0.45491   0.87291   0.00000  Uiso   1.00
C1681  C     0.05916   0.69053   0.83333   0.00000  Uiso   1.00
C1682  C     0.49442   0.79000   0.97598   0.00000  Uiso   1.00
C1683  C     0.00163   0.79034   0.69088   0.00000  Uiso   1.00
C1684  C     0.00621   0.70993   0.97563   0.00000  Uiso   1.00
C1685  C     0.25556   0.96000   0.69069   0.00000  Uiso   1.00
C1686  C     0.24793   0.54055   0.97527   0.00000  Uiso   1.00
C1687  C     0.24380   0.54008   0.69104   0.00000  Uiso   1.00
C1688  C     0.24838   0.95966   0.97579   0.00000  Uiso   1.00
C1689  C     0.38546   0.64781   0.79285   0.00000  Uiso   1.00
C1690  C     0.10801   0.86077   0.87492   0.00000  Uiso   1.00
C1691  C     0.11313   0.85401   0.79257   0.00000  Uiso   1.00
C1692  C     0.43970   0.80811   0.83322   0.00000  Uiso   1.00
C1693  C     0.39414   0.63665   0.87440   0.00000  Uiso   1.00
C1694  C     0.13396   0.67224   0.83534   0.00000  Uiso   1.00
C1695  C     0.39128   0.86001   0.79164   0.00000  Uiso   1.00
C1696  C     0.38713   0.85412   0.87417   0.00000  Uiso   1.00
C1697  C     0.08377   0.61003   0.83138   0.00000  Uiso   1.00
C1698  C     0.14196   0.88927   0.79175   0.00000  Uiso   1.00
C1699  C     0.36456   0.60216   0.87381   0.00000  Uiso   1.00
C1700  C     0.35588   0.61332   0.79226   0.00000  Uiso   1.00
C1701  C     0.13684   0.89603   0.87410   0.00000  Uiso   1.00
C1702  C     0.35876   0.89004   0.87503   0.00000  Uiso   1.00
C1703  C     0.44008   0.69136   0.83343   0.00000  Uiso   1.00
C1704  C     0.11605   0.57776   0.83134   0.00000  Uiso   1.00
C1705  C     0.16623   0.63997   0.83530   0.00000  Uiso   1.00
C1706  C     0.36291   0.89593   0.79249   0.00000  Uiso   1.00
C1707  C     0.09455   0.84091   0.83379   0.00000  Uiso   1.00
C1708  C     0.40586   0.65861   0.83366   0.00000  Uiso   1.00
C1709  C     0.40512   0.84048   0.83284   0.00000  Uiso   1.00
C1710  C     0.09277   0.65715   0.83329   0.00000  Uiso   1.00
C1711  C     0.34415   0.59136   0.83300   0.00000  Uiso   1.00
C1712  C     0.15543   0.90912   0.83288   0.00000  Uiso   1.00
C1713  C     0.15723   0.59285   0.83339   0.00000  Uiso   1.00
C1714  C     0.06015   0.80835   0.83342   0.00000  Uiso   1.00
C1715  C     0.34490   0.90956   0.83383   0.00000  Uiso   1.00
C1716  C     0.00158   0.66391   0.71472   0.00000  Uiso   1.00
C1717  C     0.03909   0.64028   0.72339   0.00000  Uiso   1.00
C1718  C     0.03889   0.59346   0.73523   0.00000  Uiso   1.00
C1719  C     0.00123   0.56996   0.73931   0.00000  Uiso   1.00
C1720  C     0.46385   0.59284   0.72975   0.00000  Uiso   1.00
C1721  C     0.46419   0.63924   0.71635   0.00000  Uiso   1.00
C1722  C     0.47726   0.83394   0.95694   0.00000  Uiso   1.00
C1723  C     0.00207   0.86479   0.93208   0.00000  Uiso   1.00
C1724  C     0.48842   0.90974   0.92263   0.00000  Uiso   1.00
C1725  C     0.31031   0.94190   0.83345   0.00000  Uiso   1.00
C1726  C     0.45063   0.92549   0.94046   0.00000  Uiso   1.00
C1727  C     0.42669   0.89625   0.96778   0.00000  Uiso   1.00
C1728  C     0.43967   0.85070   0.97560   0.00000  Uiso   1.00
C1729  C     0.01981   0.83384   0.70919   0.00000  Uiso   1.00
C1730  C     0.49595   0.86589   0.73397   0.00000  Uiso   1.00
C1731  C     0.01084   0.91021   0.74298   0.00000  Uiso   1.00
C1732  C     0.04908   0.92405   0.72508   0.00000  Uiso   1.00
C1733  C     0.07236   0.89347   0.69829   0.00000  Uiso   1.00
C1734  C     0.05815   0.84849   0.69088   0.00000  Uiso   1.00
C1735  C     0.02019   0.66655   0.95344   0.00000  Uiso   1.00
C1736  C     0.19084   0.55947   0.83334   0.00000  Uiso   1.00
C1737  C     0.49158   0.63145   0.94434   0.00000  Uiso   1.00
C1738  C     0.00523   0.58721   0.93214   0.00000  Uiso   1.00
C1739  C     0.04778   0.57722   0.93060   0.00000  Uiso   1.00
C1740  C     0.07664   0.61156   0.94094   0.00000  Uiso   1.00
C1741  C     0.06301   0.65601   0.95238   0.00000  Uiso   1.00
C1742  C     0.27270   0.91605   0.70975   0.00000  Uiso   1.00
C1743  C     0.24786   0.88521   0.73458   0.00000  Uiso   1.00
C1744  C     0.26150   0.84026   0.74407   0.00000  Uiso   1.00
C1745  C     0.29931   0.82451   0.72629   0.00000  Uiso   1.00
C1746  C     0.32327   0.85373   0.69898   0.00000  Uiso   1.00
C1747  C     0.18984   0.94166   0.83325   0.00000  Uiso   1.00
C1748  C     0.31030   0.89928   0.69113   0.00000  Uiso   1.00
C1749  C     0.24845   0.58609   0.95194   0.00000  Uiso   1.00
C1750  C     0.28586   0.61074   0.95031   0.00000  Uiso   1.00
C1751  C     0.28622   0.65714   0.93691   0.00000  Uiso   1.00
C1752  C     0.24884   0.68005   0.92736   0.00000  Uiso   1.00
C1753  C     0.21117   0.65657   0.93143   0.00000  Uiso   1.00
C1754  C     0.21095   0.60975   0.94328   0.00000  Uiso   1.00
C1755  C     0.22986   0.58346   0.71323   0.00000  Uiso   1.00
C1756  C     0.18706   0.59406   0.71434   0.00000  Uiso   1.00
C1757  C     0.17347   0.63851   0.72581   0.00000  Uiso   1.00
C1758  C     0.30992   0.55863   0.83324   0.00000  Uiso   1.00
C1759  C     0.20236   0.67282   0.73613   0.00000  Uiso   1.00
C1760  C     0.24490   0.66279   0.73453   0.00000  Uiso   1.00
C1761  C     0.25850   0.61854   0.72231   0.00000  Uiso   1.00
C1762  C     0.23022   0.91615   0.95746   0.00000  Uiso   1.00
C1763  C     0.19187   0.90148   0.97573   0.00000  Uiso   1.00
C1764  C     0.17768   0.85650   0.96829   0.00000  Uiso   1.00
C1765  C     0.20100   0.82593   0.94152   0.00000  Uiso   1.00
C1766  C     0.23924   0.83979   0.92367   0.00000  Uiso   1.00
C1767  C     0.25412   0.88412   0.93270   0.00000  Uiso   1.00
C1768  C     0.00208   0.70945   0.69140   0.00000  Uiso   1.00
Cu1769 Cu    0.00000   0.75000   0.88022   0.00000  Uiso   1.00
Cu1770 Cu    0.00000   0.75000   0.78645   0.00000  Uiso   1.00
Cu1771 Cu    0.25000   0.50000   0.88022   0.00000  Uiso   1.00
Cu1772 Cu    0.25000   0.50000   0.78645   0.00000  Uiso   1.00
H1773  H     0.39197   0.66621   0.76151   0.00000  Uiso   1.00
H1774  H     0.35805   0.58376   0.90515   0.00000  Uiso   1.00
H1775  H     0.34261   0.60379   0.75994   0.00000  Uiso   1.00
H1776  H     0.14445   0.91325   0.90563   0.00000  Uiso   1.00
H1777  H     0.34834   0.90247   0.90794   0.00000  Uiso   1.00
H1778  H     0.10899   0.54124   0.82993   0.00000  Uiso   1.00
H1779  H     0.19819   0.65165   0.83624   0.00000  Uiso   1.00
H1780  H     0.35517   0.91319   0.76096   0.00000  Uiso   1.00
H1781  H     0.06848   0.65777   0.71904   0.00000  Uiso   1.00
H1782  H     0.06799   0.57529   0.74081   0.00000  Uiso   1.00
H1783  H     0.00111   0.53376   0.74868   0.00000  Uiso   1.00
H1784  H     0.09695   0.84910   0.90783   0.00000  Uiso   1.00
H1785  H     0.43476   0.57421   0.73110   0.00000  Uiso   1.00
H1786  H     0.43573   0.65539   0.70455   0.00000  Uiso   1.00
H1787  H     0.03313   0.85566   0.92336   0.00000  Uiso   1.00
H1788  H     0.00804   0.93298   0.90324   0.00000  Uiso   1.00
H1789  H     0.44042   0.96062   0.93410   0.00000  Uiso   1.00
H1790  H     0.39812   0.90885   0.98289   0.00000  Uiso   1.00
H1791  H     0.42126   0.82876   0.99772   0.00000  Uiso   1.00
H1792  H     0.46486   0.85804   0.74346   0.00000  Uiso   1.00
H1793  H     0.49194   0.93443   0.76228   0.00000  Uiso   1.00
H1794  H     0.06026   0.95869   0.73120   0.00000  Uiso   1.00
H1795  H     0.10552   0.83679   0.76104   0.00000  Uiso   1.00
H1796  H     0.10150   0.90455   0.68348   0.00000  Uiso   1.00
H1797  H     0.07627   0.82547   0.66933   0.00000  Uiso   1.00
H1798  H     0.45903   0.63747   0.95047   0.00000  Uiso   1.00
H1799  H     0.48282   0.56028   0.92553   0.00000  Uiso   1.00
H1800  H     0.05840   0.54279   0.92182   0.00000  Uiso   1.00
H1801  H     0.10954   0.60368   0.94025   0.00000  Uiso   1.00
H1802  H     0.08567   0.68189   0.96170   0.00000  Uiso   1.00
H1803  H     0.21679   0.89435   0.74325   0.00000  Uiso   1.00
H1804  H     0.24185   0.81703   0.76344   0.00000  Uiso   1.00
H1805  H     0.30950   0.78938   0.73268   0.00000  Uiso   1.00
H1806  H     0.40741   0.64618   0.90672   0.00000  Uiso   1.00
H1807  H     0.35186   0.84112   0.68392   0.00000  Uiso   1.00
H1808  H     0.32874   0.92121   0.66903   0.00000  Uiso   1.00
H1809  H     0.31431   0.59457   0.96211   0.00000  Uiso   1.00
H1810  H     0.31531   0.67575   0.93556   0.00000  Uiso   1.00
H1811  H     0.24898   0.71624   0.91800   0.00000  Uiso   1.00
H1812  H     0.18209   0.67477   0.92586   0.00000  Uiso   1.00
H1813  H     0.18155   0.59228   0.94762   0.00000  Uiso   1.00
H1814  H     0.16436   0.56819   0.70504   0.00000  Uiso   1.00
H1815  H     0.14058   0.64642   0.72656   0.00000  Uiso   1.00
H1816  H     0.19177   0.70725   0.74496   0.00000  Uiso   1.00
H1817  H     0.14101   0.70876   0.83675   0.00000  Uiso   1.00
H1818  H     0.26734   0.68970   0.74111   0.00000  Uiso   1.00
H1819  H     0.29105   0.61249   0.71612   0.00000  Uiso   1.00
H1820  H     0.17373   0.92449   0.99726   0.00000  Uiso   1.00
H1821  H     0.14853   0.84541   0.98307   0.00000  Uiso   1.00
H1822  H     0.18983   0.79129   0.93539   0.00000  Uiso   1.00
H1823  H     0.25817   0.81558   0.90438   0.00000  Uiso   1.00
H1824  H     0.28521   0.89198   0.92326   0.00000  Uiso   1.00
H1825  H     0.40171   0.84758   0.75873   0.00000  Uiso   1.00
H1826  H     0.39487   0.83686   0.90571   0.00000  Uiso   1.00
H1827  H     0.05181   0.59835   0.83045   0.00000  Uiso   1.00
H1828  H     0.15300   0.90096   0.75883   0.00000  Uiso   1.00
N1829  N     0.00000   0.75000   0.95069   0.00000  Uiso   1.00
N1830  N     0.00000   0.75000   0.71598   0.00000  Uiso   1.00
N1831  N     0.25000   0.50000   0.95069   0.00000  Uiso   1.00
N1832  N     0.25000   0.50000   0.71598   0.00000  Uiso   1.00
O1833  O     0.04509   0.70491   0.87291   0.00000  Uiso   1.00
O1834  O     0.20492   0.54509   0.79375   0.00000  Uiso   1.00
O1835  O     0.20492   0.54509   0.87291   0.00000  Uiso   1.00
O1836  O     0.29509   0.95491   0.79375   0.00000  Uiso   1.00
O1837  O     0.20492   0.95491   0.79375   0.00000  Uiso   1.00
O1838  O     0.29509   0.54509   0.87291   0.00000  Uiso   1.00
O1839  O     0.29509   0.54509   0.79375   0.00000  Uiso   1.00
O1840  O     0.20492   0.95491   0.87291   0.00000  Uiso   1.00
O1841  O     0.45492   0.79509   0.79375   0.00000  Uiso   1.00
O1842  O     0.45492   0.79509   0.87291   0.00000  Uiso   1.00
O1843  O     0.04509   0.70491   0.79375   0.00000  Uiso   1.00
O1844  O     0.45492   0.70491   0.79375   0.00000  Uiso   1.00
O1845  O     0.04509   0.79509   0.87291   0.00000  Uiso   1.00
O1846  O     0.04509   0.79509   0.79375   0.00000  Uiso   1.00
O1847  O     0.45492   0.70491   0.87291   0.00000  Uiso   1.00
O1848  O     0.29509   0.95491   0.87291   0.00000  Uiso   1.00
C1849  C     0.55916   0.69053   0.83333   0.00000  Uiso   1.00
C1850  C     0.99442   0.79000   0.97598   0.00000  Uiso   1.00
C1851  C     0.50163   0.79034   0.69088   0.00000  Uiso   1.00
C1852  C     0.50621   0.70993   0.97563   0.00000  Uiso   1.00
C1853  C     0.75556   0.96000   0.69069   0.00000  Uiso   1.00
C1854  C     0.74793   0.54055   0.97527   0.00000  Uiso   1.00
C1855  C     0.74380   0.54008   0.69104   0.00000  Uiso   1.00
C1856  C     0.74838   0.95966   0.97579   0.00000  Uiso   1.00
C1857  C     0.88546   0.64781   0.79285   0.00000  Uiso   1.00
C1858  C     0.60801   0.86077   0.87492   0.00000  Uiso   1.00
C1859  C     0.61313   0.85401   0.79257   0.00000  Uiso   1.00
C1860  C     0.93970   0.80811   0.83322   0.00000  Uiso   1.00
C1861  C     0.89414   0.63665   0.87440   0.00000  Uiso   1.00
C1862  C     0.63396   0.67224   0.83534   0.00000  Uiso   1.00
C1863  C     0.89128   0.86001   0.79164   0.00000  Uiso   1.00
C1864  C     0.88713   0.85412   0.87417   0.00000  Uiso   1.00
C1865  C     0.58377   0.61003   0.83138   0.00000  Uiso   1.00
C1866  C     0.64196   0.88927   0.79175   0.00000  Uiso   1.00
C1867  C     0.86456   0.60216   0.87381   0.00000  Uiso   1.00
C1868  C     0.85588   0.61332   0.79226   0.00000  Uiso   1.00
C1869  C     0.63684   0.89603   0.87410   0.00000  Uiso   1.00
C1870  C     0.85876   0.89004   0.87503   0.00000  Uiso   1.00
C1871  C     0.94008   0.69136   0.83343   0.00000  Uiso   1.00
C1872  C     0.61605   0.57776   0.83134   0.00000  Uiso   1.00
C1873  C     0.66623   0.63997   0.83530   0.00000  Uiso   1.00
C1874  C     0.86291   0.89593   0.79249   0.00000  Uiso   1.00
C1875  C     0.59455   0.84091   0.83379   0.00000  Uiso   1.00
C1876  C     0.90586   0.65861   0.83366   0.00000  Uiso   1.00
C1877  C     0.90512   0.84048   0.83284   0.00000  Uiso   1.00
C1878  C     0.59277   0.65715   0.83329   0.00000  Uiso   1.00
C1879  C     0.84415   0.59136   0.83300   0.00000  Uiso   1.00
C1880  C     0.65543   0.90912   0.83288   0.00000  Uiso   1.00
C1881  C     0.65723   0.59285   0.83339   0.00000  Uiso   1.00
C1882  C     0.56015   0.80835   0.83342   0.00000  Uiso   1.00
C1883  C     0.84490   0.90956   0.83383   0.00000  Uiso   1.00
C1884  C     0.50158   0.66391   0.71472   0.00000  Uiso   1.00
C1885  C     0.53909   0.64028   0.72339   0.00000  Uiso   1.00
C1886  C     0.53889   0.59346   0.73523   0.00000  Uiso   1.00
C1887  C     0.50123   0.56996   0.73931   0.00000  Uiso   1.00
C1888  C     0.96385   0.59284   0.72975   0.00000  Uiso   1.00
C1889  C     0.96419   0.63924   0.71635   0.00000  Uiso   1.00
C1890  C     0.97726   0.83394   0.95694   0.00000  Uiso   1.00
C1891  C     0.50207   0.86479   0.93208   0.00000  Uiso   1.00
C1892  C     0.98842   0.90974   0.92263   0.00000  Uiso   1.00
C1893  C     0.81031   0.94190   0.83345   0.00000  Uiso   1.00
C1894  C     0.95063   0.92549   0.94046   0.00000  Uiso   1.00
C1895  C     0.92669   0.89625   0.96778   0.00000  Uiso   1.00
C1896  C     0.93967   0.85070   0.97560   0.00000  Uiso   1.00
C1897  C     0.51981   0.83384   0.70919   0.00000  Uiso   1.00
C1898  C     0.99595   0.86589   0.73397   0.00000  Uiso   1.00
C1899  C     0.51084   0.91021   0.74298   0.00000  Uiso   1.00
C1900  C     0.54908   0.92405   0.72508   0.00000  Uiso   1.00
C1901  C     0.57236   0.89347   0.69829   0.00000  Uiso   1.00
C1902  C     0.55815   0.84849   0.69088   0.00000  Uiso   1.00
C1903  C     0.52019   0.66655   0.95344   0.00000  Uiso   1.00
C1904  C     0.69084   0.55947   0.83334   0.00000  Uiso   1.00
C1905  C     0.99158   0.63145   0.94434   0.00000  Uiso   1.00
C1906  C     0.50523   0.58721   0.93214   0.00000  Uiso   1.00
C1907  C     0.54778   0.57722   0.93060   0.00000  Uiso   1.00
C1908  C     0.57664   0.61156   0.94094   0.00000  Uiso   1.00
C1909  C     0.56301   0.65601   0.95238   0.00000  Uiso   1.00
C1910  C     0.77270   0.91605   0.70975   0.00000  Uiso   1.00
C1911  C     0.74786   0.88521   0.73458   0.00000  Uiso   1.00
C1912  C     0.76150   0.84026   0.74407   0.00000  Uiso   1.00
C1913  C     0.79931   0.82451   0.72629   0.00000  Uiso   1.00
C1914  C     0.82327   0.85373   0.69898   0.00000  Uiso   1.00
C1915  C     0.68984   0.94166   0.83325   0.00000  Uiso   1.00
C1916  C     0.81030   0.89928   0.69113   0.00000  Uiso   1.00
C1917  C     0.74845   0.58609   0.95194   0.00000  Uiso   1.00
C1918  C     0.78586   0.61074   0.95031   0.00000  Uiso   1.00
C1919  C     0.78622   0.65714   0.93691   0.00000  Uiso   1.00
C1920  C     0.74884   0.68005   0.92736   0.00000  Uiso   1.00
C1921  C     0.71117   0.65657   0.93143   0.00000  Uiso   1.00
C1922  C     0.71095   0.60975   0.94328   0.00000  Uiso   1.00
C1923  C     0.72986   0.58346   0.71323   0.00000  Uiso   1.00
C1924  C     0.68706   0.59406   0.71434   0.00000  Uiso   1.00
C1925  C     0.67347   0.63851   0.72581   0.00000  Uiso   1.00
C1926  C     0.80992   0.55863   0.83324   0.00000  Uiso   1.00
C1927  C     0.70236   0.67282   0.73613   0.00000  Uiso   1.00
C1928  C     0.74490   0.66279   0.73453   0.00000  Uiso   1.00
C1929  C     0.75850   0.61854   0.72231   0.00000  Uiso   1.00
C1930  C     0.73022   0.91615   0.95746   0.00000  Uiso   1.00
C1931  C     0.69187   0.90148   0.97573   0.00000  Uiso   1.00
C1932  C     0.67768   0.85650   0.96829   0.00000  Uiso   1.00
C1933  C     0.70100   0.82593   0.94152   0.00000  Uiso   1.00
C1934  C     0.73924   0.83979   0.92367   0.00000  Uiso   1.00
C1935  C     0.75412   0.88412   0.93270   0.00000  Uiso   1.00
C1936  C     0.50208   0.70945   0.69140   0.00000  Uiso   1.00
Cu1937 Cu    0.50000   0.75000   0.88022   0.00000  Uiso   1.00
Cu1938 Cu    0.50000   0.75000   0.78645   0.00000  Uiso   1.00
Cu1939 Cu    0.75000   0.50000   0.88022   0.00000  Uiso   1.00
Cu1940 Cu    0.75000   0.50000   0.78645   0.00000  Uiso   1.00
H1941  H     0.89197   0.66621   0.76151   0.00000  Uiso   1.00
H1942  H     0.85805   0.58376   0.90515   0.00000  Uiso   1.00
H1943  H     0.84261   0.60379   0.75994   0.00000  Uiso   1.00
H1944  H     0.64445   0.91325   0.90563   0.00000  Uiso   1.00
H1945  H     0.84834   0.90247   0.90794   0.00000  Uiso   1.00
H1946  H     0.60899   0.54124   0.82993   0.00000  Uiso   1.00
H1947  H     0.69819   0.65165   0.83624   0.00000  Uiso   1.00
H1948  H     0.85517   0.91319   0.76096   0.00000  Uiso   1.00
H1949  H     0.56848   0.65777   0.71904   0.00000  Uiso   1.00
H1950  H     0.56799   0.57529   0.74081   0.00000  Uiso   1.00
H1951  H     0.50111   0.53376   0.74868   0.00000  Uiso   1.00
H1952  H     0.59695   0.84910   0.90783   0.00000  Uiso   1.00
H1953  H     0.93476   0.57421   0.73110   0.00000  Uiso   1.00
H1954  H     0.93573   0.65539   0.70455   0.00000  Uiso   1.00
H1955  H     0.53313   0.85566   0.92336   0.00000  Uiso   1.00
H1956  H     0.50804   0.93298   0.90324   0.00000  Uiso   1.00
H1957  H     0.94042   0.96062   0.93410   0.00000  Uiso   1.00
H1958  H     0.89812   0.90885   0.98289   0.00000  Uiso   1.00
H1959  H     0.92126   0.82876   0.99772   0.00000  Uiso   1.00
H1960  H     0.96486   0.85804   0.74346   0.00000  Uiso   1.00
H1961  H     0.99194   0.93443   0.76228   0.00000  Uiso   1.00
H1962  H     0.56026   0.95869   0.73120   0.00000  Uiso   1.00
H1963  H     0.60552   0.83679   0.76104   0.00000  Uiso   1.00
H1964  H     0.60150   0.90455   0.68348   0.00000  Uiso   1.00
H1965  H     0.57627   0.82547   0.66933   0.00000  Uiso   1.00
H1966  H     0.95903   0.63747   0.95047   0.00000  Uiso   1.00
H1967  H     0.98282   0.56028   0.92553   0.00000  Uiso   1.00
H1968  H     0.55840   0.54279   0.92182   0.00000  Uiso   1.00
H1969  H     0.60954   0.60368   0.94025   0.00000  Uiso   1.00
H1970  H     0.58567   0.68189   0.96170   0.00000  Uiso   1.00
H1971  H     0.71679   0.89435   0.74325   0.00000  Uiso   1.00
H1972  H     0.74185   0.81703   0.76344   0.00000  Uiso   1.00
H1973  H     0.80950   0.78938   0.73268   0.00000  Uiso   1.00
H1974  H     0.90741   0.64618   0.90672   0.00000  Uiso   1.00
H1975  H     0.85186   0.84112   0.68392   0.00000  Uiso   1.00
H1976  H     0.82874   0.92121   0.66903   0.00000  Uiso   1.00
H1977  H     0.81431   0.59457   0.96211   0.00000  Uiso   1.00
H1978  H     0.81531   0.67575   0.93556   0.00000  Uiso   1.00
H1979  H     0.74898   0.71624   0.91800   0.00000  Uiso   1.00
H1980  H     0.68209   0.67477   0.92586   0.00000  Uiso   1.00
H1981  H     0.68155   0.59228   0.94762   0.00000  Uiso   1.00
H1982  H     0.66436   0.56819   0.70504   0.00000  Uiso   1.00
H1983  H     0.64058   0.64642   0.72656   0.00000  Uiso   1.00
H1984  H     0.69177   0.70725   0.74496   0.00000  Uiso   1.00
H1985  H     0.64101   0.70876   0.83675   0.00000  Uiso   1.00
H1986  H     0.76734   0.68970   0.74111   0.00000  Uiso   1.00
H1987  H     0.79105   0.61249   0.71612   0.00000  Uiso   1.00
H1988  H     0.67373   0.92449   0.99726   0.00000  Uiso   1.00
H1989  H     0.64853   0.84541   0.98307   0.00000  Uiso   1.00
H1990  H     0.68983   0.79129   0.93539   0.00000  Uiso   1.00
H1991  H     0.75817   0.81558   0.90438   0.00000  Uiso   1.00
H1992  H     0.78521   0.89198   0.92326   0.00000  Uiso   1.00
H1993  H     0.90171   0.84758   0.75873   0.00000  Uiso   1.00
H1994  H     0.89487   0.83686   0.90571   0.00000  Uiso   1.00
H1995  H     0.55181   0.59835   0.83045   0.00000  Uiso   1.00
H1996  H     0.65300   0.90096   0.75883   0.00000  Uiso   1.00
N1997  N     0.50000   0.75000   0.95069   0.00000  Uiso   1.00
N1998  N     0.50000   0.75000   0.71598   0.00000  Uiso   1.00
N1999  N     0.75000   0.50000   0.95069   0.00000  Uiso   1.00
N2000  N     0.75000   0.50000   0.71598   0.00000  Uiso   1.00
O2001  O     0.54509   0.70491   0.87291   0.00000  Uiso   1.00
O2002  O     0.70492   0.54509   0.79375   0.00000  Uiso   1.00
O2003  O     0.70492   0.54509   0.87291   0.00000  Uiso   1.00
O2004  O     0.79509   0.95491   0.79375   0.00000  Uiso   1.00
O2005  O     0.70492   0.95491   0.79375   0.00000  Uiso   1.00
O2006  O     0.79509   0.54509   0.87291   0.00000  Uiso   1.00
O2007  O     0.79509   0.54509   0.79375   0.00000  Uiso   1.00
O2008  O     0.70492   0.95491   0.87291   0.00000  Uiso   1.00
O2009  O     0.95492   0.79509   0.79375   0.00000  Uiso   1.00
O2010  O     0.95492   0.79509   0.87291   0.00000  Uiso   1.00
O2011  O     0.54509   0.70491   0.79375   0.00000  Uiso   1.00
O2012  O     0.95492   0.70491   0.79375   0.00000  Uiso   1.00
O2013  O     0.54509   0.79509   0.87291   0.00000  Uiso   1.00
O2014  O     0.54509   0.79509   0.79375   0.00000  Uiso   1.00
O2015  O     0.95492   0.70491   0.87291   0.00000  Uiso   1.00
O2016  O     0.79509   0.95491   0.87291   0.00000  Uiso   1.00
loop_
_geom_bond_atom_site_label_1
_geom_bond_atom_site_label_2
_geom_bond_distance
_geom_bond_site_symmetry_2
_ccdc_geom_bond_type
C1     C30     1.444   .     S
C1     O153    1.307   .     A
C1     O163    1.306   .     A
C2     C42     1.490   .     S
C2     C843    1.426   .     S
C2     N317    1.385   .     S
C3     C49     1.492   .     S
C3     C1514   1.426   1_454 S
C3     N150    1.378   .     S
C4     N149    1.381   .     A
C4     C55     1.481   .     S
C4     C760    1.437   .     S
C5     C62     1.490   .     S
C5     C1352   1.426   1_554 S
C5     N488    1.385   .     S
C6     C69     1.482   .     S
C6     N151    1.378   .     A
C6     C679    1.437   .     S
C7     C75     1.481   .     S
C7     N152    1.382   .     A
C7     C1350   1.437   1_554 S
C8     C82     1.492   .     S
C8     C677    1.426   .     S
C8     N487    1.378   .     S
C9     C20     1.383   .     A
C9     H93     1.077   .     S
C9     C28     1.396   .     A
C10    C27     1.401   .     A
C10    C21     1.383   .     A
C10    H104    1.077   .     S
C11    C18     1.383   .     A
C11    H115    1.076   .     S
C11    C27     1.394   .     A
C12    C29     1.449   .     S
C12    O161    1.305   .     A
C12    O162    1.311   .     A
C13    C28     1.398   .     A
C13    C19     1.383   .     A
C13    H126    1.072   .     S
C14    C30     1.397   .     A
C14    H137    1.084   .     S
C14    C25     1.391   .     A
C15    C29     1.399   .     A
C15    H145    1.077   .     S
C15    C26     1.379   .     A
C16    H146    1.074   .     S
C16    C29     1.392   .     A
C16    C22     1.379   .     A
C17    H147    1.083   .     S
C17    C30     1.398   .     A
C17    C24     1.391   .     A
C18    H148    1.077   .     S
C18    C32     1.401   .     A
C19    C31     1.396   .     A
C19    H94     1.077   .     S
C20    H95     1.072   .     S
C20    C31     1.398   .     A
C21    C32     1.394   .     A
C21    H96     1.076   .     S
C22    C35     1.399   .     A
C22    H97     1.077   .     S
C23    C28     1.456   .     S
C23    O167    1.308   .     A
C23    O164    1.310   .     A
C24    H98     1.084   .     S
C24    C33     1.397   .     A
C25    H99     1.083   .     S
C25    C33     1.398   .     A
C26    C35     1.392   .     A
C26    H100    1.074   .     S
C27    C34     1.457   .     S
C31    C78     1.456   .     S
C32    C67     1.457   .     S
C33    C56     1.444   .     S
C34    O165    1.306   .     A
C34    O166    1.313   .     A
C35    C45     1.449   .     S
C36    C88     1.482   .     S
C36    C37     1.405   .     A
C36    C209    1.402   1_455 S
C37    C38     1.398   .     A
C37    H101    1.081   .     S
C38    C39     1.396   .     A
C38    H102    1.082   .     S
C39    H103    1.082   .     S
C39    C208    1.396   1_455 S
C40    H105    1.082   .     S
C40    C41     1.398   .     A
C40    C207    1.396   .     S
C41    H106    1.081   .     S
C41    C204    1.402   .     S
C42    C48     1.408   .     A
C42    C211    1.401   .     S
C43    H107    1.061   .     S
C43    C210    1.401   1_455 S
C43    C212    1.398   1_455 S
C44    C46     1.394   .     A
C44    C211    1.398   .     S
C44    H276    1.083   .     S
C45    O156    1.311   .     A
C45    O168    1.305   .     A
C46    H109    1.082   .     S
C46    C47     1.395   .     A
C47    C48     1.399   .     A
C47    H110    1.079   .     S
C48    H111    1.082   .     S
C49    C54     1.409   .     A
C49    C218    1.401   1_455 S
C50    H112    1.062   .     S
C50    C217    1.401   .     S
C50    C219    1.398   .     S
C51    C52     1.394   .     A
C51    C218    1.398   1_455 S
C51    H281    1.082   1_455 S
C52    C53     1.395   .     A
C52    H114    1.083   .     S
C53    C54     1.400   .     A
C53    H116    1.080   .     S
C54    H117    1.083   .     S
C55    C61     1.407   .     A
C55    C225    1.401   1_455 S
C56    O155    1.306   .     A
C56    O154    1.307   .     A
C57    H118    1.074   .     S
C57    C223    1.401   .     S
C57    C226    1.397   .     S
C58    C59     1.396   .     A
C58    C225    1.397   1_455 S
C58    H287    1.082   1_455 S
C59    H120    1.082   .     S
C59    C60     1.397   .     A
C60    H121    1.080   .     S
C60    C61     1.398   .     A
C61    H122    1.083   .     S
C62    C63     1.401   .     A
C62    C68     1.408   .     A
C63    C64     1.398   .     A
C63    H123    1.061   .     S
C64    C65     1.394   .     A
C64    H124    1.082   .     S
C65    H125    1.082   .     S
C65    C66     1.395   .     A
C66    C68     1.399   .     A
C66    H127    1.079   .     S
C67    O157    1.306   .     A
C67    O160    1.313   .     A
C68    H128    1.082   .     S
C69    C74     1.405   .     A
C69    C70     1.402   .     A
C70    C71     1.398   .     A
C70    H129    1.081   .     S
C71    C72     1.396   .     A
C71    H130    1.082   .     S
C72    H131    1.082   .     S
C72    C73     1.396   .     A
C73    C74     1.398   .     A
C73    H132    1.082   .     S
C74    H133    1.081   .     S
C75    C81     1.400   .     A
C75    C76     1.407   .     A
C76    C77     1.398   .     A
C76    H134    1.083   .     S
C77    C79     1.397   .     A
C77    H135    1.080   .     S
C78    O158    1.310   .     A
C78    O159    1.308   .     A
C79    C80     1.396   .     A
C79    H136    1.082   .     S
C80    C81     1.397   .     A
C80    H138    1.082   .     S
C81    H139    1.074   .     S
C82    C83     1.409   .     A
C82    C87     1.401   .     A
C83    C84     1.400   .     A
C83    H140    1.083   .     S
C84    C85     1.395   .     A
C84    H141    1.080   .     S
C85    C86     1.394   .     A
C85    H142    1.082   .     S
C86    H143    1.082   .     S
C86    C87     1.398   .     A
C87    H144    1.062   .     S
C88    C1348   1.437   1_554 S
C88    N150    1.378   .     S
Cu89   O335    1.968   1_455 S
Cu89   O330    1.955   1_455 S
Cu89   Cu90    2.734   .     S
Cu89   N149    2.054   .     S
Cu89   O153    1.955   .     S
Cu89   O165    1.967   .     S
Cu90   N150    2.054   .     S
Cu90   O329    1.955   1_455 S
Cu90   O332    1.967   1_455 S
Cu90   O163    1.955   .     S
Cu90   O166    1.968   .     S
Cu91   O158    1.967   .     S
Cu91   N151    2.054   .     S
Cu91   O155    1.955   .     S
Cu91   Cu92    2.734   .     S
Cu91   O496    1.968   1_545 S
Cu91   O504    1.955   1_545 S
Cu92   O159    1.968   .     S
Cu92   N152    2.054   .     S
Cu92   O154    1.955   .     S
Cu92   O492    1.955   1_545 S
Cu92   O493    1.967   1_545 S
H108   C212    1.083   1_455 S
H113   C219    1.082   .     S
H119   C226    1.082   .     S
N149   C170    1.385   1_455 S
N151   C344    1.378   1_545 S
N152   C341    1.385   1_545 S
O156   Cu428   1.955   .     S
O157   Cu428   1.967   .     S
O160   Cu427   1.968   .     S
O161   Cu258   1.955   .     S
O162   Cu257   1.955   .     S
O164   Cu258   1.967   .     S
O167   Cu257   1.968   .     S
O168   Cu427   1.955   .     S
C169   C198    1.444   .     S
C169   O321    1.307   .     A
C169   O331    1.306   .     A
C170   C210    1.490   .     S
C170   C675    1.426   1_655 S
C170   N149    1.385   1_655 S
C171   C217    1.492   .     S
C171   C1346   1.426   1_554 S
C171   N318    1.378   .     S
C172   N317    1.381   .     A
C172   C223    1.481   .     S
C172   C928    1.437   .     S
C173   C230    1.490   .     S
C173   C1520   1.426   1_554 S
C173   N656    1.385   .     S
C174   C237    1.482   .     S
C174   N319    1.378   .     A
C174   C847    1.437   .     S
C175   C243    1.481   .     S
C175   N320    1.382   .     A
C175   C1518   1.437   1_554 S
C176   C250    1.492   .     S
C176   C845    1.426   .     S
C176   N655    1.378   .     S
C177   C188    1.383   .     A
C177   H261    1.077   .     S
C177   C196    1.396   .     A
C178   C195    1.401   .     A
C178   C189    1.383   .     A
C178   H272    1.077   .     S
C179   C186    1.383   .     A
C179   H283    1.076   .     S
C179   C195    1.394   .     A
C180   C197    1.449   .     S
C180   O329    1.305   .     A
C180   O330    1.311   .     A
C181   C196    1.398   .     A
C181   C187    1.383   .     A
C181   H294    1.072   .     S
C182   C198    1.397   .     A
C182   H305    1.084   .     S
C182   C193    1.391   .     A
C183   C197    1.399   .     A
C183   H313    1.077   .     S
C183   C194    1.379   .     A
C184   H314    1.074   .     S
C184   C197    1.392   .     A
C184   C190    1.379   .     A
C185   H315    1.083   .     S
C185   C198    1.398   .     A
C185   C192    1.391   .     A
C186   H316    1.077   .     S
C186   C200    1.401   .     A
C187   C199    1.396   .     A
C187   H262    1.077   .     S
C188   H263    1.072   .     S
C188   C199    1.398   .     A
C189   C200    1.394   .     A
C189   H264    1.076   .     S
C190   C203    1.399   .     A
C190   H265    1.077   .     S
C191   C196    1.456   .     S
C191   O335    1.308   .     A
C191   O332    1.310   .     A
C192   H266    1.084   .     S
C192   C201    1.397   .     A
C193   H267    1.083   .     S
C193   C201    1.398   .     A
C194   C203    1.392   .     A
C194   H268    1.074   .     S
C195   C202    1.457   .     S
C199   C246    1.456   .     S
C200   C235    1.457   .     S
C201   C224    1.444   .     S
C202   O333    1.306   .     A
C202   O334    1.313   .     A
C203   C213    1.449   .     S
C204   C256    1.482   .     S
C204   C205    1.405   .     A
C205   C206    1.398   .     A
C205   H269    1.081   .     S
C206   C207    1.396   .     A
C206   H270    1.082   .     S
C207   H271    1.082   .     S
C208   H273    1.082   .     S
C208   C209    1.398   .     A
C208   C39     1.396   1_655 S
C209   H274    1.081   .     S
C209   C36     1.402   1_655 S
C210   C216    1.408   .     A
C210   C43     1.401   1_655 S
C211   H275    1.061   .     S
C212   C214    1.394   .     A
C212   C43     1.398   1_655 S
C212   H108    1.083   1_655 S
C213   O324    1.311   .     A
C213   O336    1.305   .     A
C214   H277    1.082   .     S
C214   C215    1.395   .     A
C215   C216    1.399   .     A
C215   H278    1.079   .     S
C216   H279    1.082   .     S
C217   C222    1.409   .     A
C218   H280    1.062   .     S
C218   C49     1.401   1_655 S
C218   C51     1.398   1_655 S
C219   C220    1.394   .     A
C220   C221    1.395   .     A
C220   H282    1.083   .     S
C221   C222    1.400   .     A
C221   H284    1.080   .     S
C222   H285    1.083   .     S
C223   C229    1.407   .     A
C224   O323    1.306   .     A
C224   O322    1.307   .     A
C225   H286    1.074   .     S
C225   C55     1.401   1_655 S
C225   C58     1.397   1_655 S
C226   C227    1.396   .     A
C227   H288    1.082   .     S
C227   C228    1.397   .     A
C228   H289    1.080   .     S
C228   C229    1.398   .     A
C229   H290    1.083   .     S
C230   C231    1.401   .     A
C230   C236    1.408   .     A
C231   C232    1.398   .     A
C231   H291    1.061   .     S
C232   C233    1.394   .     A
C232   H292    1.082   .     S
C233   H293    1.082   .     S
C233   C234    1.395   .     A
C234   C236    1.399   .     A
C234   H295    1.079   .     S
C235   O325    1.306   .     A
C235   O328    1.313   .     A
C236   H296    1.082   .     S
C237   C242    1.405   .     A
C237   C238    1.402   .     A
C238   C239    1.398   .     A
C238   H297    1.081   .     S
C239   C240    1.396   .     A
C239   H298    1.082   .     S
C240   H299    1.082   .     S
C240   C241    1.396   .     A
C241   C242    1.398   .     A
C241   H300    1.082   .     S
C242   H301    1.081   .     S
C243   C249    1.400   .     A
C243   C244    1.407   .     A
C244   C245    1.398   .     A
C244   H302    1.083   .     S
C245   C247    1.397   .     A
C245   H303    1.080   .     S
C246   O326    1.310   .     A
C246   O327    1.308   .     A
C247   C248    1.396   .     A
C247   H304    1.082   .     S
C248   C249    1.397   .     A
C248   H306    1.082   .     S
C249   H307    1.074   .     S
C250   C251    1.409   .     A
C250   C255    1.401   .     A
C251   C252    1.400   .     A
C251   H308    1.083   .     S
C252   C253    1.395   .     A
C252   H309    1.080   .     S
C253   C254    1.394   .     A
C253   H310    1.082   .     S
C254   H311    1.082   .     S
C254   C255    1.398   .     A
C255   H312    1.062   .     S
C256   C1516   1.437   1_554 S
C256   N318    1.378   .     S
Cu257  Cu258   2.734   .     S
Cu257  N317    2.054   .     S
Cu257  O321    1.955   .     S
Cu257  O333    1.967   .     S
Cu258  N318    2.054   .     S
Cu258  O331    1.955   .     S
Cu258  O334    1.968   .     S
Cu259  O326    1.967   .     S
Cu259  N319    2.054   .     S
Cu259  O323    1.955   .     S
Cu259  Cu260   2.734   .     S
Cu259  O664    1.968   1_545 S
Cu259  O672    1.955   1_545 S
Cu260  O327    1.968   .     S
Cu260  N320    2.054   .     S
Cu260  O322    1.955   .     S
Cu260  O660    1.955   1_545 S
Cu260  O661    1.967   1_545 S
H281   C51     1.082   1_655 S
H287   C58     1.082   1_655 S
N319   C512    1.378   1_545 S
N320   C509    1.385   1_545 S
O324   Cu596   1.955   .     S
O325   Cu596   1.967   .     S
O328   Cu595   1.968   .     S
O329   Cu90    1.955   1_655 S
O330   Cu89    1.955   1_655 S
O332   Cu90    1.967   1_655 S
O335   Cu89    1.968   1_655 S
O336   Cu595   1.955   .     S
C337   C366    1.444   .     S
C337   O489    1.307   .     A
C337   O499    1.306   .     A
C338   C378    1.490   .     S
C338   C1179   1.426   .     S
C338   N653    1.385   .     S
C339   C385    1.492   .     S
C339   C1850   1.426   1_454 S
C339   N486    1.378   .     S
C340   N485    1.381   .     A
C340   C391    1.481   .     S
C340   C1096   1.437   .     S
C341   C398    1.490   .     S
C341   C1688   1.426   1_554 S
C341   N152    1.385   1_565 S
C342   C405    1.482   .     S
C342   N487    1.378   .     A
C342   C1015   1.437   .     S
C343   C411    1.481   .     S
C343   N488    1.382   .     A
C343   C1686   1.437   1_554 S
C344   C418    1.492   .     S
C344   C1013   1.426   .     S
C344   N151    1.378   1_565 S
C345   C356    1.383   .     A
C345   H429    1.077   .     S
C345   C364    1.396   .     A
C346   C363    1.401   .     A
C346   C357    1.383   .     A
C346   H440    1.077   .     S
C347   C354    1.383   .     A
C347   H451    1.076   .     S
C347   C363    1.394   .     A
C348   C365    1.449   .     S
C348   O497    1.305   .     A
C348   O498    1.311   .     A
C349   C364    1.398   .     A
C349   C355    1.383   .     A
C349   H462    1.072   .     S
C350   C366    1.397   .     A
C350   H473    1.084   .     S
C350   C361    1.391   .     A
C351   C365    1.399   .     A
C351   H481    1.077   .     S
C351   C362    1.379   .     A
C352   H482    1.074   .     S
C352   C365    1.392   .     A
C352   C358    1.379   .     A
C353   H483    1.083   .     S
C353   C366    1.398   .     A
C353   C360    1.391   .     A
C354   H484    1.077   .     S
C354   C368    1.401   .     A
C355   C367    1.396   .     A
C355   H430    1.077   .     S
C356   H431    1.072   .     S
C356   C367    1.398   .     A
C357   C368    1.394   .     A
C357   H432    1.076   .     S
C358   C371    1.399   .     A
C358   H433    1.077   .     S
C359   C364    1.456   .     S
C359   O503    1.308   .     A
C359   O500    1.310   .     A
C360   H434    1.084   .     S
C360   C369    1.397   .     A
C361   H435    1.083   .     S
C361   C369    1.398   .     A
C362   C371    1.392   .     A
C362   H436    1.074   .     S
C363   C370    1.457   .     S
C367   C414    1.456   .     S
C368   C403    1.457   .     S
C369   C392    1.444   .     S
C370   O501    1.306   .     A
C370   O502    1.313   .     A
C371   C381    1.449   .     S
C372   C424    1.482   .     S
C372   C373    1.405   .     A
C372   C545    1.402   1_455 S
C373   C374    1.398   .     A
C373   H437    1.081   .     S
C374   C375    1.396   .     A
C374   H438    1.082   .     S
C375   H439    1.082   .     S
C375   C544    1.396   1_455 S
C376   H441    1.082   .     S
C376   C377    1.398   .     A
C376   C543    1.396   .     S
C377   H442    1.081   .     S
C377   C540    1.402   .     S
C378   C384    1.408   .     A
C378   C547    1.401   .     S
C379   H443    1.061   .     S
C379   C546    1.401   1_455 S
C379   C548    1.398   1_455 S
C380   C382    1.394   .     A
C380   C547    1.398   .     S
C380   H612    1.083   .     S
C381   O492    1.311   .     A
C381   O504    1.305   .     A
C382   H445    1.082   .     S
C382   C383    1.395   .     A
C383   C384    1.399   .     A
C383   H446    1.079   .     S
C384   H447    1.082   .     S
C385   C390    1.409   .     A
C385   C554    1.401   1_455 S
C386   H448    1.062   .     S
C386   C553    1.401   .     S
C386   C555    1.398   .     S
C387   C388    1.394   .     A
C387   C554    1.398   1_455 S
C387   H617    1.082   1_455 S
C388   C389    1.395   .     A
C388   H450    1.083   .     S
C389   C390    1.400   .     A
C389   H452    1.080   .     S
C390   H453    1.083   .     S
C391   C397    1.407   .     A
C391   C561    1.401   1_455 S
C392   O491    1.306   .     A
C392   O490    1.307   .     A
C393   H454    1.074   .     S
C393   C559    1.401   .     S
C393   C562    1.397   .     S
C394   C395    1.396   .     A
C394   C561    1.397   1_455 S
C394   H623    1.082   1_455 S
C395   H456    1.082   .     S
C395   C396    1.397   .     A
C396   H457    1.080   .     S
C396   C397    1.398   .     A
C397   H458    1.083   .     S
C398   C399    1.401   .     A
C398   C404    1.408   .     A
C399   C400    1.398   .     A
C399   H459    1.061   .     S
C400   C401    1.394   .     A
C400   H460    1.082   .     S
C401   H461    1.082   .     S
C401   C402    1.395   .     A
C402   C404    1.399   .     A
C402   H463    1.079   .     S
C403   O493    1.306   .     A
C403   O496    1.313   .     A
C404   H464    1.082   .     S
C405   C410    1.405   .     A
C405   C406    1.402   .     A
C406   C407    1.398   .     A
C406   H465    1.081   .     S
C407   C408    1.396   .     A
C407   H466    1.082   .     S
C408   H467    1.082   .     S
C408   C409    1.396   .     A
C409   C410    1.398   .     A
C409   H468    1.082   .     S
C410   H469    1.081   .     S
C411   C417    1.400   .     A
C411   C412    1.407   .     A
C412   C413    1.398   .     A
C412   H470    1.083   .     S
C413   C415    1.397   .     A
C413   H471    1.080   .     S
C414   O494    1.310   .     A
C414   O495    1.308   .     A
C415   C416    1.396   .     A
C415   H472    1.082   .     S
C416   C417    1.397   .     A
C416   H474    1.082   .     S
C417   H475    1.074   .     S
C418   C419    1.409   .     A
C418   C423    1.401   .     A
C419   C420    1.400   .     A
C419   H476    1.083   .     S
C420   C421    1.395   .     A
C420   H477    1.080   .     S
C421   C422    1.394   .     A
C421   H478    1.082   .     S
C422   H479    1.082   .     S
C422   C423    1.398   .     A
C423   H480    1.062   .     S
C424   C1684   1.437   1_554 S
C424   N486    1.378   .     S
Cu425  O671    1.968   1_455 S
Cu425  O666    1.955   1_455 S
Cu425  Cu426   2.734   .     S
Cu425  N485    2.054   .     S
Cu425  O489    1.955   .     S
Cu425  O501    1.967   .     S
Cu426  N486    2.054   .     S
Cu426  O665    1.955   1_455 S
Cu426  O668    1.967   1_455 S
Cu426  O499    1.955   .     S
Cu426  O502    1.968   .     S
Cu427  O494    1.967   .     S
Cu427  N487    2.054   .     S
Cu427  O491    1.955   .     S
Cu427  Cu428   2.734   .     S
Cu428  O495    1.968   .     S
Cu428  N488    2.054   .     S
Cu428  O490    1.955   .     S
H444   C548    1.083   1_455 S
H449   C555    1.082   .     S
H455   C562    1.082   .     S
N485   C506    1.385   1_455 S
O492   Cu92    1.955   1_565 S
O493   Cu92    1.967   1_565 S
O496   Cu91    1.968   1_565 S
O497   Cu594   1.955   .     S
O498   Cu593   1.955   .     S
O500   Cu594   1.967   .     S
O503   Cu593   1.968   .     S
O504   Cu91    1.955   1_565 S
C505   C534    1.444   .     S
C505   O657    1.307   .     A
C505   O667    1.306   .     A
C506   C546    1.490   .     S
C506   C1011   1.426   1_655 S
C506   N485    1.385   1_655 S
C507   C553    1.492   .     S
C507   C1682   1.426   1_554 S
C507   N654    1.378   .     S
C508   N653    1.381   .     A
C508   C559    1.481   .     S
C508   C1264   1.437   .     S
C509   C566    1.490   .     S
C509   C1856   1.426   1_554 S
C509   N320    1.385   1_565 S
C510   C573    1.482   .     S
C510   N655    1.378   .     A
C510   C1183   1.437   .     S
C511   C579    1.481   .     S
C511   N656    1.382   .     A
C511   C1854   1.437   1_554 S
C512   C586    1.492   .     S
C512   C1181   1.426   .     S
C512   N319    1.378   1_565 S
C513   C524    1.383   .     A
C513   H597    1.077   .     S
C513   C532    1.396   .     A
C514   C531    1.401   .     A
C514   C525    1.383   .     A
C514   H608    1.077   .     S
C515   C522    1.383   .     A
C515   H619    1.076   .     S
C515   C531    1.394   .     A
C516   C533    1.449   .     S
C516   O665    1.305   .     A
C516   O666    1.311   .     A
C517   C532    1.398   .     A
C517   C523    1.383   .     A
C517   H630    1.072   .     S
C518   C534    1.397   .     A
C518   H641    1.084   .     S
C518   C529    1.391   .     A
C519   C533    1.399   .     A
C519   H649    1.077   .     S
C519   C530    1.379   .     A
C520   H650    1.074   .     S
C520   C533    1.392   .     A
C520   C526    1.379   .     A
C521   H651    1.083   .     S
C521   C534    1.398   .     A
C521   C528    1.391   .     A
C522   H652    1.077   .     S
C522   C536    1.401   .     A
C523   C535    1.396   .     A
C523   H598    1.077   .     S
C524   H599    1.072   .     S
C524   C535    1.398   .     A
C525   C536    1.394   .     A
C525   H600    1.076   .     S
C526   C539    1.399   .     A
C526   H601    1.077   .     S
C527   C532    1.456   .     S
C527   O671    1.308   .     A
C527   O668    1.310   .     A
C528   H602    1.084   .     S
C528   C537    1.397   .     A
C529   H603    1.083   .     S
C529   C537    1.398   .     A
C530   C539    1.392   .     A
C530   H604    1.074   .     S
C531   C538    1.457   .     S
C535   C582    1.456   .     S
C536   C571    1.457   .     S
C537   C560    1.444   .     S
C538   O669    1.306   .     A
C538   O670    1.313   .     A
C539   C549    1.449   .     S
C540   C592    1.482   .     S
C540   C541    1.405   .     A
C541   C542    1.398   .     A
C541   H605    1.081   .     S
C542   C543    1.396   .     A
C542   H606    1.082   .     S
C543   H607    1.082   .     S
C544   H609    1.082   .     S
C544   C545    1.398   .     A
C544   C375    1.396   1_655 S
C545   H610    1.081   .     S
C545   C372    1.402   1_655 S
C546   C552    1.408   .     A
C546   C379    1.401   1_655 S
C547   H611    1.061   .     S
C548   C550    1.394   .     A
C548   C379    1.398   1_655 S
C548   H444    1.083   1_655 S
C549   O660    1.311   .     A
C549   O672    1.305   .     A
C550   H613    1.082   .     S
C550   C551    1.395   .     A
C551   C552    1.399   .     A
C551   H614    1.079   .     S
C552   H615    1.082   .     S
C553   C558    1.409   .     A
C554   H616    1.062   .     S
C554   C385    1.401   1_655 S
C554   C387    1.398   1_655 S
C555   C556    1.394   .     A
C556   C557    1.395   .     A
C556   H618    1.083   .     S
C557   C558    1.400   .     A
C557   H620    1.080   .     S
C558   H621    1.083   .     S
C559   C565    1.407   .     A
C560   O659    1.306   .     A
C560   O658    1.307   .     A
C561   H622    1.074   .     S
C561   C391    1.401   1_655 S
C561   C394    1.397   1_655 S
C562   C563    1.396   .     A
C563   H624    1.082   .     S
C563   C564    1.397   .     A
C564   H625    1.080   .     S
C564   C565    1.398   .     A
C565   H626    1.083   .     S
C566   C567    1.401   .     A
C566   C572    1.408   .     A
C567   C568    1.398   .     A
C567   H627    1.061   .     S
C568   C569    1.394   .     A
C568   H628    1.082   .     S
C569   H629    1.082   .     S
C569   C570    1.395   .     A
C570   C572    1.399   .     A
C570   H631    1.079   .     S
C571   O661    1.306   .     A
C571   O664    1.313   .     A
C572   H632    1.082   .     S
C573   C578    1.405   .     A
C573   C574    1.402   .     A
C574   C575    1.398   .     A
C574   H633    1.081   .     S
C575   C576    1.396   .     A
C575   H634    1.082   .     S
C576   H635    1.082   .     S
C576   C577    1.396   .     A
C577   C578    1.398   .     A
C577   H636    1.082   .     S
C578   H637    1.081   .     S
C579   C585    1.400   .     A
C579   C580    1.407   .     A
C580   C581    1.398   .     A
C580   H638    1.083   .     S
C581   C583    1.397   .     A
C581   H639    1.080   .     S
C582   O662    1.310   .     A
C582   O663    1.308   .     A
C583   C584    1.396   .     A
C583   H640    1.082   .     S
C584   C585    1.397   .     A
C584   H642    1.082   .     S
C585   H643    1.074   .     S
C586   C587    1.409   .     A
C586   C591    1.401   .     A
C587   C588    1.400   .     A
C587   H644    1.083   .     S
C588   C589    1.395   .     A
C588   H645    1.080   .     S
C589   C590    1.394   .     A
C589   H646    1.082   .     S
C590   H647    1.082   .     S
C590   C591    1.398   .     A
C591   H648    1.062   .     S
C592   C1852   1.437   1_554 S
C592   N654    1.378   .     S
Cu593  Cu594   2.734   .     S
Cu593  N653    2.054   .     S
Cu593  O657    1.955   .     S
Cu593  O669    1.967   .     S
Cu594  N654    2.054   .     S
Cu594  O667    1.955   .     S
Cu594  O670    1.968   .     S
Cu595  O662    1.967   .     S
Cu595  N655    2.054   .     S
Cu595  O659    1.955   .     S
Cu595  Cu596   2.734   .     S
Cu596  O663    1.968   .     S
Cu596  N656    2.054   .     S
Cu596  O658    1.955   .     S
H617   C387    1.082   1_655 S
H623   C394    1.082   1_655 S
O660   Cu260   1.955   1_565 S
O661   Cu260   1.967   1_565 S
O664   Cu259   1.968   1_565 S
O665   Cu426   1.955   1_655 S
O666   Cu425   1.955   1_655 S
O668   Cu426   1.967   1_655 S
O671   Cu425   1.968   1_655 S
O672   Cu259   1.955   1_565 S
C673   C702    1.444   .     S
C673   O825    1.307   .     A
C673   O835    1.306   .     A
C674   C714    1.490   .     S
C674   C1515   1.426   .     S
C674   N989    1.385   .     S
C675   C721    1.492   .     S
C675   C170    1.426   1_455 S
C675   N822    1.378   .     S
C676   N821    1.381   .     A
C676   C727    1.481   .     S
C676   C1432   1.437   .     S
C677   C734    1.490   .     S
C677   N1160   1.385   .     S
C678   C741    1.482   .     S
C678   N823    1.378   .     A
C678   C1351   1.437   .     S
C679   C747    1.481   .     S
C679   N824    1.382   .     A
C680   C754    1.492   .     S
C680   C1349   1.426   .     S
C680   N1159   1.378   .     S
C681   C692    1.383   .     A
C681   H765    1.077   .     S
C681   C700    1.396   .     A
C682   C699    1.401   .     A
C682   C693    1.383   .     A
C682   H776    1.077   .     S
C683   C690    1.383   .     A
C683   H787    1.076   .     S
C683   C699    1.394   .     A
C684   C701    1.449   .     S
C684   O833    1.305   .     A
C684   O834    1.311   .     A
C685   C700    1.398   .     A
C685   C691    1.383   .     A
C685   H798    1.072   .     S
C686   C702    1.397   .     A
C686   H809    1.084   .     S
C686   C697    1.391   .     A
C687   C701    1.399   .     A
C687   H817    1.077   .     S
C687   C698    1.379   .     A
C688   H818    1.074   .     S
C688   C701    1.392   .     A
C688   C694    1.379   .     A
C689   H819    1.083   .     S
C689   C702    1.398   .     A
C689   C696    1.391   .     A
C690   H820    1.077   .     S
C690   C704    1.401   .     A
C691   C703    1.396   .     A
C691   H766    1.077   .     S
C692   H767    1.072   .     S
C692   C703    1.398   .     A
C693   C704    1.394   .     A
C693   H768    1.076   .     S
C694   C707    1.399   .     A
C694   H769    1.077   .     S
C695   C700    1.456   .     S
C695   O839    1.308   .     A
C695   O836    1.310   .     A
C696   H770    1.084   .     S
C696   C705    1.397   .     A
C697   H771    1.083   .     S
C697   C705    1.398   .     A
C698   C707    1.392   .     A
C698   H772    1.074   .     S
C699   C706    1.457   .     S
C703   C750    1.456   .     S
C704   C739    1.457   .     S
C705   C728    1.444   .     S
C706   O837    1.306   .     A
C706   O838    1.313   .     A
C707   C717    1.449   .     S
C708   C760    1.482   .     S
C708   C709    1.405   .     A
C708   C881    1.402   1_455 S
C709   C710    1.398   .     A
C709   H773    1.081   .     S
C710   C711    1.396   .     A
C710   H774    1.082   .     S
C711   H775    1.082   .     S
C711   C880    1.396   1_455 S
C712   H777    1.082   .     S
C712   C713    1.398   .     A
C712   C879    1.396   .     S
C713   H778    1.081   .     S
C713   C876    1.402   .     S
C714   C720    1.408   .     A
C714   C883    1.401   .     S
C715   H779    1.061   .     S
C715   C882    1.401   1_455 S
C715   C884    1.398   1_455 S
C716   C718    1.394   .     A
C716   C883    1.398   .     S
C716   H948    1.083   .     S
C717   O828    1.311   .     A
C717   O840    1.305   .     A
C718   H781    1.082   .     S
C718   C719    1.395   .     A
C719   C720    1.399   .     A
C719   H782    1.079   .     S
C720   H783    1.082   .     S
C721   C726    1.409   .     A
C721   C890    1.401   1_455 S
C722   H784    1.062   .     S
C722   C889    1.401   .     S
C722   C891    1.398   .     S
C723   C724    1.394   .     A
C723   C890    1.398   1_455 S
C723   H953    1.082   1_455 S
C724   C725    1.395   .     A
C724   H786    1.083   .     S
C725   C726    1.400   .     A
C725   H788    1.080   .     S
C726   H789    1.083   .     S
C727   C733    1.407   .     A
C727   C897    1.401   1_455 S
C728   O827    1.306   .     A
C728   O826    1.307   .     A
C729   H790    1.074   .     S
C729   C895    1.401   .     S
C729   C898    1.397   .     S
C730   C731    1.396   .     A
C730   C897    1.397   1_455 S
C730   H959    1.082   1_455 S
C731   H792    1.082   .     S
C731   C732    1.397   .     A
C732   H793    1.080   .     S
C732   C733    1.398   .     A
C733   H794    1.083   .     S
C734   C735    1.401   .     A
C734   C740    1.408   .     A
C735   C736    1.398   .     A
C735   H795    1.061   .     S
C736   C737    1.394   .     A
C736   H796    1.082   .     S
C737   H797    1.082   .     S
C737   C738    1.395   .     A
C738   C740    1.399   .     A
C738   H799    1.079   .     S
C739   O829    1.306   .     A
C739   O832    1.313   .     A
C740   H800    1.082   .     S
C741   C746    1.405   .     A
C741   C742    1.402   .     A
C742   C743    1.398   .     A
C742   H801    1.081   .     S
C743   C744    1.396   .     A
C743   H802    1.082   .     S
C744   H803    1.082   .     S
C744   C745    1.396   .     A
C745   C746    1.398   .     A
C745   H804    1.082   .     S
C746   H805    1.081   .     S
C747   C753    1.400   .     A
C747   C748    1.407   .     A
C748   C749    1.398   .     A
C748   H806    1.083   .     S
C749   C751    1.397   .     A
C749   H807    1.080   .     S
C750   O830    1.310   .     A
C750   O831    1.308   .     A
C751   C752    1.396   .     A
C751   H808    1.082   .     S
C752   C753    1.397   .     A
C752   H810    1.082   .     S
C753   H811    1.074   .     S
C754   C755    1.409   .     A
C754   C759    1.401   .     A
C755   C756    1.400   .     A
C755   H812    1.083   .     S
C756   C757    1.395   .     A
C756   H813    1.080   .     S
C757   C758    1.394   .     A
C757   H814    1.082   .     S
C758   H815    1.082   .     S
C758   C759    1.398   .     A
C759   H816    1.062   .     S
C760   N822    1.378   .     S
Cu761  O1007   1.968   1_455 S
Cu761  O1002   1.955   1_455 S
Cu761  Cu762   2.734   .     S
Cu761  N821    2.054   .     S
Cu761  O825    1.955   .     S
Cu761  O837    1.967   .     S
Cu762  N822    2.054   .     S
Cu762  O1001   1.955   1_455 S
Cu762  O1004   1.967   1_455 S
Cu762  O835    1.955   .     S
Cu762  O838    1.968   .     S
Cu763  O830    1.967   .     S
Cu763  N823    2.054   .     S
Cu763  O827    1.955   .     S
Cu763  Cu764   2.734   .     S
Cu763  O1168   1.968   1_545 S
Cu763  O1176   1.955   1_545 S
Cu764  O831    1.968   .     S
Cu764  N824    2.054   .     S
Cu764  O826    1.955   .     S
Cu764  O1164   1.955   1_545 S
Cu764  O1165   1.967   1_545 S
H780   C884    1.083   1_455 S
H785   C891    1.082   .     S
H791   C898    1.082   .     S
N821   C842    1.385   1_455 S
N823   C1016   1.378   1_545 S
N824   C1013   1.385   1_545 S
O828   Cu1100  1.955   .     S
O829   Cu1100  1.967   .     S
O832   Cu1099  1.968   .     S
O833   Cu930   1.955   .     S
O834   Cu929   1.955   .     S
O836   Cu930   1.967   .     S
O839   Cu929   1.968   .     S
O840   Cu1099  1.955   .     S
C841   C870    1.444   .     S
C841   O993    1.307   .     A
C841   O1003   1.306   .     A
C842   C882    1.490   .     S
C842   C1347   1.426   1_655 S
C842   N821    1.385   1_655 S
C843   C889    1.492   .     S
C843   N990    1.378   .     S
C844   N989    1.381   .     A
C844   C895    1.481   .     S
C844   C1600   1.437   .     S
C845   C902    1.490   .     S
C845   N1328   1.385   .     S
C846   C909    1.482   .     S
C846   N991    1.378   .     A
C846   C1519   1.437   .     S
C847   C915    1.481   .     S
C847   N992    1.382   .     A
C848   C922    1.492   .     S
C848   C1517   1.426   .     S
C848   N1327   1.378   .     S
C849   C860    1.383   .     A
C849   H933    1.077   .     S
C849   C868    1.396   .     A
C850   C867    1.401   .     A
C850   C861    1.383   .     A
C850   H944    1.077   .     S
C851   C858    1.383   .     A
C851   H955    1.076   .     S
C851   C867    1.394   .     A
C852   C869    1.449   .     S
C852   O1001   1.305   .     A
C852   O1002   1.311   .     A
C853   C868    1.398   .     A
C853   C859    1.383   .     A
C853   H966    1.072   .     S
C854   C870    1.397   .     A
C854   H977    1.084   .     S
C854   C865    1.391   .     A
C855   C869    1.399   .     A
C855   H985    1.077   .     S
C855   C866    1.379   .     A
C856   H986    1.074   .     S
C856   C869    1.392   .     A
C856   C862    1.379   .     A
C857   H987    1.083   .     S
C857   C870    1.398   .     A
C857   C864    1.391   .     A
C858   H988    1.077   .     S
C858   C872    1.401   .     A
C859   C871    1.396   .     A
C859   H934    1.077   .     S
C860   H935    1.072   .     S
C860   C871    1.398   .     A
C861   C872    1.394   .     A
C861   H936    1.076   .     S
C862   C875    1.399   .     A
C862   H937    1.077   .     S
C863   C868    1.456   .     S
C863   O1007   1.308   .     A
C863   O1004   1.310   .     A
C864   H938    1.084   .     S
C864   C873    1.397   .     A
C865   H939    1.083   .     S
C865   C873    1.398   .     A
C866   C875    1.392   .     A
C866   H940    1.074   .     S
C867   C874    1.457   .     S
C871   C918    1.456   .     S
C872   C907    1.457   .     S
C873   C896    1.444   .     S
C874   O1005   1.306   .     A
C874   O1006   1.313   .     A
C875   C885    1.449   .     S
C876   C928    1.482   .     S
C876   C877    1.405   .     A
C877   C878    1.398   .     A
C877   H941    1.081   .     S
C878   C879    1.396   .     A
C878   H942    1.082   .     S
C879   H943    1.082   .     S
C880   H945    1.082   .     S
C880   C881    1.398   .     A
C880   C711    1.396   1_655 S
C881   H946    1.081   .     S
C881   C708    1.402   1_655 S
C882   C888    1.408   .     A
C882   C715    1.401   1_655 S
C883   H947    1.061   .     S
C884   C886    1.394   .     A
C884   C715    1.398   1_655 S
C884   H780    1.083   1_655 S
C885   O996    1.311   .     A
C885   O1008   1.305   .     A
C886   H949    1.082   .     S
C886   C887    1.395   .     A
C887   C888    1.399   .     A
C887   H950    1.079   .     S
C888   H951    1.082   .     S
C889   C894    1.409   .     A
C890   H952    1.062   .     S
C890   C721    1.401   1_655 S
C890   C723    1.398   1_655 S
C891   C892    1.394   .     A
C892   C893    1.395   .     A
C892   H954    1.083   .     S
C893   C894    1.400   .     A
C893   H956    1.080   .     S
C894   H957    1.083   .     S
C895   C901    1.407   .     A
C896   O995    1.306   .     A
C896   O994    1.307   .     A
C897   H958    1.074   .     S
C897   C727    1.401   1_655 S
C897   C730    1.397   1_655 S
C898   C899    1.396   .     A
C899   H960    1.082   .     S
C899   C900    1.397   .     A
C900   H961    1.080   .     S
C900   C901    1.398   .     A
C901   H962    1.083   .     S
C902   C903    1.401   .     A
C902   C908    1.408   .     A
C903   C904    1.398   .     A
C903   H963    1.061   .     S
C904   C905    1.394   .     A
C904   H964    1.082   .     S
C905   H965    1.082   .     S
C905   C906    1.395   .     A
C906   C908    1.399   .     A
C906   H967    1.079   .     S
C907   O997    1.306   .     A
C907   O1000   1.313   .     A
C908   H968    1.082   .     S
C909   C914    1.405   .     A
C909   C910    1.402   .     A
C910   C911    1.398   .     A
C910   H969    1.081   .     S
C911   C912    1.396   .     A
C911   H970    1.082   .     S
C912   H971    1.082   .     S
C912   C913    1.396   .     A
C913   C914    1.398   .     A
C913   H972    1.082   .     S
C914   H973    1.081   .     S
C915   C921    1.400   .     A
C915   C916    1.407   .     A
C916   C917    1.398   .     A
C916   H974    1.083   .     S
C917   C919    1.397   .     A
C917   H975    1.080   .     S
C918   O998    1.310   .     A
C918   O999    1.308   .     A
C919   C920    1.396   .     A
C919   H976    1.082   .     S
C920   C921    1.397   .     A
C920   H978    1.082   .     S
C921   H979    1.074   .     S
C922   C923    1.409   .     A
C922   C927    1.401   .     A
C923   C924    1.400   .     A
C923   H980    1.083   .     S
C924   C925    1.395   .     A
C924   H981    1.080   .     S
C925   C926    1.394   .     A
C925   H982    1.082   .     S
C926   H983    1.082   .     S
C926   C927    1.398   .     A
C927   H984    1.062   .     S
C928   N990    1.378   .     S
Cu929  Cu930   2.734   .     S
Cu929  N989    2.054   .     S
Cu929  O993    1.955   .     S
Cu929  O1005   1.967   .     S
Cu930  N990    2.054   .     S
Cu930  O1003   1.955   .     S
Cu930  O1006   1.968   .     S
Cu931  O998    1.967   .     S
Cu931  N991    2.054   .     S
Cu931  O995    1.955   .     S
Cu931  Cu932   2.734   .     S
Cu931  O1336   1.968   1_545 S
Cu931  O1344   1.955   1_545 S
Cu932  O999    1.968   .     S
Cu932  N992    2.054   .     S
Cu932  O994    1.955   .     S
Cu932  O1332   1.955   1_545 S
Cu932  O1333   1.967   1_545 S
H953   C723    1.082   1_655 S
H959   C730    1.082   1_655 S
N991   C1184   1.378   1_545 S
N992   C1181   1.385   1_545 S
O996   Cu1268  1.955   .     S
O997   Cu1268  1.967   .     S
O1000  Cu1267  1.968   .     S
O1001  Cu762   1.955   1_655 S
O1002  Cu761   1.955   1_655 S
O1004  Cu762   1.967   1_655 S
O1007  Cu761   1.968   1_655 S
O1008  Cu1267  1.955   .     S
C1009  C1038   1.444   .     S
C1009  O1161   1.307   .     A
C1009  O1171   1.306   .     A
C1010  C1050   1.490   .     S
C1010  C1851   1.426   .     S
C1010  N1325   1.385   .     S
C1011  C1057   1.492   .     S
C1011  C506    1.426   1_455 S
C1011  N1158   1.378   .     S
C1012  N1157   1.381   .     A
C1012  C1063   1.481   .     S
C1012  C1768   1.437   .     S
C1013  C1070   1.490   .     S
C1013  N824    1.385   1_565 S
C1014  C1077   1.482   .     S
C1014  N1159   1.378   .     A
C1014  C1687   1.437   .     S
C1015  C1083   1.481   .     S
C1015  N1160   1.382   .     A
C1016  C1090   1.492   .     S
C1016  C1685   1.426   .     S
C1016  N823    1.378   1_565 S
C1017  C1028   1.383   .     A
C1017  H1101   1.077   .     S
C1017  C1036   1.396   .     A
C1018  C1035   1.401   .     A
C1018  C1029   1.383   .     A
C1018  H1112   1.077   .     S
C1019  C1026   1.383   .     A
C1019  H1123   1.076   .     S
C1019  C1035   1.394   .     A
C1020  C1037   1.449   .     S
C1020  O1169   1.305   .     A
C1020  O1170   1.311   .     A
C1021  C1036   1.398   .     A
C1021  C1027   1.383   .     A
C1021  H1134   1.072   .     S
C1022  C1038   1.397   .     A
C1022  H1145   1.084   .     S
C1022  C1033   1.391   .     A
C1023  C1037   1.399   .     A
C1023  H1153   1.077   .     S
C1023  C1034   1.379   .     A
C1024  H1154   1.074   .     S
C1024  C1037   1.392   .     A
C1024  C1030   1.379   .     A
C1025  H1155   1.083   .     S
C1025  C1038   1.398   .     A
C1025  C1032   1.391   .     A
C1026  H1156   1.077   .     S
C1026  C1040   1.401   .     A
C1027  C1039   1.396   .     A
C1027  H1102   1.077   .     S
C1028  H1103   1.072   .     S
C1028  C1039   1.398   .     A
C1029  C1040   1.394   .     A
C1029  H1104   1.076   .     S
C1030  C1043   1.399   .     A
C1030  H1105   1.077   .     S
C1031  C1036   1.456   .     S
C1031  O1175   1.308   .     A
C1031  O1172   1.310   .     A
C1032  H1106   1.084   .     S
C1032  C1041   1.397   .     A
C1033  H1107   1.083   .     S
C1033  C1041   1.398   .     A
C1034  C1043   1.392   .     A
C1034  H1108   1.074   .     S
C1035  C1042   1.457   .     S
C1039  C1086   1.456   .     S
C1040  C1075   1.457   .     S
C1041  C1064   1.444   .     S
C1042  O1173   1.306   .     A
C1042  O1174   1.313   .     A
C1043  C1053   1.449   .     S
C1044  C1096   1.482   .     S
C1044  C1045   1.405   .     A
C1044  C1217   1.402   1_455 S
C1045  C1046   1.398   .     A
C1045  H1109   1.081   .     S
C1046  C1047   1.396   .     A
C1046  H1110   1.082   .     S
C1047  H1111   1.082   .     S
C1047  C1216   1.396   1_455 S
C1048  H1113   1.082   .     S
C1048  C1049   1.398   .     A
C1048  C1215   1.396   .     S
C1049  H1114   1.081   .     S
C1049  C1212   1.402   .     S
C1050  C1056   1.408   .     A
C1050  C1219   1.401   .     S
C1051  H1115   1.061   .     S
C1051  C1218   1.401   1_455 S
C1051  C1220   1.398   1_455 S
C1052  C1054   1.394   .     A
C1052  C1219   1.398   .     S
C1052  H1284   1.083   .     S
C1053  O1164   1.311   .     A
C1053  O1176   1.305   .     A
C1054  H1117   1.082   .     S
C1054  C1055   1.395   .     A
C1055  C1056   1.399   .     A
C1055  H1118   1.079   .     S
C1056  H1119   1.082   .     S
C1057  C1062   1.409   .     A
C1057  C1226   1.401   1_455 S
C1058  H1120   1.062   .     S
C1058  C1225   1.401   .     S
C1058  C1227   1.398   .     S
C1059  C1060   1.394   .     A
C1059  C1226   1.398   1_455 S
C1059  H1289   1.082   1_455 S
C1060  C1061   1.395   .     A
C1060  H1122   1.083   .     S
C1061  C1062   1.400   .     A
C1061  H1124   1.080   .     S
C1062  H1125   1.083   .     S
C1063  C1069   1.407   .     A
C1063  C1233   1.401   1_455 S
C1064  O1163   1.306   .     A
C1064  O1162   1.307   .     A
C1065  H1126   1.074   .     S
C1065  C1231   1.401   .     S
C1065  C1234   1.397   .     S
C1066  C1067   1.396   .     A
C1066  C1233   1.397   1_455 S
C1066  H1295   1.082   1_455 S
C1067  H1128   1.082   .     S
C1067  C1068   1.397   .     A
C1068  H1129   1.080   .     S
C1068  C1069   1.398   .     A
C1069  H1130   1.083   .     S
C1070  C1071   1.401   .     A
C1070  C1076   1.408   .     A
C1071  C1072   1.398   .     A
C1071  H1131   1.061   .     S
C1072  C1073   1.394   .     A
C1072  H1132   1.082   .     S
C1073  H1133   1.082   .     S
C1073  C1074   1.395   .     A
C1074  C1076   1.399   .     A
C1074  H1135   1.079   .     S
C1075  O1165   1.306   .     A
C1075  O1168   1.313   .     A
C1076  H1136   1.082   .     S
C1077  C1082   1.405   .     A
C1077  C1078   1.402   .     A
C1078  C1079   1.398   .     A
C1078  H1137   1.081   .     S
C1079  C1080   1.396   .     A
C1079  H1138   1.082   .     S
C1080  H1139   1.082   .     S
C1080  C1081   1.396   .     A
C1081  C1082   1.398   .     A
C1081  H1140   1.082   .     S
C1082  H1141   1.081   .     S
C1083  C1089   1.400   .     A
C1083  C1084   1.407   .     A
C1084  C1085   1.398   .     A
C1084  H1142   1.083   .     S
C1085  C1087   1.397   .     A
C1085  H1143   1.080   .     S
C1086  O1166   1.310   .     A
C1086  O1167   1.308   .     A
C1087  C1088   1.396   .     A
C1087  H1144   1.082   .     S
C1088  C1089   1.397   .     A
C1088  H1146   1.082   .     S
C1089  H1147   1.074   .     S
C1090  C1091   1.409   .     A
C1090  C1095   1.401   .     A
C1091  C1092   1.400   .     A
C1091  H1148   1.083   .     S
C1092  C1093   1.395   .     A
C1092  H1149   1.080   .     S
C1093  C1094   1.394   .     A
C1093  H1150   1.082   .     S
C1094  H1151   1.082   .     S
C1094  C1095   1.398   .     A
C1095  H1152   1.062   .     S
C1096  N1158   1.378   .     S
Cu1097 O1343   1.968   1_455 S
Cu1097 O1338   1.955   1_455 S
Cu1097 Cu1098  2.734   .     S
Cu1097 N1157   2.054   .     S
Cu1097 O1161   1.955   .     S
Cu1097 O1173   1.967   .     S
Cu1098 N1158   2.054   .     S
Cu1098 O1337   1.955   1_455 S
Cu1098 O1340   1.967   1_455 S
Cu1098 O1171   1.955   .     S
Cu1098 O1174   1.968   .     S
Cu1099 O1166   1.967   .     S
Cu1099 N1159   2.054   .     S
Cu1099 O1163   1.955   .     S
Cu1099 Cu1100  2.734   .     S
Cu1100 O1167   1.968   .     S
Cu1100 N1160   2.054   .     S
Cu1100 O1162   1.955   .     S
H1116  C1220   1.083   1_455 S
H1121  C1227   1.082   .     S
H1127  C1234   1.082   .     S
N1157  C1178   1.385   1_455 S
O1164  Cu764   1.955   1_565 S
O1165  Cu764   1.967   1_565 S
O1168  Cu763   1.968   1_565 S
O1169  Cu1266  1.955   .     S
O1170  Cu1265  1.955   .     S
O1172  Cu1266  1.967   .     S
O1175  Cu1265  1.968   .     S
O1176  Cu763   1.955   1_565 S
C1177  C1206   1.444   .     S
C1177  O1329   1.307   .     A
C1177  O1339   1.306   .     A
C1178  C1218   1.490   .     S
C1178  C1683   1.426   1_655 S
C1178  N1157   1.385   1_655 S
C1179  C1225   1.492   .     S
C1179  N1326   1.378   .     S
C1180  N1325   1.381   .     A
C1180  C1231   1.481   .     S
C1180  C1936   1.437   .     S
C1181  C1238   1.490   .     S
C1181  N992    1.385   1_565 S
C1182  C1245   1.482   .     S
C1182  N1327   1.378   .     A
C1182  C1855   1.437   .     S
C1183  C1251   1.481   .     S
C1183  N1328   1.382   .     A
C1184  C1258   1.492   .     S
C1184  C1853   1.426   .     S
C1184  N991    1.378   1_565 S
C1185  C1196   1.383   .     A
C1185  H1269   1.077   .     S
C1185  C1204   1.396   .     A
C1186  C1203   1.401   .     A
C1186  C1197   1.383   .     A
C1186  H1280   1.077   .     S
C1187  C1194   1.383   .     A
C1187  H1291   1.076   .     S
C1187  C1203   1.394   .     A
C1188  C1205   1.449   .     S
C1188  O1337   1.305   .     A
C1188  O1338   1.311   .     A
C1189  C1204   1.398   .     A
C1189  C1195   1.383   .     A
C1189  H1302   1.072   .     S
C1190  C1206   1.397   .     A
C1190  H1313   1.084   .     S
C1190  C1201   1.391   .     A
C1191  C1205   1.399   .     A
C1191  H1321   1.077   .     S
C1191  C1202   1.379   .     A
C1192  H1322   1.074   .     S
C1192  C1205   1.392   .     A
C1192  C1198   1.379   .     A
C1193  H1323   1.083   .     S
C1193  C1206   1.398   .     A
C1193  C1200   1.391   .     A
C1194  H1324   1.077   .     S
C1194  C1208   1.401   .     A
C1195  C1207   1.396   .     A
C1195  H1270   1.077   .     S
C1196  H1271   1.072   .     S
C1196  C1207   1.398   .     A
C1197  C1208   1.394   .     A
C1197  H1272   1.076   .     S
C1198  C1211   1.399   .     A
C1198  H1273   1.077   .     S
C1199  C1204   1.456   .     S
C1199  O1343   1.308   .     A
C1199  O1340   1.310   .     A
C1200  H1274   1.084   .     S
C1200  C1209   1.397   .     A
C1201  H1275   1.083   .     S
C1201  C1209   1.398   .     A
C1202  C1211   1.392   .     A
C1202  H1276   1.074   .     S
C1203  C1210   1.457   .     S
C1207  C1254   1.456   .     S
C1208  C1243   1.457   .     S
C1209  C1232   1.444   .     S
C1210  O1341   1.306   .     A
C1210  O1342   1.313   .     A
C1211  C1221   1.449   .     S
C1212  C1264   1.482   .     S
C1212  C1213   1.405   .     A
C1213  C1214   1.398   .     A
C1213  H1277   1.081   .     S
C1214  C1215   1.396   .     A
C1214  H1278   1.082   .     S
C1215  H1279   1.082   .     S
C1216  H1281   1.082   .     S
C1216  C1217   1.398   .     A
C1216  C1047   1.396   1_655 S
C1217  H1282   1.081   .     S
C1217  C1044   1.402   1_655 S
C1218  C1224   1.408   .     A
C1218  C1051   1.401   1_655 S
C1219  H1283   1.061   .     S
C1220  C1222   1.394   .     A
C1220  C1051   1.398   1_655 S
C1220  H1116   1.083   1_655 S
C1221  O1332   1.311   .     A
C1221  O1344   1.305   .     A
C1222  H1285   1.082   .     S
C1222  C1223   1.395   .     A
C1223  C1224   1.399   .     A
C1223  H1286   1.079   .     S
C1224  H1287   1.082   .     S
C1225  C1230   1.409   .     A
C1226  H1288   1.062   .     S
C1226  C1057   1.401   1_655 S
C1226  C1059   1.398   1_655 S
C1227  C1228   1.394   .     A
C1228  C1229   1.395   .     A
C1228  H1290   1.083   .     S
C1229  C1230   1.400   .     A
C1229  H1292   1.080   .     S
C1230  H1293   1.083   .     S
C1231  C1237   1.407   .     A
C1232  O1331   1.306   .     A
C1232  O1330   1.307   .     A
C1233  H1294   1.074   .     S
C1233  C1063   1.401   1_655 S
C1233  C1066   1.397   1_655 S
C1234  C1235   1.396   .     A
C1235  H1296   1.082   .     S
C1235  C1236   1.397   .     A
C1236  H1297   1.080   .     S
C1236  C1237   1.398   .     A
C1237  H1298   1.083   .     S
C1238  C1239   1.401   .     A
C1238  C1244   1.408   .     A
C1239  C1240   1.398   .     A
C1239  H1299   1.061   .     S
C1240  C1241   1.394   .     A
C1240  H1300   1.082   .     S
C1241  H1301   1.082   .     S
C1241  C1242   1.395   .     A
C1242  C1244   1.399   .     A
C1242  H1303   1.079   .     S
C1243  O1333   1.306   .     A
C1243  O1336   1.313   .     A
C1244  H1304   1.082   .     S
C1245  C1250   1.405   .     A
C1245  C1246   1.402   .     A
C1246  C1247   1.398   .     A
C1246  H1305   1.081   .     S
C1247  C1248   1.396   .     A
C1247  H1306   1.082   .     S
C1248  H1307   1.082   .     S
C1248  C1249   1.396   .     A
C1249  C1250   1.398   .     A
C1249  H1308   1.082   .     S
C1250  H1309   1.081   .     S
C1251  C1257   1.400   .     A
C1251  C1252   1.407   .     A
C1252  C1253   1.398   .     A
C1252  H1310   1.083   .     S
C1253  C1255   1.397   .     A
C1253  H1311   1.080   .     S
C1254  O1334   1.310   .     A
C1254  O1335   1.308   .     A
C1255  C1256   1.396   .     A
C1255  H1312   1.082   .     S
C1256  C1257   1.397   .     A
C1256  H1314   1.082   .     S
C1257  H1315   1.074   .     S
C1258  C1259   1.409   .     A
C1258  C1263   1.401   .     A
C1259  C1260   1.400   .     A
C1259  H1316   1.083   .     S
C1260  C1261   1.395   .     A
C1260  H1317   1.080   .     S
C1261  C1262   1.394   .     A
C1261  H1318   1.082   .     S
C1262  H1319   1.082   .     S
C1262  C1263   1.398   .     A
C1263  H1320   1.062   .     S
C1264  N1326   1.378   .     S
Cu1265 Cu1266  2.734   .     S
Cu1265 N1325   2.054   .     S
Cu1265 O1329   1.955   .     S
Cu1265 O1341   1.967   .     S
Cu1266 N1326   2.054   .     S
Cu1266 O1339   1.955   .     S
Cu1266 O1342   1.968   .     S
Cu1267 O1334   1.967   .     S
Cu1267 N1327   2.054   .     S
Cu1267 O1331   1.955   .     S
Cu1267 Cu1268  2.734   .     S
Cu1268 O1335   1.968   .     S
Cu1268 N1328   2.054   .     S
Cu1268 O1330   1.955   .     S
H1289  C1059   1.082   1_655 S
H1295  C1066   1.082   1_655 S
O1332  Cu932   1.955   1_565 S
O1333  Cu932   1.967   1_565 S
O1336  Cu931   1.968   1_565 S
O1337  Cu1098  1.955   1_655 S
O1338  Cu1097  1.955   1_655 S
O1340  Cu1098  1.967   1_655 S
O1343  Cu1097  1.968   1_655 S
O1344  Cu931   1.955   1_565 S
C1345  C1374   1.444   .     S
C1345  O1497   1.307   .     A
C1345  O1507   1.306   .     A
C1346  C1386   1.490   .     S
C1346  C171    1.426   1_556 S
C1346  N1661   1.385   .     S
C1347  C1393   1.492   .     S
C1347  C842    1.426   1_455 S
C1347  N1494   1.378   .     S
C1348  N1493   1.381   .     A
C1348  C1399   1.481   .     S
C1348  C88     1.437   1_556 S
C1349  C1406   1.490   .     S
C1349  N1832   1.385   .     S
C1350  C1413   1.482   .     S
C1350  N1495   1.378   .     A
C1350  C7      1.437   1_556 S
C1351  C1419   1.481   .     S
C1351  N1496   1.382   .     A
C1352  C1426   1.492   .     S
C1352  C5      1.426   1_556 S
C1352  N1831   1.378   .     S
C1353  C1364   1.383   .     A
C1353  H1437   1.077   .     S
C1353  C1372   1.396   .     A
C1354  C1371   1.401   .     A
C1354  C1365   1.383   .     A
C1354  H1448   1.077   .     S
C1355  C1362   1.383   .     A
C1355  H1459   1.076   .     S
C1355  C1371   1.394   .     A
C1356  C1373   1.449   .     S
C1356  O1505   1.305   .     A
C1356  O1506   1.311   .     A
C1357  C1372   1.398   .     A
C1357  C1363   1.383   .     A
C1357  H1470   1.072   .     S
C1358  C1374   1.397   .     A
C1358  H1481   1.084   .     S
C1358  C1369   1.391   .     A
C1359  C1373   1.399   .     A
C1359  H1489   1.077   .     S
C1359  C1370   1.379   .     A
C1360  H1490   1.074   .     S
C1360  C1373   1.392   .     A
C1360  C1366   1.379   .     A
C1361  H1491   1.083   .     S
C1361  C1374   1.398   .     A
C1361  C1368   1.391   .     A
C1362  H1492   1.077   .     S
C1362  C1376   1.401   .     A
C1363  C1375   1.396   .     A
C1363  H1438   1.077   .     S
C1364  H1439   1.072   .     S
C1364  C1375   1.398   .     A
C1365  C1376   1.394   .     A
C1365  H1440   1.076   .     S
C1366  C1379   1.399   .     A
C1366  H1441   1.077   .     S
C1367  C1372   1.456   .     S
C1367  O1511   1.308   .     A
C1367  O1508   1.310   .     A
C1368  H1442   1.084   .     S
C1368  C1377   1.397   .     A
C1369  H1443   1.083   .     S
C1369  C1377   1.398   .     A
C1370  C1379   1.392   .     A
C1370  H1444   1.074   .     S
C1371  C1378   1.457   .     S
C1375  C1422   1.456   .     S
C1376  C1411   1.457   .     S
C1377  C1400   1.444   .     S
C1378  O1509   1.306   .     A
C1378  O1510   1.313   .     A
C1379  C1389   1.449   .     S
C1380  C1432   1.482   .     S
C1380  C1381   1.405   .     A
C1380  C1553   1.402   1_455 S
C1381  C1382   1.398   .     A
C1381  H1445   1.081   .     S
C1382  C1383   1.396   .     A
C1382  H1446   1.082   .     S
C1383  H1447   1.082   .     S
C1383  C1552   1.396   1_455 S
C1384  H1449   1.082   .     S
C1384  C1385   1.398   .     A
C1384  C1551   1.396   .     S
C1385  H1450   1.081   .     S
C1385  C1548   1.402   .     S
C1386  C1392   1.408   .     A
C1386  C1555   1.401   .     S
C1387  H1451   1.061   .     S
C1387  C1554   1.401   1_455 S
C1387  C1556   1.398   1_455 S
C1388  C1390   1.394   .     A
C1388  C1555   1.398   .     S
C1388  H1620   1.083   .     S
C1389  O1500   1.311   .     A
C1389  O1512   1.305   .     A
C1390  H1453   1.082   .     S
C1390  C1391   1.395   .     A
C1391  C1392   1.399   .     A
C1391  H1454   1.079   .     S
C1392  H1455   1.082   .     S
C1393  C1398   1.409   .     A
C1393  C1562   1.401   1_455 S
C1394  H1456   1.062   .     S
C1394  C1561   1.401   .     S
C1394  C1563   1.398   .     S
C1395  C1396   1.394   .     A
C1395  C1562   1.398   1_455 S
C1395  H1625   1.082   1_455 S
C1396  C1397   1.395   .     A
C1396  H1458   1.083   .     S
C1397  C1398   1.400   .     A
C1397  H1460   1.080   .     S
C1398  H1461   1.083   .     S
C1399  C1405   1.407   .     A
C1399  C1569   1.401   1_455 S
C1400  O1499   1.306   .     A
C1400  O1498   1.307   .     A
C1401  H1462   1.074   .     S
C1401  C1567   1.401   .     S
C1401  C1570   1.397   .     S
C1402  C1403   1.396   .     A
C1402  C1569   1.397   1_455 S
C1402  H1631   1.082   1_455 S
C1403  H1464   1.082   .     S
C1403  C1404   1.397   .     A
C1404  H1465   1.080   .     S
C1404  C1405   1.398   .     A
C1405  H1466   1.083   .     S
C1406  C1407   1.401   .     A
C1406  C1412   1.408   .     A
C1407  C1408   1.398   .     A
C1407  H1467   1.061   .     S
C1408  C1409   1.394   .     A
C1408  H1468   1.082   .     S
C1409  H1469   1.082   .     S
C1409  C1410   1.395   .     A
C1410  C1412   1.399   .     A
C1410  H1471   1.079   .     S
C1411  O1501   1.306   .     A
C1411  O1504   1.313   .     A
C1412  H1472   1.082   .     S
C1413  C1418   1.405   .     A
C1413  C1414   1.402   .     A
C1414  C1415   1.398   .     A
C1414  H1473   1.081   .     S
C1415  C1416   1.396   .     A
C1415  H1474   1.082   .     S
C1416  H1475   1.082   .     S
C1416  C1417   1.396   .     A
C1417  C1418   1.398   .     A
C1417  H1476   1.082   .     S
C1418  H1477   1.081   .     S
C1419  C1425   1.400   .     A
C1419  C1420   1.407   .     A
C1420  C1421   1.398   .     A
C1420  H1478   1.083   .     S
C1421  C1423   1.397   .     A
C1421  H1479   1.080   .     S
C1422  O1502   1.310   .     A
C1422  O1503   1.308   .     A
C1423  C1424   1.396   .     A
C1423  H1480   1.082   .     S
C1424  C1425   1.397   .     A
C1424  H1482   1.082   .     S
C1425  H1483   1.074   .     S
C1426  C1427   1.409   .     A
C1426  C1431   1.401   .     A
C1427  C1428   1.400   .     A
C1427  H1484   1.083   .     S
C1428  C1429   1.395   .     A
C1428  H1485   1.080   .     S
C1429  C1430   1.394   .     A
C1429  H1486   1.082   .     S
C1430  H1487   1.082   .     S
C1430  C1431   1.398   .     A
C1431  H1488   1.062   .     S
C1432  N1494   1.378   .     S
Cu1433 O1679   1.968   1_455 S
Cu1433 O1674   1.955   1_455 S
Cu1433 Cu1434  2.734   .     S
Cu1433 N1493   2.054   .     S
Cu1433 O1497   1.955   .     S
Cu1433 O1509   1.967   .     S
Cu1434 N1494   2.054   .     S
Cu1434 O1673   1.955   1_455 S
Cu1434 O1676   1.967   1_455 S
Cu1434 O1507   1.955   .     S
Cu1434 O1510   1.968   .     S
Cu1435 O1502   1.967   .     S
Cu1435 N1495   2.054   .     S
Cu1435 O1499   1.955   .     S
Cu1435 Cu1436  2.734   .     S
Cu1435 O1840   1.968   1_545 S
Cu1435 O1848   1.955   1_545 S
Cu1436 O1503   1.968   .     S
Cu1436 N1496   2.054   .     S
Cu1436 O1498   1.955   .     S
Cu1436 O1836   1.955   1_545 S
Cu1436 O1837   1.967   1_545 S
H1452  C1556   1.083   1_455 S
H1457  C1563   1.082   .     S
H1463  C1570   1.082   .     S
N1493  C1514   1.385   1_455 S
N1495  C1688   1.378   1_545 S
N1496  C1685   1.385   1_545 S
O1500  Cu1772  1.955   .     S
O1501  Cu1772  1.967   .     S
O1504  Cu1771  1.968   .     S
O1505  Cu1602  1.955   .     S
O1506  Cu1601  1.955   .     S
O1508  Cu1602  1.967   .     S
O1511  Cu1601  1.968   .     S
O1512  Cu1771  1.955   .     S
C1513  C1542   1.444   .     S
C1513  O1665   1.307   .     A
C1513  O1675   1.306   .     A
C1514  C1554   1.490   .     S
C1514  C3      1.426   1_656 S
C1514  N1493   1.385   1_655 S
C1515  C1561   1.492   .     S
C1515  N1662   1.378   .     S
C1516  N1661   1.381   .     A
C1516  C1567   1.481   .     S
C1516  C256    1.437   1_556 S
C1517  C1574   1.490   .     S
C1517  N2000   1.385   .     S
C1518  C1581   1.482   .     S
C1518  N1663   1.378   .     A
C1518  C175    1.437   1_556 S
C1519  C1587   1.481   .     S
C1519  N1664   1.382   .     A
C1520  C1594   1.492   .     S
C1520  C173    1.426   1_556 S
C1520  N1999   1.378   .     S
C1521  C1532   1.383   .     A
C1521  H1605   1.077   .     S
C1521  C1540   1.396   .     A
C1522  C1539   1.401   .     A
C1522  C1533   1.383   .     A
C1522  H1616   1.077   .     S
C1523  C1530   1.383   .     A
C1523  H1627   1.076   .     S
C1523  C1539   1.394   .     A
C1524  C1541   1.449   .     S
C1524  O1673   1.305   .     A
C1524  O1674   1.311   .     A
C1525  C1540   1.398   .     A
C1525  C1531   1.383   .     A
C1525  H1638   1.072   .     S
C1526  C1542   1.397   .     A
C1526  H1649   1.084   .     S
C1526  C1537   1.391   .     A
C1527  C1541   1.399   .     A
C1527  H1657   1.077   .     S
C1527  C1538   1.379   .     A
C1528  H1658   1.074   .     S
C1528  C1541   1.392   .     A
C1528  C1534   1.379   .     A
C1529  H1659   1.083   .     S
C1529  C1542   1.398   .     A
C1529  C1536   1.391   .     A
C1530  H1660   1.077   .     S
C1530  C1544   1.401   .     A
C1531  C1543   1.396   .     A
C1531  H1606   1.077   .     S
C1532  H1607   1.072   .     S
C1532  C1543   1.398   .     A
C1533  C1544   1.394   .     A
C1533  H1608   1.076   .     S
C1534  C1547   1.399   .     A
C1534  H1609   1.077   .     S
C1535  C1540   1.456   .     S
C1535  O1679   1.308   .     A
C1535  O1676   1.310   .     A
C1536  H1610   1.084   .     S
C1536  C1545   1.397   .     A
C1537  H1611   1.083   .     S
C1537  C1545   1.398   .     A
C1538  C1547   1.392   .     A
C1538  H1612   1.074   .     S
C1539  C1546   1.457   .     S
C1543  C1590   1.456   .     S
C1544  C1579   1.457   .     S
C1545  C1568   1.444   .     S
C1546  O1677   1.306   .     A
C1546  O1678   1.313   .     A
C1547  C1557   1.449   .     S
C1548  C1600   1.482   .     S
C1548  C1549   1.405   .     A
C1549  C1550   1.398   .     A
C1549  H1613   1.081   .     S
C1550  C1551   1.396   .     A
C1550  H1614   1.082   .     S
C1551  H1615   1.082   .     S
C1552  H1617   1.082   .     S
C1552  C1553   1.398   .     A
C1552  C1383   1.396   1_655 S
C1553  H1618   1.081   .     S
C1553  C1380   1.402   1_655 S
C1554  C1560   1.408   .     A
C1554  C1387   1.401   1_655 S
C1555  H1619   1.061   .     S
C1556  C1558   1.394   .     A
C1556  C1387   1.398   1_655 S
C1556  H1452   1.083   1_655 S
C1557  O1668   1.311   .     A
C1557  O1680   1.305   .     A
C1558  H1621   1.082   .     S
C1558  C1559   1.395   .     A
C1559  C1560   1.399   .     A
C1559  H1622   1.079   .     S
C1560  H1623   1.082   .     S
C1561  C1566   1.409   .     A
C1562  H1624   1.062   .     S
C1562  C1393   1.401   1_655 S
C1562  C1395   1.398   1_655 S
C1563  C1564   1.394   .     A
C1564  C1565   1.395   .     A
C1564  H1626   1.083   .     S
C1565  C1566   1.400   .     A
C1565  H1628   1.080   .     S
C1566  H1629   1.083   .     S
C1567  C1573   1.407   .     A
C1568  O1667   1.306   .     A
C1568  O1666   1.307   .     A
C1569  H1630   1.074   .     S
C1569  C1399   1.401   1_655 S
C1569  C1402   1.397   1_655 S
C1570  C1571   1.396   .     A
C1571  H1632   1.082   .     S
C1571  C1572   1.397   .     A
C1572  H1633   1.080   .     S
C1572  C1573   1.398   .     A
C1573  H1634   1.083   .     S
C1574  C1575   1.401   .     A
C1574  C1580   1.408   .     A
C1575  C1576   1.398   .     A
C1575  H1635   1.061   .     S
C1576  C1577   1.394   .     A
C1576  H1636   1.082   .     S
C1577  H1637   1.082   .     S
C1577  C1578   1.395   .     A
C1578  C1580   1.399   .     A
C1578  H1639   1.079   .     S
C1579  O1669   1.306   .     A
C1579  O1672   1.313   .     A
C1580  H1640   1.082   .     S
C1581  C1586   1.405   .     A
C1581  C1582   1.402   .     A
C1582  C1583   1.398   .     A
C1582  H1641   1.081   .     S
C1583  C1584   1.396   .     A
C1583  H1642   1.082   .     S
C1584  H1643   1.082   .     S
C1584  C1585   1.396   .     A
C1585  C1586   1.398   .     A
C1585  H1644   1.082   .     S
C1586  H1645   1.081   .     S
C1587  C1593   1.400   .     A
C1587  C1588   1.407   .     A
C1588  C1589   1.398   .     A
C1588  H1646   1.083   .     S
C1589  C1591   1.397   .     A
C1589  H1647   1.080   .     S
C1590  O1670   1.310   .     A
C1590  O1671   1.308   .     A
C1591  C1592   1.396   .     A
C1591  H1648   1.082   .     S
C1592  C1593   1.397   .     A
C1592  H1650   1.082   .     S
C1593  H1651   1.074   .     S
C1594  C1595   1.409   .     A
C1594  C1599   1.401   .     A
C1595  C1596   1.400   .     A
C1595  H1652   1.083   .     S
C1596  C1597   1.395   .     A
C1596  H1653   1.080   .     S
C1597  C1598   1.394   .     A
C1597  H1654   1.082   .     S
C1598  H1655   1.082   .     S
C1598  C1599   1.398   .     A
C1599  H1656   1.062   .     S
C1600  N1662   1.378   .     S
Cu1601 Cu1602  2.734   .     S
Cu1601 N1661   2.054   .     S
Cu1601 O1665   1.955   .     S
Cu1601 O1677   1.967   .     S
Cu1602 N1662   2.054   .     S
Cu1602 O1675   1.955   .     S
Cu1602 O1678   1.968   .     S
Cu1603 O1670   1.967   .     S
Cu1603 N1663   2.054   .     S
Cu1603 O1667   1.955   .     S
Cu1603 Cu1604  2.734   .     S
Cu1603 O2008   1.968   1_545 S
Cu1603 O2016   1.955   1_545 S
Cu1604 O1671   1.968   .     S
Cu1604 N1664   2.054   .     S
Cu1604 O1666   1.955   .     S
Cu1604 O2004   1.955   1_545 S
Cu1604 O2005   1.967   1_545 S
H1625  C1395   1.082   1_655 S
H1631  C1402   1.082   1_655 S
N1663  C1856   1.378   1_545 S
N1664  C1853   1.385   1_545 S
O1668  Cu1940  1.955   .     S
O1669  Cu1940  1.967   .     S
O1672  Cu1939  1.968   .     S
O1673  Cu1434  1.955   1_655 S
O1674  Cu1433  1.955   1_655 S
O1676  Cu1434  1.967   1_655 S
O1679  Cu1433  1.968   1_655 S
O1680  Cu1939  1.955   .     S
C1681  C1710   1.444   .     S
C1681  O1833   1.307   .     A
C1681  O1843   1.306   .     A
C1682  C1722   1.490   .     S
C1682  C507    1.426   1_556 S
C1682  N1997   1.385   .     S
C1683  C1729   1.492   .     S
C1683  C1178   1.426   1_455 S
C1683  N1830   1.378   .     S
C1684  N1829   1.381   .     A
C1684  C1735   1.481   .     S
C1684  C424    1.437   1_556 S
C1685  C1742   1.490   .     S
C1685  N1496   1.385   1_565 S
C1686  C1749   1.482   .     S
C1686  N1831   1.378   .     A
C1686  C343    1.437   1_556 S
C1687  C1755   1.481   .     S
C1687  N1832   1.382   .     A
C1688  C1762   1.492   .     S
C1688  C341    1.426   1_556 S
C1688  N1495   1.378   1_565 S
C1689  C1700   1.383   .     A
C1689  H1773   1.077   .     S
C1689  C1708   1.396   .     A
C1690  C1707   1.401   .     A
C1690  C1701   1.383   .     A
C1690  H1784   1.077   .     S
C1691  C1698   1.383   .     A
C1691  H1795   1.076   .     S
C1691  C1707   1.394   .     A
C1692  C1709   1.449   .     S
C1692  O1841   1.305   .     A
C1692  O1842   1.311   .     A
C1693  C1708   1.398   .     A
C1693  C1699   1.383   .     A
C1693  H1806   1.072   .     S
C1694  C1710   1.397   .     A
C1694  H1817   1.084   .     S
C1694  C1705   1.391   .     A
C1695  C1709   1.399   .     A
C1695  H1825   1.077   .     S
C1695  C1706   1.379   .     A
C1696  H1826   1.074   .     S
C1696  C1709   1.392   .     A
C1696  C1702   1.379   .     A
C1697  H1827   1.083   .     S
C1697  C1710   1.398   .     A
C1697  C1704   1.391   .     A
C1698  H1828   1.077   .     S
C1698  C1712   1.401   .     A
C1699  C1711   1.396   .     A
C1699  H1774   1.077   .     S
C1700  H1775   1.072   .     S
C1700  C1711   1.398   .     A
C1701  C1712   1.394   .     A
C1701  H1776   1.076   .     S
C1702  C1715   1.399   .     A
C1702  H1777   1.077   .     S
C1703  C1708   1.456   .     S
C1703  O1847   1.308   .     A
C1703  O1844   1.310   .     A
C1704  H1778   1.084   .     S
C1704  C1713   1.397   .     A
C1705  H1779   1.083   .     S
C1705  C1713   1.398   .     A
C1706  C1715   1.392   .     A
C1706  H1780   1.074   .     S
C1707  C1714   1.457   .     S
C1711  C1758   1.456   .     S
C1712  C1747   1.457   .     S
C1713  C1736   1.444   .     S
C1714  O1845   1.306   .     A
C1714  O1846   1.313   .     A
C1715  C1725   1.449   .     S
C1716  C1768   1.482   .     S
C1716  C1717   1.405   .     A
C1716  C1889   1.402   1_455 S
C1717  C1718   1.398   .     A
C1717  H1781   1.081   .     S
C1718  C1719   1.396   .     A
C1718  H1782   1.082   .     S
C1719  H1783   1.082   .     S
C1719  C1888   1.396   1_455 S
C1720  H1785   1.082   .     S
C1720  C1721   1.398   .     A
C1720  C1887   1.396   .     S
C1721  H1786   1.081   .     S
C1721  C1884   1.402   .     S
C1722  C1728   1.408   .     A
C1722  C1891   1.401   .     S
C1723  H1787   1.061   .     S
C1723  C1890   1.401   1_455 S
C1723  C1892   1.398   1_455 S
C1724  C1726   1.394   .     A
C1724  C1891   1.398   .     S
C1724  H1956   1.083   .     S
C1725  O1836   1.311   .     A
C1725  O1848   1.305   .     A
C1726  H1789   1.082   .     S
C1726  C1727   1.395   .     A
C1727  C1728   1.399   .     A
C1727  H1790   1.079   .     S
C1728  H1791   1.082   .     S
C1729  C1734   1.409   .     A
C1729  C1898   1.401   1_455 S
C1730  H1792   1.062   .     S
C1730  C1897   1.401   .     S
C1730  C1899   1.398   .     S
C1731  C1732   1.394   .     A
C1731  C1898   1.398   1_455 S
C1731  H1961   1.082   1_455 S
C1732  C1733   1.395   .     A
C1732  H1794   1.083   .     S
C1733  C1734   1.400   .     A
C1733  H1796   1.080   .     S
C1734  H1797   1.083   .     S
C1735  C1741   1.407   .     A
C1735  C1905   1.401   1_455 S
C1736  O1835   1.306   .     A
C1736  O1834   1.307   .     A
C1737  H1798   1.074   .     S
C1737  C1903   1.401   .     S
C1737  C1906   1.397   .     S
C1738  C1739   1.396   .     A
C1738  C1905   1.397   1_455 S
C1738  H1967   1.082   1_455 S
C1739  H1800   1.082   .     S
C1739  C1740   1.397   .     A
C1740  H1801   1.080   .     S
C1740  C1741   1.398   .     A
C1741  H1802   1.083   .     S
C1742  C1743   1.401   .     A
C1742  C1748   1.408   .     A
C1743  C1744   1.398   .     A
C1743  H1803   1.061   .     S
C1744  C1745   1.394   .     A
C1744  H1804   1.082   .     S
C1745  H1805   1.082   .     S
C1745  C1746   1.395   .     A
C1746  C1748   1.399   .     A
C1746  H1807   1.079   .     S
C1747  O1837   1.306   .     A
C1747  O1840   1.313   .     A
C1748  H1808   1.082   .     S
C1749  C1754   1.405   .     A
C1749  C1750   1.402   .     A
C1750  C1751   1.398   .     A
C1750  H1809   1.081   .     S
C1751  C1752   1.396   .     A
C1751  H1810   1.082   .     S
C1752  H1811   1.082   .     S
C1752  C1753   1.396   .     A
C1753  C1754   1.398   .     A
C1753  H1812   1.082   .     S
C1754  H1813   1.081   .     S
C1755  C1761   1.400   .     A
C1755  C1756   1.407   .     A
C1756  C1757   1.398   .     A
C1756  H1814   1.083   .     S
C1757  C1759   1.397   .     A
C1757  H1815   1.080   .     S
C1758  O1838   1.310   .     A
C1758  O1839   1.308   .     A
C1759  C1760   1.396   .     A
C1759  H1816   1.082   .     S
C1760  C1761   1.397   .     A
C1760  H1818   1.082   .     S
C1761  H1819   1.074   .     S
C1762  C1763   1.409   .     A
C1762  C1767   1.401   .     A
C1763  C1764   1.400   .     A
C1763  H1820   1.083   .     S
C1764  C1765   1.395   .     A
C1764  H1821   1.080   .     S
C1765  C1766   1.394   .     A
C1765  H1822   1.082   .     S
C1766  H1823   1.082   .     S
C1766  C1767   1.398   .     A
C1767  H1824   1.062   .     S
C1768  N1830   1.378   .     S
Cu1769 O2015   1.968   1_455 S
Cu1769 O2010   1.955   1_455 S
Cu1769 Cu1770  2.734   .     S
Cu1769 N1829   2.054   .     S
Cu1769 O1833   1.955   .     S
Cu1769 O1845   1.967   .     S
Cu1770 N1830   2.054   .     S
Cu1770 O2009   1.955   1_455 S
Cu1770 O2012   1.967   1_455 S
Cu1770 O1843   1.955   .     S
Cu1770 O1846   1.968   .     S
Cu1771 O1838   1.967   .     S
Cu1771 N1831   2.054   .     S
Cu1771 O1835   1.955   .     S
Cu1771 Cu1772  2.734   .     S
Cu1772 O1839   1.968   .     S
Cu1772 N1832   2.054   .     S
Cu1772 O1834   1.955   .     S
H1788  C1892   1.083   1_455 S
H1793  C1899   1.082   .     S
H1799  C1906   1.082   .     S
N1829  C1850   1.385   1_455 S
O1836  Cu1436  1.955   1_565 S
O1837  Cu1436  1.967   1_565 S
O1840  Cu1435  1.968   1_565 S
O1841  Cu1938  1.955   .     S
O1842  Cu1937  1.955   .     S
O1844  Cu1938  1.967   .     S
O1847  Cu1937  1.968   .     S
O1848  Cu1435  1.955   1_565 S
C1849  C1878   1.444   .     S
C1849  O2001   1.307   .     A
C1849  O2011   1.306   .     A
C1850  C1890   1.490   .     S
C1850  C339    1.426   1_656 S
C1850  N1829   1.385   1_655 S
C1851  C1897   1.492   .     S
C1851  N1998   1.378   .     S
C1852  N1997   1.381   .     A
C1852  C1903   1.481   .     S
C1852  C592    1.437   1_556 S
C1853  C1910   1.490   .     S
C1853  N1664   1.385   1_565 S
C1854  C1917   1.482   .     S
C1854  N1999   1.378   .     A
C1854  C511    1.437   1_556 S
C1855  C1923   1.481   .     S
C1855  N2000   1.382   .     A
C1856  C1930   1.492   .     S
C1856  C509    1.426   1_556 S
C1856  N1663   1.378   1_565 S
C1857  C1868   1.383   .     A
C1857  H1941   1.077   .     S
C1857  C1876   1.396   .     A
C1858  C1875   1.401   .     A
C1858  C1869   1.383   .     A
C1858  H1952   1.077   .     S
C1859  C1866   1.383   .     A
C1859  H1963   1.076   .     S
C1859  C1875   1.394   .     A
C1860  C1877   1.449   .     S
C1860  O2009   1.305   .     A
C1860  O2010   1.311   .     A
C1861  C1876   1.398   .     A
C1861  C1867   1.383   .     A
C1861  H1974   1.072   .     S
C1862  C1878   1.397   .     A
C1862  H1985   1.084   .     S
C1862  C1873   1.391   .     A
C1863  C1877   1.399   .     A
C1863  H1993   1.077   .     S
C1863  C1874   1.379   .     A
C1864  H1994   1.074   .     S
C1864  C1877   1.392   .     A
C1864  C1870   1.379   .     A
C1865  H1995   1.083   .     S
C1865  C1878   1.398   .     A
C1865  C1872   1.391   .     A
C1866  H1996   1.077   .     S
C1866  C1880   1.401   .     A
C1867  C1879   1.396   .     A
C1867  H1942   1.077   .     S
C1868  H1943   1.072   .     S
C1868  C1879   1.398   .     A
C1869  C1880   1.394   .     A
C1869  H1944   1.076   .     S
C1870  C1883   1.399   .     A
C1870  H1945   1.077   .     S
C1871  C1876   1.456   .     S
C1871  O2015   1.308   .     A
C1871  O2012   1.310   .     A
C1872  H1946   1.084   .     S
C1872  C1881   1.397   .     A
C1873  H1947   1.083   .     S
C1873  C1881   1.398   .     A
C1874  C1883   1.392   .     A
C1874  H1948   1.074   .     S
C1875  C1882   1.457   .     S
C1879  C1926   1.456   .     S
C1880  C1915   1.457   .     S
C1881  C1904   1.444   .     S
C1882  O2013   1.306   .     A
C1882  O2014   1.313   .     A
C1883  C1893   1.449   .     S
C1884  C1936   1.482   .     S
C1884  C1885   1.405   .     A
C1885  C1886   1.398   .     A
C1885  H1949   1.081   .     S
C1886  C1887   1.396   .     A
C1886  H1950   1.082   .     S
C1887  H1951   1.082   .     S
C1888  H1953   1.082   .     S
C1888  C1889   1.398   .     A
C1888  C1719   1.396   1_655 S
C1889  H1954   1.081   .     S
C1889  C1716   1.402   1_655 S
C1890  C1896   1.408   .     A
C1890  C1723   1.401   1_655 S
C1891  H1955   1.061   .     S
C1892  C1894   1.394   .     A
C1892  C1723   1.398   1_655 S
C1892  H1788   1.083   1_655 S
C1893  O2004   1.311   .     A
C1893  O2016   1.305   .     A
C1894  H1957   1.082   .     S
C1894  C1895   1.395   .     A
C1895  C1896   1.399   .     A
C1895  H1958   1.079   .     S
C1896  H1959   1.082   .     S
C1897  C1902   1.409   .     A
C1898  H1960   1.062   .     S
C1898  C1729   1.401   1_655 S
C1898  C1731   1.398   1_655 S
C1899  C1900   1.394   .     A
C1900  C1901   1.395   .     A
C1900  H1962   1.083   .     S
C1901  C1902   1.400   .     A
C1901  H1964   1.080   .     S
C1902  H1965   1.083   .     S
C1903  C1909   1.407   .     A
C1904  O2003   1.306   .     A
C1904  O2002   1.307   .     A
C1905  H1966   1.074   .     S
C1905  C1735   1.401   1_655 S
C1905  C1738   1.397   1_655 S
C1906  C1907   1.396   .     A
C1907  H1968   1.082   .     S
C1907  C1908   1.397   .     A
C1908  H1969   1.080   .     S
C1908  C1909   1.398   .     A
C1909  H1970   1.083   .     S
C1910  C1911   1.401   .     A
C1910  C1916   1.408   .     A
C1911  C1912   1.398   .     A
C1911  H1971   1.061   .     S
C1912  C1913   1.394   .     A
C1912  H1972   1.082   .     S
C1913  H1973   1.082   .     S
C1913  C1914   1.395   .     A
C1914  C1916   1.399   .     A
C1914  H1975   1.079   .     S
C1915  O2005   1.306   .     A
C1915  O2008   1.313   .     A
C1916  H1976   1.082   .     S
C1917  C1922   1.405   .     A
C1917  C1918   1.402   .     A
C1918  C1919   1.398   .     A
C1918  H1977   1.081   .     S
C1919  C1920   1.396   .     A
C1919  H1978   1.082   .     S
C1920  H1979   1.082   .     S
C1920  C1921   1.396   .     A
C1921  C1922   1.398   .     A
C1921  H1980   1.082   .     S
C1922  H1981   1.081   .     S
C1923  C1929   1.400   .     A
C1923  C1924   1.407   .     A
C1924  C1925   1.398   .     A
C1924  H1982   1.083   .     S
C1925  C1927   1.397   .     A
C1925  H1983   1.080   .     S
C1926  O2006   1.310   .     A
C1926  O2007   1.308   .     A
C1927  C1928   1.396   .     A
C1927  H1984   1.082   .     S
C1928  C1929   1.397   .     A
C1928  H1986   1.082   .     S
C1929  H1987   1.074   .     S
C1930  C1931   1.409   .     A
C1930  C1935   1.401   .     A
C1931  C1932   1.400   .     A
C1931  H1988   1.083   .     S
C1932  C1933   1.395   .     A
C1932  H1989   1.080   .     S
C1933  C1934   1.394   .     A
C1933  H1990   1.082   .     S
C1934  H1991   1.082   .     S
C1934  C1935   1.398   .     A
C1935  H1992   1.062   .     S
C1936  N1998   1.378   .     S
Cu1937 Cu1938  2.734   .     S
Cu1937 N1997   2.054   .     S
Cu1937 O2001   1.955   .     S
Cu1937 O2013   1.967   .     S
Cu1938 N1998   2.054   .     S
Cu1938 O2011   1.955   .     S
Cu1938 O2014   1.968   .     S
Cu1939 O2006   1.967   .     S
Cu1939 N1999   2.054   .     S
Cu1939 O2003   1.955   .     S
Cu1939 Cu1940  2.734   .     S
Cu1940 O2007   1.968   .     S
Cu1940 N2000   2.054   .     S
Cu1940 O2002   1.955   .     S
H1961  C1731   1.082   1_655 S
H1967  C1738   1.082   1_655 S
O2004  Cu1604  1.955   1_565 S
O2005  Cu1604  1.967   1_565 S
O2008  Cu1603  1.968   1_565 S
O2009  Cu1770  1.955   1_655 S
O2010  Cu1769  1.955   1_655 S
O2012  Cu1770  1.967   1_655 S
O2015  Cu1769  1.968   1_655 S
O2016  Cu1603  1.955   1_565 S
