data_str_m3_o1_o17_pcu_sym.192
_audit_creation_date              2020-01-03
_audit_creation_method            'Materials Studio'
_symmetry_space_group_name_H-M    'P1'
_symmetry_Int_Tables_number       1
_symmetry_cell_setting            triclinic
loop_
_symmetry_equiv_pos_as_xyz
  x,y,z
_cell_length_a                    32.1542
_cell_length_b                    29.4890
_cell_length_c                    30.0090
_cell_angle_alpha                 90.2976
_cell_angle_beta                  90.1408
_cell_angle_gamma                 90.0281
loop_
_atom_site_label
_atom_site_type_symbol
_atom_site_fract_x
_atom_site_fract_y
_atom_site_fract_z
_atom_site_U_iso_or_equiv
_atom_site_adp_type
_atom_site_occupancy
C1     C     0.08661   0.16666   0.24997   0.00000  Uiso   1.00
C2     C     0.24672   0.16667   0.25003   0.00000  Uiso   1.00
C3     C     0.13116   0.23916   0.02497   0.00000  Uiso   1.00
C4     C     0.20218   0.09417   0.47503   0.00000  Uiso   1.00
C5     C     0.02130   0.12619   0.25819   0.00000  Uiso   1.00
C6     C     0.31203   0.20715   0.24181   0.00000  Uiso   1.00
C7     C     0.31203   0.12620   0.25824   0.00000  Uiso   1.00
C8     C     0.02130   0.20714   0.24176   0.00000  Uiso   1.00
C9     C     0.29086   0.16668   0.25004   0.00000  Uiso   1.00
C10    C     0.04247   0.16665   0.24996   0.00000  Uiso   1.00
C11    C     0.19253   0.02416   0.27775   0.00000  Uiso   1.00
C12    C     0.14080   0.30917   0.22225   0.00000  Uiso   1.00
C13    C     0.14081   0.02384   0.22225   0.00000  Uiso   1.00
C14    C     0.19253   0.30950   0.27775   0.00000  Uiso   1.00
C15    C     0.16740   0.16652   0.16336   0.00000  Uiso   1.00
C16    C     0.16593   0.16681   0.33663   0.00000  Uiso   1.00
C17    C     0.18361   0.13130   0.40688   0.00000  Uiso   1.00
C18    C     0.14972   0.20203   0.09312   0.00000  Uiso   1.00
C19    C     0.16478   0.16712   0.38449   0.00000  Uiso   1.00
C20    C     0.16855   0.16622   0.11551   0.00000  Uiso   1.00
C21    C     0.14429   0.20217   0.40743   0.00000  Uiso   1.00
C22    C     0.18904   0.13116   0.09257   0.00000  Uiso   1.00
C23    C     0.14609   0.20303   0.45418   0.00000  Uiso   1.00
C24    C     0.18725   0.13030   0.04582   0.00000  Uiso   1.00
C25    C     0.16577   0.16672   0.47674   0.00000  Uiso   1.00
C26    C     0.16757   0.16661   0.02326   0.00000  Uiso   1.00
C27    C     0.18382   0.13053   0.45282   0.00000  Uiso   1.00
C28    C     0.14951   0.20280   0.04718   0.00000  Uiso   1.00
C29    C     0.12982   0.23960   0.47881   0.00000  Uiso   1.00
C30    C     0.20351   0.09374   0.02119   0.00000  Uiso   1.00
H31    H     0.19858   0.10414   0.38838   0.00000  Uiso   1.00
H32    H     0.13475   0.22919   0.11162   0.00000  Uiso   1.00
H33    H     0.11646   0.26907   0.46298   0.00000  Uiso   1.00
H34    H     0.21687   0.06427   0.03702   0.00000  Uiso   1.00
H35    H     0.11793   0.26742   0.04333   0.00000  Uiso   1.00
H36    H     0.21540   0.06591   0.45667   0.00000  Uiso   1.00
H37    H     0.03752   0.09473   0.26484   0.00000  Uiso   1.00
H38    H     0.29581   0.23861   0.23516   0.00000  Uiso   1.00
H39    H     0.29581   0.09475   0.26493   0.00000  Uiso   1.00
H40    H     0.03752   0.23859   0.23507   0.00000  Uiso   1.00
H41    H     0.21319   0.04250   0.29992   0.00000  Uiso   1.00
H42    H     0.12014   0.29083   0.20008   0.00000  Uiso   1.00
H43    H     0.12015   0.04192   0.20008   0.00000  Uiso   1.00
H44    H     0.21319   0.29141   0.29992   0.00000  Uiso   1.00
N45    N     0.16667   0.28573   0.25000   0.00000  Uiso   1.00
N46    N     0.16667   0.04760   0.25000   0.00000  Uiso   1.00
O47    O     0.10559   0.20487   0.24999   0.00000  Uiso   1.00
O48    O     0.22774   0.12846   0.25000   0.00000  Uiso   1.00
O49    O     0.22774   0.20487   0.25000   0.00000  Uiso   1.00
O50    O     0.10559   0.12846   0.24999   0.00000  Uiso   1.00
O51    O     0.16666   0.20489   0.18392   0.00000  Uiso   1.00
O52    O     0.16667   0.12844   0.31607   0.00000  Uiso   1.00
O53    O     0.16667   0.20489   0.31607   0.00000  Uiso   1.00
O54    O     0.16666   0.12844   0.18392   0.00000  Uiso   1.00
Zn55   Zn    0.16667   0.21771   0.25000   0.00000  Uiso   1.00
Zn56   Zn    0.16667   0.11563   0.25000   0.00000  Uiso   1.00
O57    O     0.12260   0.23428   0.38334   0.00000  Uiso   1.00
H58    H     0.09672   0.24173   0.39959   0.00000  Uiso   1.00
O59    O     0.21073   0.09906   0.11666   0.00000  Uiso   1.00
H60    H     0.23662   0.09160   0.10041   0.00000  Uiso   1.00
C61    C     0.41995   0.16666   0.24997   0.00000  Uiso   1.00
C62    C     0.58005   0.16667   0.25003   0.00000  Uiso   1.00
C63    C     0.46449   0.23916   0.02497   0.00000  Uiso   1.00
C64    C     0.53551   0.09417   0.47503   0.00000  Uiso   1.00
C65    C     0.35463   0.12619   0.25819   0.00000  Uiso   1.00
C66    C     0.64537   0.20715   0.24181   0.00000  Uiso   1.00
C67    C     0.64537   0.12620   0.25824   0.00000  Uiso   1.00
C68    C     0.35463   0.20714   0.24176   0.00000  Uiso   1.00
C69    C     0.62419   0.16668   0.25004   0.00000  Uiso   1.00
C70    C     0.37580   0.16665   0.24996   0.00000  Uiso   1.00
C71    C     0.52586   0.02416   0.27775   0.00000  Uiso   1.00
C72    C     0.47414   0.30917   0.22225   0.00000  Uiso   1.00
C73    C     0.47414   0.02384   0.22225   0.00000  Uiso   1.00
C74    C     0.52586   0.30950   0.27775   0.00000  Uiso   1.00
C75    C     0.50073   0.16652   0.16336   0.00000  Uiso   1.00
C76    C     0.49927   0.16681   0.33663   0.00000  Uiso   1.00
C77    C     0.51695   0.13130   0.40688   0.00000  Uiso   1.00
C78    C     0.48305   0.20203   0.09312   0.00000  Uiso   1.00
C79    C     0.49811   0.16712   0.38449   0.00000  Uiso   1.00
C80    C     0.50189   0.16622   0.11551   0.00000  Uiso   1.00
C81    C     0.47763   0.20217   0.40743   0.00000  Uiso   1.00
C82    C     0.52237   0.13116   0.09257   0.00000  Uiso   1.00
C83    C     0.47942   0.20303   0.45418   0.00000  Uiso   1.00
C84    C     0.52058   0.13030   0.04582   0.00000  Uiso   1.00
C85    C     0.49910   0.16672   0.47674   0.00000  Uiso   1.00
C86    C     0.50090   0.16661   0.02326   0.00000  Uiso   1.00
C87    C     0.51715   0.13053   0.45282   0.00000  Uiso   1.00
C88    C     0.48285   0.20280   0.04718   0.00000  Uiso   1.00
C89    C     0.46315   0.23960   0.47881   0.00000  Uiso   1.00
C90    C     0.53685   0.09374   0.02119   0.00000  Uiso   1.00
H91    H     0.53192   0.10414   0.38838   0.00000  Uiso   1.00
H92    H     0.46808   0.22919   0.11162   0.00000  Uiso   1.00
H93    H     0.44979   0.26907   0.46298   0.00000  Uiso   1.00
H94    H     0.55021   0.06427   0.03702   0.00000  Uiso   1.00
H95    H     0.45127   0.26742   0.04333   0.00000  Uiso   1.00
H96    H     0.54873   0.06591   0.45667   0.00000  Uiso   1.00
H97    H     0.37085   0.09473   0.26484   0.00000  Uiso   1.00
H98    H     0.62914   0.23861   0.23516   0.00000  Uiso   1.00
H99    H     0.62914   0.09475   0.26493   0.00000  Uiso   1.00
H100   H     0.37085   0.23859   0.23507   0.00000  Uiso   1.00
H101   H     0.54652   0.04250   0.29992   0.00000  Uiso   1.00
H102   H     0.45347   0.29083   0.20008   0.00000  Uiso   1.00
H103   H     0.45348   0.04192   0.20008   0.00000  Uiso   1.00
H104   H     0.54652   0.29141   0.29992   0.00000  Uiso   1.00
N105   N     0.50000   0.28573   0.25000   0.00000  Uiso   1.00
N106   N     0.50000   0.04760   0.25000   0.00000  Uiso   1.00
O107   O     0.43892   0.20487   0.24999   0.00000  Uiso   1.00
O108   O     0.56108   0.12846   0.25000   0.00000  Uiso   1.00
O109   O     0.56108   0.20487   0.25000   0.00000  Uiso   1.00
O110   O     0.43892   0.12846   0.24999   0.00000  Uiso   1.00
O111   O     0.49999   0.20489   0.18392   0.00000  Uiso   1.00
O112   O     0.50001   0.12844   0.31607   0.00000  Uiso   1.00
O113   O     0.50001   0.20489   0.31607   0.00000  Uiso   1.00
O114   O     0.49999   0.12844   0.18392   0.00000  Uiso   1.00
Zn115  Zn    0.50000   0.21771   0.25000   0.00000  Uiso   1.00
Zn116  Zn    0.50000   0.11563   0.25000   0.00000  Uiso   1.00
O117   O     0.45593   0.23428   0.38334   0.00000  Uiso   1.00
H118   H     0.43005   0.24173   0.39959   0.00000  Uiso   1.00
O119   O     0.54407   0.09906   0.11666   0.00000  Uiso   1.00
H120   H     0.56995   0.09160   0.10041   0.00000  Uiso   1.00
C121   C     0.75328   0.16666   0.24997   0.00000  Uiso   1.00
C122   C     0.91339   0.16667   0.25003   0.00000  Uiso   1.00
C123   C     0.79782   0.23916   0.02497   0.00000  Uiso   1.00
C124   C     0.86884   0.09417   0.47503   0.00000  Uiso   1.00
C125   C     0.68797   0.12619   0.25819   0.00000  Uiso   1.00
C126   C     0.97870   0.20715   0.24181   0.00000  Uiso   1.00
C127   C     0.97870   0.12620   0.25824   0.00000  Uiso   1.00
C128   C     0.68797   0.20714   0.24176   0.00000  Uiso   1.00
C129   C     0.95753   0.16668   0.25004   0.00000  Uiso   1.00
C130   C     0.70914   0.16665   0.24996   0.00000  Uiso   1.00
C131   C     0.85919   0.02416   0.27775   0.00000  Uiso   1.00
C132   C     0.80747   0.30917   0.22225   0.00000  Uiso   1.00
C133   C     0.80747   0.02384   0.22225   0.00000  Uiso   1.00
C134   C     0.85919   0.30950   0.27775   0.00000  Uiso   1.00
C135   C     0.83407   0.16652   0.16336   0.00000  Uiso   1.00
C136   C     0.83260   0.16681   0.33663   0.00000  Uiso   1.00
C137   C     0.85028   0.13130   0.40688   0.00000  Uiso   1.00
C138   C     0.81639   0.20203   0.09312   0.00000  Uiso   1.00
C139   C     0.83145   0.16712   0.38449   0.00000  Uiso   1.00
C140   C     0.83522   0.16622   0.11551   0.00000  Uiso   1.00
C141   C     0.81096   0.20217   0.40743   0.00000  Uiso   1.00
C142   C     0.85571   0.13116   0.09257   0.00000  Uiso   1.00
C143   C     0.81275   0.20303   0.45418   0.00000  Uiso   1.00
C144   C     0.85391   0.13030   0.04582   0.00000  Uiso   1.00
C145   C     0.83243   0.16672   0.47674   0.00000  Uiso   1.00
C146   C     0.83423   0.16661   0.02326   0.00000  Uiso   1.00
C147   C     0.85049   0.13053   0.45282   0.00000  Uiso   1.00
C148   C     0.81618   0.20280   0.04718   0.00000  Uiso   1.00
C149   C     0.79649   0.23960   0.47881   0.00000  Uiso   1.00
C150   C     0.87018   0.09374   0.02119   0.00000  Uiso   1.00
H151   H     0.86525   0.10414   0.38838   0.00000  Uiso   1.00
H152   H     0.80142   0.22919   0.11162   0.00000  Uiso   1.00
H153   H     0.78313   0.26907   0.46298   0.00000  Uiso   1.00
H154   H     0.88354   0.06427   0.03702   0.00000  Uiso   1.00
H155   H     0.78460   0.26742   0.04333   0.00000  Uiso   1.00
H156   H     0.88207   0.06591   0.45667   0.00000  Uiso   1.00
H157   H     0.70419   0.09473   0.26484   0.00000  Uiso   1.00
H158   H     0.96248   0.23861   0.23516   0.00000  Uiso   1.00
H159   H     0.96248   0.09475   0.26493   0.00000  Uiso   1.00
H160   H     0.70419   0.23859   0.23507   0.00000  Uiso   1.00
H161   H     0.87986   0.04250   0.29992   0.00000  Uiso   1.00
H162   H     0.78681   0.29083   0.20008   0.00000  Uiso   1.00
H163   H     0.78681   0.04192   0.20008   0.00000  Uiso   1.00
H164   H     0.87985   0.29141   0.29992   0.00000  Uiso   1.00
N165   N     0.83333   0.28573   0.25000   0.00000  Uiso   1.00
N166   N     0.83333   0.04760   0.25000   0.00000  Uiso   1.00
O167   O     0.77226   0.20487   0.24999   0.00000  Uiso   1.00
O168   O     0.89441   0.12846   0.25000   0.00000  Uiso   1.00
O169   O     0.89441   0.20487   0.25000   0.00000  Uiso   1.00
O170   O     0.77226   0.12846   0.24999   0.00000  Uiso   1.00
O171   O     0.83333   0.20489   0.18392   0.00000  Uiso   1.00
O172   O     0.83334   0.12844   0.31607   0.00000  Uiso   1.00
O173   O     0.83334   0.20489   0.31607   0.00000  Uiso   1.00
O174   O     0.83333   0.12844   0.18392   0.00000  Uiso   1.00
Zn175  Zn    0.83333   0.21771   0.25000   0.00000  Uiso   1.00
Zn176  Zn    0.83333   0.11563   0.25000   0.00000  Uiso   1.00
O177   O     0.78927   0.23428   0.38334   0.00000  Uiso   1.00
H178   H     0.76338   0.24173   0.39959   0.00000  Uiso   1.00
O179   O     0.87740   0.09906   0.11666   0.00000  Uiso   1.00
H180   H     0.90328   0.09160   0.10041   0.00000  Uiso   1.00
C181   C     0.08661   0.49999   0.24997   0.00000  Uiso   1.00
C182   C     0.24672   0.50001   0.25003   0.00000  Uiso   1.00
C183   C     0.13116   0.57250   0.02497   0.00000  Uiso   1.00
C184   C     0.20218   0.42750   0.47503   0.00000  Uiso   1.00
C185   C     0.02130   0.45952   0.25819   0.00000  Uiso   1.00
C186   C     0.31203   0.54048   0.24181   0.00000  Uiso   1.00
C187   C     0.31203   0.45953   0.25824   0.00000  Uiso   1.00
C188   C     0.02130   0.54047   0.24176   0.00000  Uiso   1.00
C189   C     0.29086   0.50001   0.25004   0.00000  Uiso   1.00
C190   C     0.04247   0.49999   0.24996   0.00000  Uiso   1.00
C191   C     0.19253   0.35749   0.27775   0.00000  Uiso   1.00
C192   C     0.14080   0.64251   0.22225   0.00000  Uiso   1.00
C193   C     0.14081   0.35717   0.22225   0.00000  Uiso   1.00
C194   C     0.19253   0.64283   0.27775   0.00000  Uiso   1.00
C195   C     0.16740   0.49986   0.16336   0.00000  Uiso   1.00
C196   C     0.16593   0.50014   0.33663   0.00000  Uiso   1.00
C197   C     0.18361   0.46464   0.40688   0.00000  Uiso   1.00
C198   C     0.14972   0.53536   0.09312   0.00000  Uiso   1.00
C199   C     0.16478   0.50045   0.38449   0.00000  Uiso   1.00
C200   C     0.16855   0.49955   0.11551   0.00000  Uiso   1.00
C201   C     0.14429   0.53550   0.40743   0.00000  Uiso   1.00
C202   C     0.18904   0.46450   0.09257   0.00000  Uiso   1.00
C203   C     0.14609   0.53636   0.45418   0.00000  Uiso   1.00
C204   C     0.18725   0.46364   0.04582   0.00000  Uiso   1.00
C205   C     0.16577   0.50006   0.47674   0.00000  Uiso   1.00
C206   C     0.16757   0.49994   0.02326   0.00000  Uiso   1.00
C207   C     0.18382   0.46387   0.45282   0.00000  Uiso   1.00
C208   C     0.14951   0.53613   0.04718   0.00000  Uiso   1.00
C209   C     0.12982   0.57293   0.47881   0.00000  Uiso   1.00
C210   C     0.20351   0.42707   0.02119   0.00000  Uiso   1.00
H211   H     0.19858   0.43747   0.38838   0.00000  Uiso   1.00
H212   H     0.13475   0.56253   0.11162   0.00000  Uiso   1.00
H213   H     0.11646   0.60240   0.46298   0.00000  Uiso   1.00
H214   H     0.21687   0.39760   0.03702   0.00000  Uiso   1.00
H215   H     0.11793   0.60075   0.04333   0.00000  Uiso   1.00
H216   H     0.21540   0.39925   0.45667   0.00000  Uiso   1.00
H217   H     0.03752   0.42806   0.26484   0.00000  Uiso   1.00
H218   H     0.29581   0.57194   0.23516   0.00000  Uiso   1.00
H219   H     0.29581   0.42808   0.26493   0.00000  Uiso   1.00
H220   H     0.03752   0.57192   0.23507   0.00000  Uiso   1.00
H221   H     0.21319   0.37584   0.29992   0.00000  Uiso   1.00
H222   H     0.12014   0.62416   0.20008   0.00000  Uiso   1.00
H223   H     0.12015   0.37526   0.20008   0.00000  Uiso   1.00
H224   H     0.21319   0.62474   0.29992   0.00000  Uiso   1.00
N225   N     0.16667   0.61907   0.25000   0.00000  Uiso   1.00
N226   N     0.16667   0.38093   0.25000   0.00000  Uiso   1.00
O227   O     0.10559   0.53821   0.24999   0.00000  Uiso   1.00
O228   O     0.22774   0.46179   0.25000   0.00000  Uiso   1.00
O229   O     0.22774   0.53821   0.25000   0.00000  Uiso   1.00
O230   O     0.10559   0.46179   0.24999   0.00000  Uiso   1.00
O231   O     0.16666   0.53823   0.18392   0.00000  Uiso   1.00
O232   O     0.16667   0.46177   0.31607   0.00000  Uiso   1.00
O233   O     0.16667   0.53823   0.31607   0.00000  Uiso   1.00
O234   O     0.16666   0.46177   0.18392   0.00000  Uiso   1.00
Zn235  Zn    0.16667   0.55104   0.25000   0.00000  Uiso   1.00
Zn236  Zn    0.16667   0.44896   0.25000   0.00000  Uiso   1.00
O237   O     0.12260   0.56761   0.38334   0.00000  Uiso   1.00
H238   H     0.09672   0.57507   0.39959   0.00000  Uiso   1.00
O239   O     0.21073   0.43239   0.11666   0.00000  Uiso   1.00
H240   H     0.23662   0.42493   0.10041   0.00000  Uiso   1.00
C241   C     0.41995   0.49999   0.24997   0.00000  Uiso   1.00
C242   C     0.58005   0.50001   0.25003   0.00000  Uiso   1.00
C243   C     0.46449   0.57250   0.02497   0.00000  Uiso   1.00
C244   C     0.53551   0.42750   0.47503   0.00000  Uiso   1.00
C245   C     0.35463   0.45952   0.25819   0.00000  Uiso   1.00
C246   C     0.64537   0.54048   0.24181   0.00000  Uiso   1.00
C247   C     0.64537   0.45953   0.25824   0.00000  Uiso   1.00
C248   C     0.35463   0.54047   0.24176   0.00000  Uiso   1.00
C249   C     0.62419   0.50001   0.25004   0.00000  Uiso   1.00
C250   C     0.37580   0.49999   0.24996   0.00000  Uiso   1.00
C251   C     0.52586   0.35749   0.27775   0.00000  Uiso   1.00
C252   C     0.47414   0.64251   0.22225   0.00000  Uiso   1.00
C253   C     0.47414   0.35717   0.22225   0.00000  Uiso   1.00
C254   C     0.52586   0.64283   0.27775   0.00000  Uiso   1.00
C255   C     0.50073   0.49986   0.16336   0.00000  Uiso   1.00
C256   C     0.49927   0.50014   0.33663   0.00000  Uiso   1.00
C257   C     0.51695   0.46464   0.40688   0.00000  Uiso   1.00
C258   C     0.48305   0.53536   0.09312   0.00000  Uiso   1.00
C259   C     0.49811   0.50045   0.38449   0.00000  Uiso   1.00
C260   C     0.50189   0.49955   0.11551   0.00000  Uiso   1.00
C261   C     0.47763   0.53550   0.40743   0.00000  Uiso   1.00
C262   C     0.52237   0.46450   0.09257   0.00000  Uiso   1.00
C263   C     0.47942   0.53636   0.45418   0.00000  Uiso   1.00
C264   C     0.52058   0.46364   0.04582   0.00000  Uiso   1.00
C265   C     0.49910   0.50006   0.47674   0.00000  Uiso   1.00
C266   C     0.50090   0.49994   0.02326   0.00000  Uiso   1.00
C267   C     0.51715   0.46387   0.45282   0.00000  Uiso   1.00
C268   C     0.48285   0.53613   0.04718   0.00000  Uiso   1.00
C269   C     0.46315   0.57293   0.47881   0.00000  Uiso   1.00
C270   C     0.53685   0.42707   0.02119   0.00000  Uiso   1.00
H271   H     0.53192   0.43747   0.38838   0.00000  Uiso   1.00
H272   H     0.46808   0.56253   0.11162   0.00000  Uiso   1.00
H273   H     0.44979   0.60240   0.46298   0.00000  Uiso   1.00
H274   H     0.55021   0.39760   0.03702   0.00000  Uiso   1.00
H275   H     0.45127   0.60075   0.04333   0.00000  Uiso   1.00
H276   H     0.54873   0.39925   0.45667   0.00000  Uiso   1.00
H277   H     0.37085   0.42806   0.26484   0.00000  Uiso   1.00
H278   H     0.62914   0.57194   0.23516   0.00000  Uiso   1.00
H279   H     0.62914   0.42808   0.26493   0.00000  Uiso   1.00
H280   H     0.37085   0.57192   0.23507   0.00000  Uiso   1.00
H281   H     0.54652   0.37584   0.29992   0.00000  Uiso   1.00
H282   H     0.45347   0.62416   0.20008   0.00000  Uiso   1.00
H283   H     0.45348   0.37526   0.20008   0.00000  Uiso   1.00
H284   H     0.54652   0.62474   0.29992   0.00000  Uiso   1.00
N285   N     0.50000   0.61907   0.25000   0.00000  Uiso   1.00
N286   N     0.50000   0.38093   0.25000   0.00000  Uiso   1.00
O287   O     0.43892   0.53821   0.24999   0.00000  Uiso   1.00
O288   O     0.56108   0.46179   0.25000   0.00000  Uiso   1.00
O289   O     0.56108   0.53821   0.25000   0.00000  Uiso   1.00
O290   O     0.43892   0.46179   0.24999   0.00000  Uiso   1.00
O291   O     0.49999   0.53823   0.18392   0.00000  Uiso   1.00
O292   O     0.50001   0.46177   0.31607   0.00000  Uiso   1.00
O293   O     0.50001   0.53823   0.31607   0.00000  Uiso   1.00
O294   O     0.49999   0.46177   0.18392   0.00000  Uiso   1.00
Zn295  Zn    0.50000   0.55104   0.25000   0.00000  Uiso   1.00
Zn296  Zn    0.50000   0.44896   0.25000   0.00000  Uiso   1.00
O297   O     0.45593   0.56761   0.38334   0.00000  Uiso   1.00
H298   H     0.43005   0.57507   0.39959   0.00000  Uiso   1.00
O299   O     0.54407   0.43239   0.11666   0.00000  Uiso   1.00
H300   H     0.56995   0.42493   0.10041   0.00000  Uiso   1.00
C301   C     0.75328   0.49999   0.24997   0.00000  Uiso   1.00
C302   C     0.91339   0.50001   0.25003   0.00000  Uiso   1.00
C303   C     0.79782   0.57250   0.02497   0.00000  Uiso   1.00
C304   C     0.86884   0.42750   0.47503   0.00000  Uiso   1.00
C305   C     0.68797   0.45952   0.25819   0.00000  Uiso   1.00
C306   C     0.97870   0.54048   0.24181   0.00000  Uiso   1.00
C307   C     0.97870   0.45953   0.25824   0.00000  Uiso   1.00
C308   C     0.68797   0.54047   0.24176   0.00000  Uiso   1.00
C309   C     0.95753   0.50001   0.25004   0.00000  Uiso   1.00
C310   C     0.70914   0.49999   0.24996   0.00000  Uiso   1.00
C311   C     0.85919   0.35749   0.27775   0.00000  Uiso   1.00
C312   C     0.80747   0.64251   0.22225   0.00000  Uiso   1.00
C313   C     0.80747   0.35717   0.22225   0.00000  Uiso   1.00
C314   C     0.85919   0.64283   0.27775   0.00000  Uiso   1.00
C315   C     0.83407   0.49986   0.16336   0.00000  Uiso   1.00
C316   C     0.83260   0.50014   0.33663   0.00000  Uiso   1.00
C317   C     0.85028   0.46464   0.40688   0.00000  Uiso   1.00
C318   C     0.81639   0.53536   0.09312   0.00000  Uiso   1.00
C319   C     0.83145   0.50045   0.38449   0.00000  Uiso   1.00
C320   C     0.83522   0.49955   0.11551   0.00000  Uiso   1.00
C321   C     0.81096   0.53550   0.40743   0.00000  Uiso   1.00
C322   C     0.85571   0.46450   0.09257   0.00000  Uiso   1.00
C323   C     0.81275   0.53636   0.45418   0.00000  Uiso   1.00
C324   C     0.85391   0.46364   0.04582   0.00000  Uiso   1.00
C325   C     0.83243   0.50006   0.47674   0.00000  Uiso   1.00
C326   C     0.83423   0.49994   0.02326   0.00000  Uiso   1.00
C327   C     0.85049   0.46387   0.45282   0.00000  Uiso   1.00
C328   C     0.81618   0.53613   0.04718   0.00000  Uiso   1.00
C329   C     0.79649   0.57293   0.47881   0.00000  Uiso   1.00
C330   C     0.87018   0.42707   0.02119   0.00000  Uiso   1.00
H331   H     0.86525   0.43747   0.38838   0.00000  Uiso   1.00
H332   H     0.80142   0.56253   0.11162   0.00000  Uiso   1.00
H333   H     0.78313   0.60240   0.46298   0.00000  Uiso   1.00
H334   H     0.88354   0.39760   0.03702   0.00000  Uiso   1.00
H335   H     0.78460   0.60075   0.04333   0.00000  Uiso   1.00
H336   H     0.88207   0.39925   0.45667   0.00000  Uiso   1.00
H337   H     0.70419   0.42806   0.26484   0.00000  Uiso   1.00
H338   H     0.96248   0.57194   0.23516   0.00000  Uiso   1.00
H339   H     0.96248   0.42808   0.26493   0.00000  Uiso   1.00
H340   H     0.70419   0.57192   0.23507   0.00000  Uiso   1.00
H341   H     0.87986   0.37584   0.29992   0.00000  Uiso   1.00
H342   H     0.78681   0.62416   0.20008   0.00000  Uiso   1.00
H343   H     0.78681   0.37526   0.20008   0.00000  Uiso   1.00
H344   H     0.87985   0.62474   0.29992   0.00000  Uiso   1.00
N345   N     0.83333   0.61907   0.25000   0.00000  Uiso   1.00
N346   N     0.83333   0.38093   0.25000   0.00000  Uiso   1.00
O347   O     0.77226   0.53821   0.24999   0.00000  Uiso   1.00
O348   O     0.89441   0.46179   0.25000   0.00000  Uiso   1.00
O349   O     0.89441   0.53821   0.25000   0.00000  Uiso   1.00
O350   O     0.77226   0.46179   0.24999   0.00000  Uiso   1.00
O351   O     0.83333   0.53823   0.18392   0.00000  Uiso   1.00
O352   O     0.83334   0.46177   0.31607   0.00000  Uiso   1.00
O353   O     0.83334   0.53823   0.31607   0.00000  Uiso   1.00
O354   O     0.83333   0.46177   0.18392   0.00000  Uiso   1.00
Zn355  Zn    0.83333   0.55104   0.25000   0.00000  Uiso   1.00
Zn356  Zn    0.83333   0.44896   0.25000   0.00000  Uiso   1.00
O357   O     0.78927   0.56761   0.38334   0.00000  Uiso   1.00
H358   H     0.76338   0.57507   0.39959   0.00000  Uiso   1.00
O359   O     0.87740   0.43239   0.11666   0.00000  Uiso   1.00
H360   H     0.90328   0.42493   0.10041   0.00000  Uiso   1.00
C361   C     0.08661   0.83333   0.24997   0.00000  Uiso   1.00
C362   C     0.24672   0.83334   0.25003   0.00000  Uiso   1.00
C363   C     0.13116   0.90583   0.02497   0.00000  Uiso   1.00
C364   C     0.20218   0.76084   0.47503   0.00000  Uiso   1.00
C365   C     0.02130   0.79285   0.25819   0.00000  Uiso   1.00
C366   C     0.31203   0.87381   0.24181   0.00000  Uiso   1.00
C367   C     0.31203   0.79286   0.25824   0.00000  Uiso   1.00
C368   C     0.02130   0.87380   0.24176   0.00000  Uiso   1.00
C369   C     0.29086   0.83334   0.25004   0.00000  Uiso   1.00
C370   C     0.04247   0.83332   0.24996   0.00000  Uiso   1.00
C371   C     0.19253   0.69082   0.27775   0.00000  Uiso   1.00
C372   C     0.14080   0.97584   0.22225   0.00000  Uiso   1.00
C373   C     0.14081   0.69050   0.22225   0.00000  Uiso   1.00
C374   C     0.19253   0.97616   0.27775   0.00000  Uiso   1.00
C375   C     0.16740   0.83319   0.16336   0.00000  Uiso   1.00
C376   C     0.16593   0.83348   0.33663   0.00000  Uiso   1.00
C377   C     0.18361   0.79797   0.40688   0.00000  Uiso   1.00
C378   C     0.14972   0.86870   0.09312   0.00000  Uiso   1.00
C379   C     0.16478   0.83378   0.38449   0.00000  Uiso   1.00
C380   C     0.16855   0.83288   0.11551   0.00000  Uiso   1.00
C381   C     0.14429   0.86884   0.40743   0.00000  Uiso   1.00
C382   C     0.18904   0.79783   0.09257   0.00000  Uiso   1.00
C383   C     0.14609   0.86970   0.45418   0.00000  Uiso   1.00
C384   C     0.18725   0.79697   0.04582   0.00000  Uiso   1.00
C385   C     0.16577   0.83339   0.47674   0.00000  Uiso   1.00
C386   C     0.16757   0.83328   0.02326   0.00000  Uiso   1.00
C387   C     0.18382   0.79720   0.45282   0.00000  Uiso   1.00
C388   C     0.14951   0.86947   0.04718   0.00000  Uiso   1.00
C389   C     0.12982   0.90626   0.47881   0.00000  Uiso   1.00
C390   C     0.20351   0.76040   0.02119   0.00000  Uiso   1.00
H391   H     0.19858   0.77081   0.38838   0.00000  Uiso   1.00
H392   H     0.13475   0.89586   0.11162   0.00000  Uiso   1.00
H393   H     0.11646   0.93573   0.46298   0.00000  Uiso   1.00
H394   H     0.21687   0.73093   0.03702   0.00000  Uiso   1.00
H395   H     0.11793   0.93409   0.04333   0.00000  Uiso   1.00
H396   H     0.21540   0.73258   0.45667   0.00000  Uiso   1.00
H397   H     0.03752   0.76139   0.26484   0.00000  Uiso   1.00
H398   H     0.29581   0.90527   0.23516   0.00000  Uiso   1.00
H399   H     0.29581   0.76141   0.26493   0.00000  Uiso   1.00
H400   H     0.03752   0.90525   0.23507   0.00000  Uiso   1.00
H401   H     0.21319   0.70917   0.29992   0.00000  Uiso   1.00
H402   H     0.12014   0.95750   0.20008   0.00000  Uiso   1.00
H403   H     0.12015   0.70859   0.20008   0.00000  Uiso   1.00
H404   H     0.21319   0.95808   0.29992   0.00000  Uiso   1.00
N405   N     0.16667   0.95240   0.25000   0.00000  Uiso   1.00
N406   N     0.16667   0.71427   0.25000   0.00000  Uiso   1.00
O407   O     0.10559   0.87154   0.24999   0.00000  Uiso   1.00
O408   O     0.22774   0.79513   0.25000   0.00000  Uiso   1.00
O409   O     0.22774   0.87154   0.25000   0.00000  Uiso   1.00
O410   O     0.10559   0.79513   0.24999   0.00000  Uiso   1.00
O411   O     0.16666   0.87156   0.18392   0.00000  Uiso   1.00
O412   O     0.16667   0.79511   0.31607   0.00000  Uiso   1.00
O413   O     0.16667   0.87156   0.31607   0.00000  Uiso   1.00
O414   O     0.16666   0.79511   0.18392   0.00000  Uiso   1.00
Zn415  Zn    0.16667   0.88437   0.25000   0.00000  Uiso   1.00
Zn416  Zn    0.16667   0.78229   0.25000   0.00000  Uiso   1.00
O417   O     0.12260   0.90094   0.38334   0.00000  Uiso   1.00
H418   H     0.09672   0.90840   0.39959   0.00000  Uiso   1.00
O419   O     0.21073   0.76572   0.11666   0.00000  Uiso   1.00
H420   H     0.23662   0.75826   0.10041   0.00000  Uiso   1.00
C421   C     0.41995   0.83333   0.24997   0.00000  Uiso   1.00
C422   C     0.58005   0.83334   0.25003   0.00000  Uiso   1.00
C423   C     0.46449   0.90583   0.02497   0.00000  Uiso   1.00
C424   C     0.53551   0.76084   0.47503   0.00000  Uiso   1.00
C425   C     0.35463   0.79285   0.25819   0.00000  Uiso   1.00
C426   C     0.64537   0.87381   0.24181   0.00000  Uiso   1.00
C427   C     0.64537   0.79286   0.25824   0.00000  Uiso   1.00
C428   C     0.35463   0.87380   0.24176   0.00000  Uiso   1.00
C429   C     0.62419   0.83334   0.25004   0.00000  Uiso   1.00
C430   C     0.37580   0.83332   0.24996   0.00000  Uiso   1.00
C431   C     0.52586   0.69082   0.27775   0.00000  Uiso   1.00
C432   C     0.47414   0.97584   0.22225   0.00000  Uiso   1.00
C433   C     0.47414   0.69050   0.22225   0.00000  Uiso   1.00
C434   C     0.52586   0.97616   0.27775   0.00000  Uiso   1.00
C435   C     0.50073   0.83319   0.16336   0.00000  Uiso   1.00
C436   C     0.49927   0.83348   0.33663   0.00000  Uiso   1.00
C437   C     0.51695   0.79797   0.40688   0.00000  Uiso   1.00
C438   C     0.48305   0.86870   0.09312   0.00000  Uiso   1.00
C439   C     0.49811   0.83378   0.38449   0.00000  Uiso   1.00
C440   C     0.50189   0.83288   0.11551   0.00000  Uiso   1.00
C441   C     0.47763   0.86884   0.40743   0.00000  Uiso   1.00
C442   C     0.52237   0.79783   0.09257   0.00000  Uiso   1.00
C443   C     0.47942   0.86970   0.45418   0.00000  Uiso   1.00
C444   C     0.52058   0.79697   0.04582   0.00000  Uiso   1.00
C445   C     0.49910   0.83339   0.47674   0.00000  Uiso   1.00
C446   C     0.50090   0.83328   0.02326   0.00000  Uiso   1.00
C447   C     0.51715   0.79720   0.45282   0.00000  Uiso   1.00
C448   C     0.48285   0.86947   0.04718   0.00000  Uiso   1.00
C449   C     0.46315   0.90626   0.47881   0.00000  Uiso   1.00
C450   C     0.53685   0.76040   0.02119   0.00000  Uiso   1.00
H451   H     0.53192   0.77081   0.38838   0.00000  Uiso   1.00
H452   H     0.46808   0.89586   0.11162   0.00000  Uiso   1.00
H453   H     0.44979   0.93573   0.46298   0.00000  Uiso   1.00
H454   H     0.55021   0.73093   0.03702   0.00000  Uiso   1.00
H455   H     0.45127   0.93409   0.04333   0.00000  Uiso   1.00
H456   H     0.54873   0.73258   0.45667   0.00000  Uiso   1.00
H457   H     0.37085   0.76139   0.26484   0.00000  Uiso   1.00
H458   H     0.62914   0.90527   0.23516   0.00000  Uiso   1.00
H459   H     0.62914   0.76141   0.26493   0.00000  Uiso   1.00
H460   H     0.37085   0.90525   0.23507   0.00000  Uiso   1.00
H461   H     0.54652   0.70917   0.29992   0.00000  Uiso   1.00
H462   H     0.45347   0.95750   0.20008   0.00000  Uiso   1.00
H463   H     0.45348   0.70859   0.20008   0.00000  Uiso   1.00
H464   H     0.54652   0.95808   0.29992   0.00000  Uiso   1.00
N465   N     0.50000   0.95240   0.25000   0.00000  Uiso   1.00
N466   N     0.50000   0.71427   0.25000   0.00000  Uiso   1.00
O467   O     0.43892   0.87154   0.24999   0.00000  Uiso   1.00
O468   O     0.56108   0.79513   0.25000   0.00000  Uiso   1.00
O469   O     0.56108   0.87154   0.25000   0.00000  Uiso   1.00
O470   O     0.43892   0.79513   0.24999   0.00000  Uiso   1.00
O471   O     0.49999   0.87156   0.18392   0.00000  Uiso   1.00
O472   O     0.50001   0.79511   0.31607   0.00000  Uiso   1.00
O473   O     0.50001   0.87156   0.31607   0.00000  Uiso   1.00
O474   O     0.49999   0.79511   0.18392   0.00000  Uiso   1.00
Zn475  Zn    0.50000   0.88437   0.25000   0.00000  Uiso   1.00
Zn476  Zn    0.50000   0.78229   0.25000   0.00000  Uiso   1.00
O477   O     0.45593   0.90094   0.38334   0.00000  Uiso   1.00
H478   H     0.43005   0.90840   0.39959   0.00000  Uiso   1.00
O479   O     0.54407   0.76572   0.11666   0.00000  Uiso   1.00
H480   H     0.56995   0.75826   0.10041   0.00000  Uiso   1.00
C481   C     0.75328   0.83333   0.24997   0.00000  Uiso   1.00
C482   C     0.91339   0.83334   0.25003   0.00000  Uiso   1.00
C483   C     0.79782   0.90583   0.02497   0.00000  Uiso   1.00
C484   C     0.86884   0.76084   0.47503   0.00000  Uiso   1.00
C485   C     0.68797   0.79285   0.25819   0.00000  Uiso   1.00
C486   C     0.97870   0.87381   0.24181   0.00000  Uiso   1.00
C487   C     0.97870   0.79286   0.25824   0.00000  Uiso   1.00
C488   C     0.68797   0.87380   0.24176   0.00000  Uiso   1.00
C489   C     0.95753   0.83334   0.25004   0.00000  Uiso   1.00
C490   C     0.70914   0.83332   0.24996   0.00000  Uiso   1.00
C491   C     0.85919   0.69082   0.27775   0.00000  Uiso   1.00
C492   C     0.80747   0.97584   0.22225   0.00000  Uiso   1.00
C493   C     0.80747   0.69050   0.22225   0.00000  Uiso   1.00
C494   C     0.85919   0.97616   0.27775   0.00000  Uiso   1.00
C495   C     0.83407   0.83319   0.16336   0.00000  Uiso   1.00
C496   C     0.83260   0.83348   0.33663   0.00000  Uiso   1.00
C497   C     0.85028   0.79797   0.40688   0.00000  Uiso   1.00
C498   C     0.81639   0.86870   0.09312   0.00000  Uiso   1.00
C499   C     0.83145   0.83378   0.38449   0.00000  Uiso   1.00
C500   C     0.83522   0.83288   0.11551   0.00000  Uiso   1.00
C501   C     0.81096   0.86884   0.40743   0.00000  Uiso   1.00
C502   C     0.85571   0.79783   0.09257   0.00000  Uiso   1.00
C503   C     0.81275   0.86970   0.45418   0.00000  Uiso   1.00
C504   C     0.85391   0.79697   0.04582   0.00000  Uiso   1.00
C505   C     0.83243   0.83339   0.47674   0.00000  Uiso   1.00
C506   C     0.83423   0.83328   0.02326   0.00000  Uiso   1.00
C507   C     0.85049   0.79720   0.45282   0.00000  Uiso   1.00
C508   C     0.81618   0.86947   0.04718   0.00000  Uiso   1.00
C509   C     0.79649   0.90626   0.47881   0.00000  Uiso   1.00
C510   C     0.87018   0.76040   0.02119   0.00000  Uiso   1.00
H511   H     0.86525   0.77081   0.38838   0.00000  Uiso   1.00
H512   H     0.80142   0.89586   0.11162   0.00000  Uiso   1.00
H513   H     0.78313   0.93573   0.46298   0.00000  Uiso   1.00
H514   H     0.88354   0.73093   0.03702   0.00000  Uiso   1.00
H515   H     0.78460   0.93409   0.04333   0.00000  Uiso   1.00
H516   H     0.88207   0.73258   0.45667   0.00000  Uiso   1.00
H517   H     0.70419   0.76139   0.26484   0.00000  Uiso   1.00
H518   H     0.96248   0.90527   0.23516   0.00000  Uiso   1.00
H519   H     0.96248   0.76141   0.26493   0.00000  Uiso   1.00
H520   H     0.70419   0.90525   0.23507   0.00000  Uiso   1.00
H521   H     0.87986   0.70917   0.29992   0.00000  Uiso   1.00
H522   H     0.78681   0.95750   0.20008   0.00000  Uiso   1.00
H523   H     0.78681   0.70859   0.20008   0.00000  Uiso   1.00
H524   H     0.87985   0.95808   0.29992   0.00000  Uiso   1.00
N525   N     0.83333   0.95240   0.25000   0.00000  Uiso   1.00
N526   N     0.83333   0.71427   0.25000   0.00000  Uiso   1.00
O527   O     0.77226   0.87154   0.24999   0.00000  Uiso   1.00
O528   O     0.89441   0.79513   0.25000   0.00000  Uiso   1.00
O529   O     0.89441   0.87154   0.25000   0.00000  Uiso   1.00
O530   O     0.77226   0.79513   0.24999   0.00000  Uiso   1.00
O531   O     0.83333   0.87156   0.18392   0.00000  Uiso   1.00
O532   O     0.83334   0.79511   0.31607   0.00000  Uiso   1.00
O533   O     0.83334   0.87156   0.31607   0.00000  Uiso   1.00
O534   O     0.83333   0.79511   0.18392   0.00000  Uiso   1.00
Zn535  Zn    0.83333   0.88437   0.25000   0.00000  Uiso   1.00
Zn536  Zn    0.83333   0.78229   0.25000   0.00000  Uiso   1.00
O537   O     0.78927   0.90094   0.38334   0.00000  Uiso   1.00
H538   H     0.76338   0.90840   0.39959   0.00000  Uiso   1.00
O539   O     0.87740   0.76572   0.11666   0.00000  Uiso   1.00
H540   H     0.90328   0.75826   0.10041   0.00000  Uiso   1.00
C541   C     0.08661   0.16666   0.74997   0.00000  Uiso   1.00
C542   C     0.24672   0.16667   0.75003   0.00000  Uiso   1.00
C543   C     0.13116   0.23916   0.52497   0.00000  Uiso   1.00
C544   C     0.20218   0.09417   0.97503   0.00000  Uiso   1.00
C545   C     0.02130   0.12619   0.75819   0.00000  Uiso   1.00
C546   C     0.31203   0.20715   0.74181   0.00000  Uiso   1.00
C547   C     0.31203   0.12620   0.75824   0.00000  Uiso   1.00
C548   C     0.02130   0.20714   0.74176   0.00000  Uiso   1.00
C549   C     0.29086   0.16668   0.75004   0.00000  Uiso   1.00
C550   C     0.04247   0.16665   0.74996   0.00000  Uiso   1.00
C551   C     0.19253   0.02416   0.77775   0.00000  Uiso   1.00
C552   C     0.14080   0.30917   0.72225   0.00000  Uiso   1.00
C553   C     0.14081   0.02384   0.72225   0.00000  Uiso   1.00
C554   C     0.19253   0.30950   0.77775   0.00000  Uiso   1.00
C555   C     0.16740   0.16652   0.66336   0.00000  Uiso   1.00
C556   C     0.16593   0.16681   0.83663   0.00000  Uiso   1.00
C557   C     0.18361   0.13130   0.90688   0.00000  Uiso   1.00
C558   C     0.14972   0.20203   0.59312   0.00000  Uiso   1.00
C559   C     0.16478   0.16712   0.88449   0.00000  Uiso   1.00
C560   C     0.16855   0.16622   0.61551   0.00000  Uiso   1.00
C561   C     0.14429   0.20217   0.90743   0.00000  Uiso   1.00
C562   C     0.18904   0.13116   0.59257   0.00000  Uiso   1.00
C563   C     0.14609   0.20303   0.95418   0.00000  Uiso   1.00
C564   C     0.18725   0.13030   0.54582   0.00000  Uiso   1.00
C565   C     0.16577   0.16672   0.97674   0.00000  Uiso   1.00
C566   C     0.16757   0.16661   0.52326   0.00000  Uiso   1.00
C567   C     0.18382   0.13053   0.95282   0.00000  Uiso   1.00
C568   C     0.14951   0.20280   0.54718   0.00000  Uiso   1.00
C569   C     0.12982   0.23960   0.97881   0.00000  Uiso   1.00
C570   C     0.20351   0.09374   0.52119   0.00000  Uiso   1.00
H571   H     0.19858   0.10414   0.88838   0.00000  Uiso   1.00
H572   H     0.13475   0.22919   0.61162   0.00000  Uiso   1.00
H573   H     0.11646   0.26907   0.96298   0.00000  Uiso   1.00
H574   H     0.21687   0.06427   0.53702   0.00000  Uiso   1.00
H575   H     0.11793   0.26742   0.54333   0.00000  Uiso   1.00
H576   H     0.21540   0.06591   0.95667   0.00000  Uiso   1.00
H577   H     0.03752   0.09473   0.76484   0.00000  Uiso   1.00
H578   H     0.29581   0.23861   0.73516   0.00000  Uiso   1.00
H579   H     0.29581   0.09475   0.76493   0.00000  Uiso   1.00
H580   H     0.03752   0.23859   0.73507   0.00000  Uiso   1.00
H581   H     0.21319   0.04250   0.79992   0.00000  Uiso   1.00
H582   H     0.12014   0.29083   0.70008   0.00000  Uiso   1.00
H583   H     0.12015   0.04192   0.70008   0.00000  Uiso   1.00
H584   H     0.21319   0.29141   0.79992   0.00000  Uiso   1.00
N585   N     0.16667   0.28573   0.75000   0.00000  Uiso   1.00
N586   N     0.16667   0.04760   0.75000   0.00000  Uiso   1.00
O587   O     0.10559   0.20487   0.74999   0.00000  Uiso   1.00
O588   O     0.22774   0.12846   0.75000   0.00000  Uiso   1.00
O589   O     0.22774   0.20487   0.75000   0.00000  Uiso   1.00
O590   O     0.10559   0.12846   0.74999   0.00000  Uiso   1.00
O591   O     0.16666   0.20489   0.68392   0.00000  Uiso   1.00
O592   O     0.16667   0.12844   0.81607   0.00000  Uiso   1.00
O593   O     0.16667   0.20489   0.81607   0.00000  Uiso   1.00
O594   O     0.16666   0.12844   0.68392   0.00000  Uiso   1.00
Zn595  Zn    0.16667   0.21771   0.75000   0.00000  Uiso   1.00
Zn596  Zn    0.16667   0.11563   0.75000   0.00000  Uiso   1.00
O597   O     0.12260   0.23428   0.88334   0.00000  Uiso   1.00
H598   H     0.09672   0.24173   0.89959   0.00000  Uiso   1.00
O599   O     0.21073   0.09906   0.61666   0.00000  Uiso   1.00
H600   H     0.23662   0.09160   0.60041   0.00000  Uiso   1.00
C601   C     0.41995   0.16666   0.74997   0.00000  Uiso   1.00
C602   C     0.58005   0.16667   0.75003   0.00000  Uiso   1.00
C603   C     0.46449   0.23916   0.52497   0.00000  Uiso   1.00
C604   C     0.53551   0.09417   0.97503   0.00000  Uiso   1.00
C605   C     0.35463   0.12619   0.75819   0.00000  Uiso   1.00
C606   C     0.64537   0.20715   0.74181   0.00000  Uiso   1.00
C607   C     0.64537   0.12620   0.75824   0.00000  Uiso   1.00
C608   C     0.35463   0.20714   0.74176   0.00000  Uiso   1.00
C609   C     0.62419   0.16668   0.75004   0.00000  Uiso   1.00
C610   C     0.37580   0.16665   0.74996   0.00000  Uiso   1.00
C611   C     0.52586   0.02416   0.77775   0.00000  Uiso   1.00
C612   C     0.47414   0.30917   0.72225   0.00000  Uiso   1.00
C613   C     0.47414   0.02384   0.72225   0.00000  Uiso   1.00
C614   C     0.52586   0.30950   0.77775   0.00000  Uiso   1.00
C615   C     0.50073   0.16652   0.66336   0.00000  Uiso   1.00
C616   C     0.49927   0.16681   0.83663   0.00000  Uiso   1.00
C617   C     0.51695   0.13130   0.90688   0.00000  Uiso   1.00
C618   C     0.48305   0.20203   0.59312   0.00000  Uiso   1.00
C619   C     0.49811   0.16712   0.88449   0.00000  Uiso   1.00
C620   C     0.50189   0.16622   0.61551   0.00000  Uiso   1.00
C621   C     0.47763   0.20217   0.90743   0.00000  Uiso   1.00
C622   C     0.52237   0.13116   0.59257   0.00000  Uiso   1.00
C623   C     0.47942   0.20303   0.95418   0.00000  Uiso   1.00
C624   C     0.52058   0.13030   0.54582   0.00000  Uiso   1.00
C625   C     0.49910   0.16672   0.97674   0.00000  Uiso   1.00
C626   C     0.50090   0.16661   0.52326   0.00000  Uiso   1.00
C627   C     0.51715   0.13053   0.95282   0.00000  Uiso   1.00
C628   C     0.48285   0.20280   0.54718   0.00000  Uiso   1.00
C629   C     0.46315   0.23960   0.97881   0.00000  Uiso   1.00
C630   C     0.53685   0.09374   0.52119   0.00000  Uiso   1.00
H631   H     0.53192   0.10414   0.88838   0.00000  Uiso   1.00
H632   H     0.46808   0.22919   0.61162   0.00000  Uiso   1.00
H633   H     0.44979   0.26907   0.96298   0.00000  Uiso   1.00
H634   H     0.55021   0.06427   0.53702   0.00000  Uiso   1.00
H635   H     0.45127   0.26742   0.54333   0.00000  Uiso   1.00
H636   H     0.54873   0.06591   0.95667   0.00000  Uiso   1.00
H637   H     0.37085   0.09473   0.76484   0.00000  Uiso   1.00
H638   H     0.62914   0.23861   0.73516   0.00000  Uiso   1.00
H639   H     0.62914   0.09475   0.76493   0.00000  Uiso   1.00
H640   H     0.37085   0.23859   0.73507   0.00000  Uiso   1.00
H641   H     0.54652   0.04250   0.79992   0.00000  Uiso   1.00
H642   H     0.45347   0.29083   0.70008   0.00000  Uiso   1.00
H643   H     0.45348   0.04192   0.70008   0.00000  Uiso   1.00
H644   H     0.54652   0.29141   0.79992   0.00000  Uiso   1.00
N645   N     0.50000   0.28573   0.75000   0.00000  Uiso   1.00
N646   N     0.50000   0.04760   0.75000   0.00000  Uiso   1.00
O647   O     0.43892   0.20487   0.74999   0.00000  Uiso   1.00
O648   O     0.56108   0.12846   0.75000   0.00000  Uiso   1.00
O649   O     0.56108   0.20487   0.75000   0.00000  Uiso   1.00
O650   O     0.43892   0.12846   0.74999   0.00000  Uiso   1.00
O651   O     0.49999   0.20489   0.68392   0.00000  Uiso   1.00
O652   O     0.50001   0.12844   0.81607   0.00000  Uiso   1.00
O653   O     0.50001   0.20489   0.81607   0.00000  Uiso   1.00
O654   O     0.49999   0.12844   0.68392   0.00000  Uiso   1.00
Zn655  Zn    0.50000   0.21771   0.75000   0.00000  Uiso   1.00
Zn656  Zn    0.50000   0.11563   0.75000   0.00000  Uiso   1.00
O657   O     0.45593   0.23428   0.88334   0.00000  Uiso   1.00
H658   H     0.43005   0.24173   0.89959   0.00000  Uiso   1.00
O659   O     0.54407   0.09906   0.61666   0.00000  Uiso   1.00
H660   H     0.56995   0.09160   0.60041   0.00000  Uiso   1.00
C661   C     0.75328   0.16666   0.74997   0.00000  Uiso   1.00
C662   C     0.91339   0.16667   0.75003   0.00000  Uiso   1.00
C663   C     0.79782   0.23916   0.52497   0.00000  Uiso   1.00
C664   C     0.86884   0.09417   0.97503   0.00000  Uiso   1.00
C665   C     0.68797   0.12619   0.75819   0.00000  Uiso   1.00
C666   C     0.97870   0.20715   0.74181   0.00000  Uiso   1.00
C667   C     0.97870   0.12620   0.75824   0.00000  Uiso   1.00
C668   C     0.68797   0.20714   0.74176   0.00000  Uiso   1.00
C669   C     0.95753   0.16668   0.75004   0.00000  Uiso   1.00
C670   C     0.70914   0.16665   0.74996   0.00000  Uiso   1.00
C671   C     0.85919   0.02416   0.77775   0.00000  Uiso   1.00
C672   C     0.80747   0.30917   0.72225   0.00000  Uiso   1.00
C673   C     0.80747   0.02384   0.72225   0.00000  Uiso   1.00
C674   C     0.85919   0.30950   0.77775   0.00000  Uiso   1.00
C675   C     0.83407   0.16652   0.66336   0.00000  Uiso   1.00
C676   C     0.83260   0.16681   0.83663   0.00000  Uiso   1.00
C677   C     0.85028   0.13130   0.90688   0.00000  Uiso   1.00
C678   C     0.81639   0.20203   0.59312   0.00000  Uiso   1.00
C679   C     0.83145   0.16712   0.88449   0.00000  Uiso   1.00
C680   C     0.83522   0.16622   0.61551   0.00000  Uiso   1.00
C681   C     0.81096   0.20217   0.90743   0.00000  Uiso   1.00
C682   C     0.85571   0.13116   0.59257   0.00000  Uiso   1.00
C683   C     0.81275   0.20303   0.95418   0.00000  Uiso   1.00
C684   C     0.85391   0.13030   0.54582   0.00000  Uiso   1.00
C685   C     0.83243   0.16672   0.97674   0.00000  Uiso   1.00
C686   C     0.83423   0.16661   0.52326   0.00000  Uiso   1.00
C687   C     0.85049   0.13053   0.95282   0.00000  Uiso   1.00
C688   C     0.81618   0.20280   0.54718   0.00000  Uiso   1.00
C689   C     0.79649   0.23960   0.97881   0.00000  Uiso   1.00
C690   C     0.87018   0.09374   0.52119   0.00000  Uiso   1.00
H691   H     0.86525   0.10414   0.88838   0.00000  Uiso   1.00
H692   H     0.80142   0.22919   0.61162   0.00000  Uiso   1.00
H693   H     0.78313   0.26907   0.96298   0.00000  Uiso   1.00
H694   H     0.88354   0.06427   0.53702   0.00000  Uiso   1.00
H695   H     0.78460   0.26742   0.54333   0.00000  Uiso   1.00
H696   H     0.88207   0.06591   0.95667   0.00000  Uiso   1.00
H697   H     0.70419   0.09473   0.76484   0.00000  Uiso   1.00
H698   H     0.96248   0.23861   0.73516   0.00000  Uiso   1.00
H699   H     0.96248   0.09475   0.76493   0.00000  Uiso   1.00
H700   H     0.70419   0.23859   0.73507   0.00000  Uiso   1.00
H701   H     0.87986   0.04250   0.79992   0.00000  Uiso   1.00
H702   H     0.78681   0.29083   0.70008   0.00000  Uiso   1.00
H703   H     0.78681   0.04192   0.70008   0.00000  Uiso   1.00
H704   H     0.87985   0.29141   0.79992   0.00000  Uiso   1.00
N705   N     0.83333   0.28573   0.75000   0.00000  Uiso   1.00
N706   N     0.83333   0.04760   0.75000   0.00000  Uiso   1.00
O707   O     0.77226   0.20487   0.74999   0.00000  Uiso   1.00
O708   O     0.89441   0.12846   0.75000   0.00000  Uiso   1.00
O709   O     0.89441   0.20487   0.75000   0.00000  Uiso   1.00
O710   O     0.77226   0.12846   0.74999   0.00000  Uiso   1.00
O711   O     0.83333   0.20489   0.68392   0.00000  Uiso   1.00
O712   O     0.83334   0.12844   0.81607   0.00000  Uiso   1.00
O713   O     0.83334   0.20489   0.81607   0.00000  Uiso   1.00
O714   O     0.83333   0.12844   0.68392   0.00000  Uiso   1.00
Zn715  Zn    0.83333   0.21771   0.75000   0.00000  Uiso   1.00
Zn716  Zn    0.83333   0.11563   0.75000   0.00000  Uiso   1.00
O717   O     0.78927   0.23428   0.88334   0.00000  Uiso   1.00
H718   H     0.76338   0.24173   0.89959   0.00000  Uiso   1.00
O719   O     0.87740   0.09906   0.61666   0.00000  Uiso   1.00
H720   H     0.90328   0.09160   0.60041   0.00000  Uiso   1.00
C721   C     0.08661   0.49999   0.74997   0.00000  Uiso   1.00
C722   C     0.24672   0.50001   0.75003   0.00000  Uiso   1.00
C723   C     0.13116   0.57250   0.52497   0.00000  Uiso   1.00
C724   C     0.20218   0.42750   0.97503   0.00000  Uiso   1.00
C725   C     0.02130   0.45952   0.75819   0.00000  Uiso   1.00
C726   C     0.31203   0.54048   0.74181   0.00000  Uiso   1.00
C727   C     0.31203   0.45953   0.75824   0.00000  Uiso   1.00
C728   C     0.02130   0.54047   0.74176   0.00000  Uiso   1.00
C729   C     0.29086   0.50001   0.75004   0.00000  Uiso   1.00
C730   C     0.04247   0.49999   0.74996   0.00000  Uiso   1.00
C731   C     0.19253   0.35749   0.77775   0.00000  Uiso   1.00
C732   C     0.14080   0.64251   0.72225   0.00000  Uiso   1.00
C733   C     0.14081   0.35717   0.72225   0.00000  Uiso   1.00
C734   C     0.19253   0.64283   0.77775   0.00000  Uiso   1.00
C735   C     0.16740   0.49986   0.66336   0.00000  Uiso   1.00
C736   C     0.16593   0.50014   0.83663   0.00000  Uiso   1.00
C737   C     0.18361   0.46464   0.90688   0.00000  Uiso   1.00
C738   C     0.14972   0.53536   0.59312   0.00000  Uiso   1.00
C739   C     0.16478   0.50045   0.88449   0.00000  Uiso   1.00
C740   C     0.16855   0.49955   0.61551   0.00000  Uiso   1.00
C741   C     0.14429   0.53550   0.90743   0.00000  Uiso   1.00
C742   C     0.18904   0.46450   0.59257   0.00000  Uiso   1.00
C743   C     0.14609   0.53636   0.95418   0.00000  Uiso   1.00
C744   C     0.18725   0.46364   0.54582   0.00000  Uiso   1.00
C745   C     0.16577   0.50006   0.97674   0.00000  Uiso   1.00
C746   C     0.16757   0.49994   0.52326   0.00000  Uiso   1.00
C747   C     0.18382   0.46387   0.95282   0.00000  Uiso   1.00
C748   C     0.14951   0.53613   0.54718   0.00000  Uiso   1.00
C749   C     0.12982   0.57293   0.97881   0.00000  Uiso   1.00
C750   C     0.20351   0.42707   0.52119   0.00000  Uiso   1.00
H751   H     0.19858   0.43747   0.88838   0.00000  Uiso   1.00
H752   H     0.13475   0.56253   0.61162   0.00000  Uiso   1.00
H753   H     0.11646   0.60240   0.96298   0.00000  Uiso   1.00
H754   H     0.21687   0.39760   0.53702   0.00000  Uiso   1.00
H755   H     0.11793   0.60075   0.54333   0.00000  Uiso   1.00
H756   H     0.21540   0.39925   0.95667   0.00000  Uiso   1.00
H757   H     0.03752   0.42806   0.76484   0.00000  Uiso   1.00
H758   H     0.29581   0.57194   0.73516   0.00000  Uiso   1.00
H759   H     0.29581   0.42808   0.76493   0.00000  Uiso   1.00
H760   H     0.03752   0.57192   0.73507   0.00000  Uiso   1.00
H761   H     0.21319   0.37584   0.79992   0.00000  Uiso   1.00
H762   H     0.12014   0.62416   0.70008   0.00000  Uiso   1.00
H763   H     0.12015   0.37526   0.70008   0.00000  Uiso   1.00
H764   H     0.21319   0.62474   0.79992   0.00000  Uiso   1.00
N765   N     0.16667   0.61907   0.75000   0.00000  Uiso   1.00
N766   N     0.16667   0.38093   0.75000   0.00000  Uiso   1.00
O767   O     0.10559   0.53821   0.74999   0.00000  Uiso   1.00
O768   O     0.22774   0.46179   0.75000   0.00000  Uiso   1.00
O769   O     0.22774   0.53821   0.75000   0.00000  Uiso   1.00
O770   O     0.10559   0.46179   0.74999   0.00000  Uiso   1.00
O771   O     0.16666   0.53823   0.68392   0.00000  Uiso   1.00
O772   O     0.16667   0.46177   0.81607   0.00000  Uiso   1.00
O773   O     0.16667   0.53823   0.81607   0.00000  Uiso   1.00
O774   O     0.16666   0.46177   0.68392   0.00000  Uiso   1.00
Zn775  Zn    0.16667   0.55104   0.75000   0.00000  Uiso   1.00
Zn776  Zn    0.16667   0.44896   0.75000   0.00000  Uiso   1.00
O777   O     0.12260   0.56761   0.88334   0.00000  Uiso   1.00
H778   H     0.09672   0.57507   0.89959   0.00000  Uiso   1.00
O779   O     0.21073   0.43239   0.61666   0.00000  Uiso   1.00
H780   H     0.23662   0.42493   0.60041   0.00000  Uiso   1.00
C781   C     0.41995   0.49999   0.74997   0.00000  Uiso   1.00
C782   C     0.58005   0.50001   0.75003   0.00000  Uiso   1.00
C783   C     0.46449   0.57250   0.52497   0.00000  Uiso   1.00
C784   C     0.53551   0.42750   0.97503   0.00000  Uiso   1.00
C785   C     0.35463   0.45952   0.75819   0.00000  Uiso   1.00
C786   C     0.64537   0.54048   0.74181   0.00000  Uiso   1.00
C787   C     0.64537   0.45953   0.75824   0.00000  Uiso   1.00
C788   C     0.35463   0.54047   0.74176   0.00000  Uiso   1.00
C789   C     0.62419   0.50001   0.75004   0.00000  Uiso   1.00
C790   C     0.37580   0.49999   0.74996   0.00000  Uiso   1.00
C791   C     0.52586   0.35749   0.77775   0.00000  Uiso   1.00
C792   C     0.47414   0.64251   0.72225   0.00000  Uiso   1.00
C793   C     0.47414   0.35717   0.72225   0.00000  Uiso   1.00
C794   C     0.52586   0.64283   0.77775   0.00000  Uiso   1.00
C795   C     0.50073   0.49986   0.66336   0.00000  Uiso   1.00
C796   C     0.49927   0.50014   0.83663   0.00000  Uiso   1.00
C797   C     0.51695   0.46464   0.90688   0.00000  Uiso   1.00
C798   C     0.48305   0.53536   0.59312   0.00000  Uiso   1.00
C799   C     0.49811   0.50045   0.88449   0.00000  Uiso   1.00
C800   C     0.50189   0.49955   0.61551   0.00000  Uiso   1.00
C801   C     0.47763   0.53550   0.90743   0.00000  Uiso   1.00
C802   C     0.52237   0.46450   0.59257   0.00000  Uiso   1.00
C803   C     0.47942   0.53636   0.95418   0.00000  Uiso   1.00
C804   C     0.52058   0.46364   0.54582   0.00000  Uiso   1.00
C805   C     0.49910   0.50006   0.97674   0.00000  Uiso   1.00
C806   C     0.50090   0.49994   0.52326   0.00000  Uiso   1.00
C807   C     0.51715   0.46387   0.95282   0.00000  Uiso   1.00
C808   C     0.48285   0.53613   0.54718   0.00000  Uiso   1.00
C809   C     0.46315   0.57293   0.97881   0.00000  Uiso   1.00
C810   C     0.53685   0.42707   0.52119   0.00000  Uiso   1.00
H811   H     0.53192   0.43747   0.88838   0.00000  Uiso   1.00
H812   H     0.46808   0.56253   0.61162   0.00000  Uiso   1.00
H813   H     0.44979   0.60240   0.96298   0.00000  Uiso   1.00
H814   H     0.55021   0.39760   0.53702   0.00000  Uiso   1.00
H815   H     0.45127   0.60075   0.54333   0.00000  Uiso   1.00
H816   H     0.54873   0.39925   0.95667   0.00000  Uiso   1.00
H817   H     0.37085   0.42806   0.76484   0.00000  Uiso   1.00
H818   H     0.62914   0.57194   0.73516   0.00000  Uiso   1.00
H819   H     0.62914   0.42808   0.76493   0.00000  Uiso   1.00
H820   H     0.37085   0.57192   0.73507   0.00000  Uiso   1.00
H821   H     0.54652   0.37584   0.79992   0.00000  Uiso   1.00
H822   H     0.45347   0.62416   0.70008   0.00000  Uiso   1.00
H823   H     0.45348   0.37526   0.70008   0.00000  Uiso   1.00
H824   H     0.54652   0.62474   0.79992   0.00000  Uiso   1.00
N825   N     0.50000   0.61907   0.75000   0.00000  Uiso   1.00
N826   N     0.50000   0.38093   0.75000   0.00000  Uiso   1.00
O827   O     0.43892   0.53821   0.74999   0.00000  Uiso   1.00
O828   O     0.56108   0.46179   0.75000   0.00000  Uiso   1.00
O829   O     0.56108   0.53821   0.75000   0.00000  Uiso   1.00
O830   O     0.43892   0.46179   0.74999   0.00000  Uiso   1.00
O831   O     0.49999   0.53823   0.68392   0.00000  Uiso   1.00
O832   O     0.50001   0.46177   0.81607   0.00000  Uiso   1.00
O833   O     0.50001   0.53823   0.81607   0.00000  Uiso   1.00
O834   O     0.49999   0.46177   0.68392   0.00000  Uiso   1.00
Zn835  Zn    0.50000   0.55104   0.75000   0.00000  Uiso   1.00
Zn836  Zn    0.50000   0.44896   0.75000   0.00000  Uiso   1.00
O837   O     0.45593   0.56761   0.88334   0.00000  Uiso   1.00
H838   H     0.43005   0.57507   0.89959   0.00000  Uiso   1.00
O839   O     0.54407   0.43239   0.61666   0.00000  Uiso   1.00
H840   H     0.56995   0.42493   0.60041   0.00000  Uiso   1.00
C841   C     0.75328   0.49999   0.74997   0.00000  Uiso   1.00
C842   C     0.91339   0.50001   0.75003   0.00000  Uiso   1.00
C843   C     0.79782   0.57250   0.52497   0.00000  Uiso   1.00
C844   C     0.86884   0.42750   0.97503   0.00000  Uiso   1.00
C845   C     0.68797   0.45952   0.75819   0.00000  Uiso   1.00
C846   C     0.97870   0.54048   0.74181   0.00000  Uiso   1.00
C847   C     0.97870   0.45953   0.75824   0.00000  Uiso   1.00
C848   C     0.68797   0.54047   0.74176   0.00000  Uiso   1.00
C849   C     0.95753   0.50001   0.75004   0.00000  Uiso   1.00
C850   C     0.70914   0.49999   0.74996   0.00000  Uiso   1.00
C851   C     0.85919   0.35749   0.77775   0.00000  Uiso   1.00
C852   C     0.80747   0.64251   0.72225   0.00000  Uiso   1.00
C853   C     0.80747   0.35717   0.72225   0.00000  Uiso   1.00
C854   C     0.85919   0.64283   0.77775   0.00000  Uiso   1.00
C855   C     0.83407   0.49986   0.66336   0.00000  Uiso   1.00
C856   C     0.83260   0.50014   0.83663   0.00000  Uiso   1.00
C857   C     0.85028   0.46464   0.90688   0.00000  Uiso   1.00
C858   C     0.81639   0.53536   0.59312   0.00000  Uiso   1.00
C859   C     0.83145   0.50045   0.88449   0.00000  Uiso   1.00
C860   C     0.83522   0.49955   0.61551   0.00000  Uiso   1.00
C861   C     0.81096   0.53550   0.90743   0.00000  Uiso   1.00
C862   C     0.85571   0.46450   0.59257   0.00000  Uiso   1.00
C863   C     0.81275   0.53636   0.95418   0.00000  Uiso   1.00
C864   C     0.85391   0.46364   0.54582   0.00000  Uiso   1.00
C865   C     0.83243   0.50006   0.97674   0.00000  Uiso   1.00
C866   C     0.83423   0.49994   0.52326   0.00000  Uiso   1.00
C867   C     0.85049   0.46387   0.95282   0.00000  Uiso   1.00
C868   C     0.81618   0.53613   0.54718   0.00000  Uiso   1.00
C869   C     0.79649   0.57293   0.97881   0.00000  Uiso   1.00
C870   C     0.87018   0.42707   0.52119   0.00000  Uiso   1.00
H871   H     0.86525   0.43747   0.88838   0.00000  Uiso   1.00
H872   H     0.80142   0.56253   0.61162   0.00000  Uiso   1.00
H873   H     0.78313   0.60240   0.96298   0.00000  Uiso   1.00
H874   H     0.88354   0.39760   0.53702   0.00000  Uiso   1.00
H875   H     0.78460   0.60075   0.54333   0.00000  Uiso   1.00
H876   H     0.88207   0.39925   0.95667   0.00000  Uiso   1.00
H877   H     0.70419   0.42806   0.76484   0.00000  Uiso   1.00
H878   H     0.96248   0.57194   0.73516   0.00000  Uiso   1.00
H879   H     0.96248   0.42808   0.76493   0.00000  Uiso   1.00
H880   H     0.70419   0.57192   0.73507   0.00000  Uiso   1.00
H881   H     0.87986   0.37584   0.79992   0.00000  Uiso   1.00
H882   H     0.78681   0.62416   0.70008   0.00000  Uiso   1.00
H883   H     0.78681   0.37526   0.70008   0.00000  Uiso   1.00
H884   H     0.87985   0.62474   0.79992   0.00000  Uiso   1.00
N885   N     0.83333   0.61907   0.75000   0.00000  Uiso   1.00
N886   N     0.83333   0.38093   0.75000   0.00000  Uiso   1.00
O887   O     0.77226   0.53821   0.74999   0.00000  Uiso   1.00
O888   O     0.89441   0.46179   0.75000   0.00000  Uiso   1.00
O889   O     0.89441   0.53821   0.75000   0.00000  Uiso   1.00
O890   O     0.77226   0.46179   0.74999   0.00000  Uiso   1.00
O891   O     0.83333   0.53823   0.68392   0.00000  Uiso   1.00
O892   O     0.83334   0.46177   0.81607   0.00000  Uiso   1.00
O893   O     0.83334   0.53823   0.81607   0.00000  Uiso   1.00
O894   O     0.83333   0.46177   0.68392   0.00000  Uiso   1.00
Zn895  Zn    0.83333   0.55104   0.75000   0.00000  Uiso   1.00
Zn896  Zn    0.83333   0.44896   0.75000   0.00000  Uiso   1.00
O897   O     0.78927   0.56761   0.88334   0.00000  Uiso   1.00
H898   H     0.76338   0.57507   0.89959   0.00000  Uiso   1.00
O899   O     0.87740   0.43239   0.61666   0.00000  Uiso   1.00
H900   H     0.90328   0.42493   0.60041   0.00000  Uiso   1.00
C901   C     0.08661   0.83333   0.74997   0.00000  Uiso   1.00
C902   C     0.24672   0.83334   0.75003   0.00000  Uiso   1.00
C903   C     0.13116   0.90583   0.52497   0.00000  Uiso   1.00
C904   C     0.20218   0.76084   0.97503   0.00000  Uiso   1.00
C905   C     0.02130   0.79285   0.75819   0.00000  Uiso   1.00
C906   C     0.31203   0.87381   0.74181   0.00000  Uiso   1.00
C907   C     0.31203   0.79286   0.75824   0.00000  Uiso   1.00
C908   C     0.02130   0.87380   0.74176   0.00000  Uiso   1.00
C909   C     0.29086   0.83334   0.75004   0.00000  Uiso   1.00
C910   C     0.04247   0.83332   0.74996   0.00000  Uiso   1.00
C911   C     0.19253   0.69082   0.77775   0.00000  Uiso   1.00
C912   C     0.14080   0.97584   0.72225   0.00000  Uiso   1.00
C913   C     0.14081   0.69050   0.72225   0.00000  Uiso   1.00
C914   C     0.19253   0.97616   0.77775   0.00000  Uiso   1.00
C915   C     0.16740   0.83319   0.66336   0.00000  Uiso   1.00
C916   C     0.16593   0.83348   0.83663   0.00000  Uiso   1.00
C917   C     0.18361   0.79797   0.90688   0.00000  Uiso   1.00
C918   C     0.14972   0.86870   0.59312   0.00000  Uiso   1.00
C919   C     0.16478   0.83378   0.88449   0.00000  Uiso   1.00
C920   C     0.16855   0.83288   0.61551   0.00000  Uiso   1.00
C921   C     0.14429   0.86884   0.90743   0.00000  Uiso   1.00
C922   C     0.18904   0.79783   0.59257   0.00000  Uiso   1.00
C923   C     0.14609   0.86970   0.95418   0.00000  Uiso   1.00
C924   C     0.18725   0.79697   0.54582   0.00000  Uiso   1.00
C925   C     0.16577   0.83339   0.97674   0.00000  Uiso   1.00
C926   C     0.16757   0.83328   0.52326   0.00000  Uiso   1.00
C927   C     0.18382   0.79720   0.95282   0.00000  Uiso   1.00
C928   C     0.14951   0.86947   0.54718   0.00000  Uiso   1.00
C929   C     0.12982   0.90626   0.97881   0.00000  Uiso   1.00
C930   C     0.20351   0.76040   0.52119   0.00000  Uiso   1.00
H931   H     0.19858   0.77081   0.88838   0.00000  Uiso   1.00
H932   H     0.13475   0.89586   0.61162   0.00000  Uiso   1.00
H933   H     0.11646   0.93573   0.96298   0.00000  Uiso   1.00
H934   H     0.21687   0.73093   0.53702   0.00000  Uiso   1.00
H935   H     0.11793   0.93409   0.54333   0.00000  Uiso   1.00
H936   H     0.21540   0.73258   0.95667   0.00000  Uiso   1.00
H937   H     0.03752   0.76139   0.76484   0.00000  Uiso   1.00
H938   H     0.29581   0.90527   0.73516   0.00000  Uiso   1.00
H939   H     0.29581   0.76141   0.76493   0.00000  Uiso   1.00
H940   H     0.03752   0.90525   0.73507   0.00000  Uiso   1.00
H941   H     0.21319   0.70917   0.79992   0.00000  Uiso   1.00
H942   H     0.12014   0.95750   0.70008   0.00000  Uiso   1.00
H943   H     0.12015   0.70859   0.70008   0.00000  Uiso   1.00
H944   H     0.21319   0.95808   0.79992   0.00000  Uiso   1.00
N945   N     0.16667   0.95240   0.75000   0.00000  Uiso   1.00
N946   N     0.16667   0.71427   0.75000   0.00000  Uiso   1.00
O947   O     0.10559   0.87154   0.74999   0.00000  Uiso   1.00
O948   O     0.22774   0.79513   0.75000   0.00000  Uiso   1.00
O949   O     0.22774   0.87154   0.75000   0.00000  Uiso   1.00
O950   O     0.10559   0.79513   0.74999   0.00000  Uiso   1.00
O951   O     0.16666   0.87156   0.68392   0.00000  Uiso   1.00
O952   O     0.16667   0.79511   0.81607   0.00000  Uiso   1.00
O953   O     0.16667   0.87156   0.81607   0.00000  Uiso   1.00
O954   O     0.16666   0.79511   0.68392   0.00000  Uiso   1.00
Zn955  Zn    0.16667   0.88437   0.75000   0.00000  Uiso   1.00
Zn956  Zn    0.16667   0.78229   0.75000   0.00000  Uiso   1.00
O957   O     0.12260   0.90094   0.88334   0.00000  Uiso   1.00
H958   H     0.09672   0.90840   0.89959   0.00000  Uiso   1.00
O959   O     0.21073   0.76572   0.61666   0.00000  Uiso   1.00
H960   H     0.23662   0.75826   0.60041   0.00000  Uiso   1.00
C961   C     0.41995   0.83333   0.74997   0.00000  Uiso   1.00
C962   C     0.58005   0.83334   0.75003   0.00000  Uiso   1.00
C963   C     0.46449   0.90583   0.52497   0.00000  Uiso   1.00
C964   C     0.53551   0.76084   0.97503   0.00000  Uiso   1.00
C965   C     0.35463   0.79285   0.75819   0.00000  Uiso   1.00
C966   C     0.64537   0.87381   0.74181   0.00000  Uiso   1.00
C967   C     0.64537   0.79286   0.75824   0.00000  Uiso   1.00
C968   C     0.35463   0.87380   0.74176   0.00000  Uiso   1.00
C969   C     0.62419   0.83334   0.75004   0.00000  Uiso   1.00
C970   C     0.37580   0.83332   0.74996   0.00000  Uiso   1.00
C971   C     0.52586   0.69082   0.77775   0.00000  Uiso   1.00
C972   C     0.47414   0.97584   0.72225   0.00000  Uiso   1.00
C973   C     0.47414   0.69050   0.72225   0.00000  Uiso   1.00
C974   C     0.52586   0.97616   0.77775   0.00000  Uiso   1.00
C975   C     0.50073   0.83319   0.66336   0.00000  Uiso   1.00
C976   C     0.49927   0.83348   0.83663   0.00000  Uiso   1.00
C977   C     0.51695   0.79797   0.90688   0.00000  Uiso   1.00
C978   C     0.48305   0.86870   0.59312   0.00000  Uiso   1.00
C979   C     0.49811   0.83378   0.88449   0.00000  Uiso   1.00
C980   C     0.50189   0.83288   0.61551   0.00000  Uiso   1.00
C981   C     0.47763   0.86884   0.90743   0.00000  Uiso   1.00
C982   C     0.52237   0.79783   0.59257   0.00000  Uiso   1.00
C983   C     0.47942   0.86970   0.95418   0.00000  Uiso   1.00
C984   C     0.52058   0.79697   0.54582   0.00000  Uiso   1.00
C985   C     0.49910   0.83339   0.97674   0.00000  Uiso   1.00
C986   C     0.50090   0.83328   0.52326   0.00000  Uiso   1.00
C987   C     0.51715   0.79720   0.95282   0.00000  Uiso   1.00
C988   C     0.48285   0.86947   0.54718   0.00000  Uiso   1.00
C989   C     0.46315   0.90626   0.97881   0.00000  Uiso   1.00
C990   C     0.53685   0.76040   0.52119   0.00000  Uiso   1.00
H991   H     0.53192   0.77081   0.88838   0.00000  Uiso   1.00
H992   H     0.46808   0.89586   0.61162   0.00000  Uiso   1.00
H993   H     0.44979   0.93573   0.96298   0.00000  Uiso   1.00
H994   H     0.55021   0.73093   0.53702   0.00000  Uiso   1.00
H995   H     0.45127   0.93409   0.54333   0.00000  Uiso   1.00
H996   H     0.54873   0.73258   0.95667   0.00000  Uiso   1.00
H997   H     0.37085   0.76139   0.76484   0.00000  Uiso   1.00
H998   H     0.62914   0.90527   0.73516   0.00000  Uiso   1.00
H999   H     0.62914   0.76141   0.76493   0.00000  Uiso   1.00
H1000  H     0.37085   0.90525   0.73507   0.00000  Uiso   1.00
H1001  H     0.54652   0.70917   0.79992   0.00000  Uiso   1.00
H1002  H     0.45347   0.95750   0.70008   0.00000  Uiso   1.00
H1003  H     0.45348   0.70859   0.70008   0.00000  Uiso   1.00
H1004  H     0.54652   0.95808   0.79992   0.00000  Uiso   1.00
N1005  N     0.50000   0.95240   0.75000   0.00000  Uiso   1.00
N1006  N     0.50000   0.71427   0.75000   0.00000  Uiso   1.00
O1007  O     0.43892   0.87154   0.74999   0.00000  Uiso   1.00
O1008  O     0.56108   0.79513   0.75000   0.00000  Uiso   1.00
O1009  O     0.56108   0.87154   0.75000   0.00000  Uiso   1.00
O1010  O     0.43892   0.79513   0.74999   0.00000  Uiso   1.00
O1011  O     0.49999   0.87156   0.68392   0.00000  Uiso   1.00
O1012  O     0.50001   0.79511   0.81607   0.00000  Uiso   1.00
O1013  O     0.50001   0.87156   0.81607   0.00000  Uiso   1.00
O1014  O     0.49999   0.79511   0.68392   0.00000  Uiso   1.00
Zn1015 Zn    0.50000   0.88437   0.75000   0.00000  Uiso   1.00
Zn1016 Zn    0.50000   0.78229   0.75000   0.00000  Uiso   1.00
O1017  O     0.45593   0.90094   0.88334   0.00000  Uiso   1.00
H1018  H     0.43005   0.90840   0.89959   0.00000  Uiso   1.00
O1019  O     0.54407   0.76572   0.61666   0.00000  Uiso   1.00
H1020  H     0.56995   0.75826   0.60041   0.00000  Uiso   1.00
C1021  C     0.75328   0.83333   0.74997   0.00000  Uiso   1.00
C1022  C     0.91339   0.83334   0.75003   0.00000  Uiso   1.00
C1023  C     0.79782   0.90583   0.52497   0.00000  Uiso   1.00
C1024  C     0.86884   0.76084   0.97503   0.00000  Uiso   1.00
C1025  C     0.68797   0.79285   0.75819   0.00000  Uiso   1.00
C1026  C     0.97870   0.87381   0.74181   0.00000  Uiso   1.00
C1027  C     0.97870   0.79286   0.75824   0.00000  Uiso   1.00
C1028  C     0.68797   0.87380   0.74176   0.00000  Uiso   1.00
C1029  C     0.95753   0.83334   0.75004   0.00000  Uiso   1.00
C1030  C     0.70914   0.83332   0.74996   0.00000  Uiso   1.00
C1031  C     0.85919   0.69082   0.77775   0.00000  Uiso   1.00
C1032  C     0.80747   0.97584   0.72225   0.00000  Uiso   1.00
C1033  C     0.80747   0.69050   0.72225   0.00000  Uiso   1.00
C1034  C     0.85919   0.97616   0.77775   0.00000  Uiso   1.00
C1035  C     0.83407   0.83319   0.66336   0.00000  Uiso   1.00
C1036  C     0.83260   0.83348   0.83663   0.00000  Uiso   1.00
C1037  C     0.85028   0.79797   0.90688   0.00000  Uiso   1.00
C1038  C     0.81639   0.86870   0.59312   0.00000  Uiso   1.00
C1039  C     0.83145   0.83378   0.88449   0.00000  Uiso   1.00
C1040  C     0.83522   0.83288   0.61551   0.00000  Uiso   1.00
C1041  C     0.81096   0.86884   0.90743   0.00000  Uiso   1.00
C1042  C     0.85571   0.79783   0.59257   0.00000  Uiso   1.00
C1043  C     0.81275   0.86970   0.95418   0.00000  Uiso   1.00
C1044  C     0.85391   0.79697   0.54582   0.00000  Uiso   1.00
C1045  C     0.83243   0.83339   0.97674   0.00000  Uiso   1.00
C1046  C     0.83423   0.83328   0.52326   0.00000  Uiso   1.00
C1047  C     0.85049   0.79720   0.95282   0.00000  Uiso   1.00
C1048  C     0.81618   0.86947   0.54718   0.00000  Uiso   1.00
C1049  C     0.79649   0.90626   0.97881   0.00000  Uiso   1.00
C1050  C     0.87018   0.76040   0.52119   0.00000  Uiso   1.00
H1051  H     0.86525   0.77081   0.88838   0.00000  Uiso   1.00
H1052  H     0.80142   0.89586   0.61162   0.00000  Uiso   1.00
H1053  H     0.78313   0.93573   0.96298   0.00000  Uiso   1.00
H1054  H     0.88354   0.73093   0.53702   0.00000  Uiso   1.00
H1055  H     0.78460   0.93409   0.54333   0.00000  Uiso   1.00
H1056  H     0.88207   0.73258   0.95667   0.00000  Uiso   1.00
H1057  H     0.70419   0.76139   0.76484   0.00000  Uiso   1.00
H1058  H     0.96248   0.90527   0.73516   0.00000  Uiso   1.00
H1059  H     0.96248   0.76141   0.76493   0.00000  Uiso   1.00
H1060  H     0.70419   0.90525   0.73507   0.00000  Uiso   1.00
H1061  H     0.87986   0.70917   0.79992   0.00000  Uiso   1.00
H1062  H     0.78681   0.95750   0.70008   0.00000  Uiso   1.00
H1063  H     0.78681   0.70859   0.70008   0.00000  Uiso   1.00
H1064  H     0.87985   0.95808   0.79992   0.00000  Uiso   1.00
N1065  N     0.83333   0.95240   0.75000   0.00000  Uiso   1.00
N1066  N     0.83333   0.71427   0.75000   0.00000  Uiso   1.00
O1067  O     0.77226   0.87154   0.74999   0.00000  Uiso   1.00
O1068  O     0.89441   0.79513   0.75000   0.00000  Uiso   1.00
O1069  O     0.89441   0.87154   0.75000   0.00000  Uiso   1.00
O1070  O     0.77226   0.79513   0.74999   0.00000  Uiso   1.00
O1071  O     0.83333   0.87156   0.68392   0.00000  Uiso   1.00
O1072  O     0.83334   0.79511   0.81607   0.00000  Uiso   1.00
O1073  O     0.83334   0.87156   0.81607   0.00000  Uiso   1.00
O1074  O     0.83333   0.79511   0.68392   0.00000  Uiso   1.00
Zn1075 Zn    0.83333   0.88437   0.75000   0.00000  Uiso   1.00
Zn1076 Zn    0.83333   0.78229   0.75000   0.00000  Uiso   1.00
O1077  O     0.78927   0.90094   0.88334   0.00000  Uiso   1.00
H1078  H     0.76338   0.90840   0.89959   0.00000  Uiso   1.00
O1079  O     0.87740   0.76572   0.61666   0.00000  Uiso   1.00
H1080  H     0.90328   0.75826   0.60041   0.00000  Uiso   1.00
loop_
_geom_bond_atom_site_label_1
_geom_bond_atom_site_label_2
_geom_bond_distance
_geom_bond_site_symmetry_2
_ccdc_geom_bond_type
C1     O50     1.281   .     A
C1     O47     1.281   .     A
C1     C10     1.419   .     S
C2     O49     1.281   .     A
C2     O48     1.281   .     A
C2     C9      1.419   .     S
C3     H35     1.084   .     S
C3     C28     1.396   .     A
C3     C569    1.386   1_554 S
C4     H36     1.084   .     S
C4     C27     1.396   .     A
C4     C570    1.386   .     S
C5     H37     1.084   .     S
C5     C10     1.397   .     A
C5     C127    1.370   1_455 S
C6     C9      1.397   .     A
C6     H38     1.084   .     S
C6     C68     1.370   .     S
C7     C9      1.397   .     A
C7     H39     1.084   .     S
C7     C65     1.370   .     S
C8     H40     1.084   .     S
C8     C10     1.397   .     A
C8     C126    1.370   1_455 S
C11    H41     1.082   .     S
C11    N46     1.366   .     A
C11    C374    1.415   1_545 S
C12    H42     1.082   .     S
C12    N45     1.366   .     A
C12    C193    1.415   .     S
C13    H43     1.082   .     S
C13    N46     1.366   .     A
C13    C372    1.415   1_545 S
C14    H44     1.082   .     S
C14    N45     1.366   .     A
C14    C191    1.415   .     S
C15    O51     1.286   .     A
C15    C20     1.437   .     S
C15    O54     1.284   .     A
C16    O52     1.286   .     A
C16    C19     1.437   .     S
C16    O53     1.284   .     A
C17    C19     1.393   .     A
C17    H31     1.086   .     S
C17    C27     1.379   .     A
C18    H32     1.086   .     S
C18    C28     1.379   .     A
C18    C20     1.393   .     A
C19    C21     1.404   .     A
C20    C22     1.404   .     A
C21    O57     1.382   .     S
C21    C23     1.404   .     A
C22    C24     1.404   .     A
C22    O59     1.382   .     S
C23    C29     1.406   .     A
C23    C25     1.418   .     A
C24    C26     1.418   .     A
C24    C30     1.406   .     A
C25    C27     1.409   .     A
C25    C566    1.397   .     S
C26    C28     1.409   .     A
C26    C565    1.397   1_554 S
C29    H33     1.081   .     S
C29    C543    1.386   .     S
C30    H34     1.081   .     S
C30    C544    1.386   1_554 S
N45    Zn55    2.006   .     S
N46    Zn56    2.006   .     S
O47    Zn55    2.000   .     S
O48    Zn56    2.000   .     S
O49    Zn55    2.000   .     S
O50    Zn56    2.000   .     S
O51    Zn55    2.017   .     S
O52    Zn56    2.017   .     S
O53    Zn55    2.020   .     S
O54    Zn56    2.020   .     S
O57    H58     0.990   .     S
O59    H60     0.990   .     S
C61    O110    1.281   .     A
C61    O107    1.281   .     A
C61    C70     1.419   .     S
C62    O109    1.281   .     A
C62    O108    1.281   .     A
C62    C69     1.419   .     S
C63    H95     1.084   .     S
C63    C88     1.396   .     A
C63    C629    1.386   1_554 S
C64    H96     1.084   .     S
C64    C87     1.396   .     A
C64    C630    1.386   .     S
C65    H97     1.084   .     S
C65    C70     1.397   .     A
C66    C69     1.397   .     A
C66    H98     1.084   .     S
C66    C128    1.370   .     S
C67    C69     1.397   .     A
C67    H99     1.084   .     S
C67    C125    1.370   .     S
C68    H100    1.084   .     S
C68    C70     1.397   .     A
C71    H101    1.082   .     S
C71    N106    1.366   .     A
C71    C434    1.415   1_545 S
C72    H102    1.082   .     S
C72    N105    1.366   .     A
C72    C253    1.415   .     S
C73    H103    1.082   .     S
C73    N106    1.366   .     A
C73    C432    1.415   1_545 S
C74    H104    1.082   .     S
C74    N105    1.366   .     A
C74    C251    1.415   .     S
C75    O111    1.286   .     A
C75    C80     1.437   .     S
C75    O114    1.284   .     A
C76    O112    1.286   .     A
C76    C79     1.437   .     S
C76    O113    1.284   .     A
C77    C79     1.393   .     A
C77    H91     1.086   .     S
C77    C87     1.379   .     A
C78    H92     1.086   .     S
C78    C88     1.379   .     A
C78    C80     1.393   .     A
C79    C81     1.404   .     A
C80    C82     1.404   .     A
C81    O117    1.382   .     S
C81    C83     1.404   .     A
C82    C84     1.404   .     A
C82    O119    1.382   .     S
C83    C89     1.406   .     A
C83    C85     1.418   .     A
C84    C86     1.418   .     A
C84    C90     1.406   .     A
C85    C87     1.409   .     A
C85    C626    1.397   .     S
C86    C88     1.409   .     A
C86    C625    1.397   1_554 S
C89    H93     1.081   .     S
C89    C603    1.386   .     S
C90    H94     1.081   .     S
C90    C604    1.386   1_554 S
N105   Zn115   2.006   .     S
N106   Zn116   2.006   .     S
O107   Zn115   2.000   .     S
O108   Zn116   2.000   .     S
O109   Zn115   2.000   .     S
O110   Zn116   2.000   .     S
O111   Zn115   2.017   .     S
O112   Zn116   2.017   .     S
O113   Zn115   2.020   .     S
O114   Zn116   2.020   .     S
O117   H118    0.990   .     S
O119   H120    0.990   .     S
C121   O170    1.281   .     A
C121   O167    1.281   .     A
C121   C130    1.419   .     S
C122   O169    1.281   .     A
C122   O168    1.281   .     A
C122   C129    1.419   .     S
C123   H155    1.084   .     S
C123   C148    1.396   .     A
C123   C689    1.386   1_554 S
C124   H156    1.084   .     S
C124   C147    1.396   .     A
C124   C690    1.386   .     S
C125   H157    1.084   .     S
C125   C130    1.397   .     A
C126   C129    1.397   .     A
C126   H158    1.084   .     S
C126   C8      1.370   1_655 S
C127   C129    1.397   .     A
C127   H159    1.084   .     S
C127   C5      1.370   1_655 S
C128   H160    1.084   .     S
C128   C130    1.397   .     A
C131   H161    1.082   .     S
C131   N166    1.366   .     A
C131   C494    1.415   1_545 S
C132   H162    1.082   .     S
C132   N165    1.366   .     A
C132   C313    1.415   .     S
C133   H163    1.082   .     S
C133   N166    1.366   .     A
C133   C492    1.415   1_545 S
C134   H164    1.082   .     S
C134   N165    1.366   .     A
C134   C311    1.415   .     S
C135   O171    1.286   .     A
C135   C140    1.437   .     S
C135   O174    1.284   .     A
C136   O172    1.286   .     A
C136   C139    1.437   .     S
C136   O173    1.284   .     A
C137   C139    1.393   .     A
C137   H151    1.086   .     S
C137   C147    1.379   .     A
C138   H152    1.086   .     S
C138   C148    1.379   .     A
C138   C140    1.393   .     A
C139   C141    1.404   .     A
C140   C142    1.404   .     A
C141   O177    1.382   .     S
C141   C143    1.404   .     A
C142   C144    1.404   .     A
C142   O179    1.382   .     S
C143   C149    1.406   .     A
C143   C145    1.418   .     A
C144   C146    1.418   .     A
C144   C150    1.406   .     A
C145   C147    1.409   .     A
C145   C686    1.397   .     S
C146   C148    1.409   .     A
C146   C685    1.397   1_554 S
C149   H153    1.081   .     S
C149   C663    1.386   .     S
C150   H154    1.081   .     S
C150   C664    1.386   1_554 S
N165   Zn175   2.006   .     S
N166   Zn176   2.006   .     S
O167   Zn175   2.000   .     S
O168   Zn176   2.000   .     S
O169   Zn175   2.000   .     S
O170   Zn176   2.000   .     S
O171   Zn175   2.017   .     S
O172   Zn176   2.017   .     S
O173   Zn175   2.020   .     S
O174   Zn176   2.020   .     S
O177   H178    0.990   .     S
O179   H180    0.990   .     S
C181   O230    1.281   .     A
C181   O227    1.281   .     A
C181   C190    1.419   .     S
C182   O229    1.281   .     A
C182   O228    1.281   .     A
C182   C189    1.419   .     S
C183   H215    1.084   .     S
C183   C208    1.396   .     A
C183   C749    1.386   1_554 S
C184   H216    1.084   .     S
C184   C207    1.396   .     A
C184   C750    1.386   .     S
C185   H217    1.084   .     S
C185   C190    1.397   .     A
C185   C307    1.370   1_455 S
C186   C189    1.397   .     A
C186   H218    1.084   .     S
C186   C248    1.370   .     S
C187   C189    1.397   .     A
C187   H219    1.084   .     S
C187   C245    1.370   .     S
C188   H220    1.084   .     S
C188   C190    1.397   .     A
C188   C306    1.370   1_455 S
C191   H221    1.082   .     S
C191   N226    1.366   .     A
C192   H222    1.082   .     S
C192   N225    1.366   .     A
C192   C373    1.415   .     S
C193   H223    1.082   .     S
C193   N226    1.366   .     A
C194   H224    1.082   .     S
C194   N225    1.366   .     A
C194   C371    1.415   .     S
C195   O231    1.286   .     A
C195   C200    1.437   .     S
C195   O234    1.284   .     A
C196   O232    1.286   .     A
C196   C199    1.437   .     S
C196   O233    1.284   .     A
C197   C199    1.393   .     A
C197   H211    1.086   .     S
C197   C207    1.379   .     A
C198   H212    1.086   .     S
C198   C208    1.379   .     A
C198   C200    1.393   .     A
C199   C201    1.404   .     A
C200   C202    1.404   .     A
C201   O237    1.382   .     S
C201   C203    1.404   .     A
C202   C204    1.404   .     A
C202   O239    1.382   .     S
C203   C209    1.406   .     A
C203   C205    1.418   .     A
C204   C206    1.418   .     A
C204   C210    1.406   .     A
C205   C207    1.409   .     A
C205   C746    1.397   .     S
C206   C208    1.409   .     A
C206   C745    1.397   1_554 S
C209   H213    1.081   .     S
C209   C723    1.386   .     S
C210   H214    1.081   .     S
C210   C724    1.386   1_554 S
N225   Zn235   2.006   .     S
N226   Zn236   2.006   .     S
O227   Zn235   2.000   .     S
O228   Zn236   2.000   .     S
O229   Zn235   2.000   .     S
O230   Zn236   2.000   .     S
O231   Zn235   2.017   .     S
O232   Zn236   2.017   .     S
O233   Zn235   2.020   .     S
O234   Zn236   2.020   .     S
O237   H238    0.990   .     S
O239   H240    0.990   .     S
C241   O290    1.281   .     A
C241   O287    1.281   .     A
C241   C250    1.419   .     S
C242   O289    1.281   .     A
C242   O288    1.281   .     A
C242   C249    1.419   .     S
C243   H275    1.084   .     S
C243   C268    1.396   .     A
C243   C809    1.386   1_554 S
C244   H276    1.084   .     S
C244   C267    1.396   .     A
C244   C810    1.386   .     S
C245   H277    1.084   .     S
C245   C250    1.397   .     A
C246   C249    1.397   .     A
C246   H278    1.084   .     S
C246   C308    1.370   .     S
C247   C249    1.397   .     A
C247   H279    1.084   .     S
C247   C305    1.370   .     S
C248   H280    1.084   .     S
C248   C250    1.397   .     A
C251   H281    1.082   .     S
C251   N286    1.366   .     A
C252   H282    1.082   .     S
C252   N285    1.366   .     A
C252   C433    1.415   .     S
C253   H283    1.082   .     S
C253   N286    1.366   .     A
C254   H284    1.082   .     S
C254   N285    1.366   .     A
C254   C431    1.415   .     S
C255   O291    1.286   .     A
C255   C260    1.437   .     S
C255   O294    1.284   .     A
C256   O292    1.286   .     A
C256   C259    1.437   .     S
C256   O293    1.284   .     A
C257   C259    1.393   .     A
C257   H271    1.086   .     S
C257   C267    1.379   .     A
C258   H272    1.086   .     S
C258   C268    1.379   .     A
C258   C260    1.393   .     A
C259   C261    1.404   .     A
C260   C262    1.404   .     A
C261   O297    1.382   .     S
C261   C263    1.404   .     A
C262   C264    1.404   .     A
C262   O299    1.382   .     S
C263   C269    1.406   .     A
C263   C265    1.418   .     A
C264   C266    1.418   .     A
C264   C270    1.406   .     A
C265   C267    1.409   .     A
C265   C806    1.397   .     S
C266   C268    1.409   .     A
C266   C805    1.397   1_554 S
C269   H273    1.081   .     S
C269   C783    1.386   .     S
C270   H274    1.081   .     S
C270   C784    1.386   1_554 S
N285   Zn295   2.006   .     S
N286   Zn296   2.006   .     S
O287   Zn295   2.000   .     S
O288   Zn296   2.000   .     S
O289   Zn295   2.000   .     S
O290   Zn296   2.000   .     S
O291   Zn295   2.017   .     S
O292   Zn296   2.017   .     S
O293   Zn295   2.020   .     S
O294   Zn296   2.020   .     S
O297   H298    0.990   .     S
O299   H300    0.990   .     S
C301   O350    1.281   .     A
C301   O347    1.281   .     A
C301   C310    1.419   .     S
C302   O349    1.281   .     A
C302   O348    1.281   .     A
C302   C309    1.419   .     S
C303   H335    1.084   .     S
C303   C328    1.396   .     A
C303   C869    1.386   1_554 S
C304   H336    1.084   .     S
C304   C327    1.396   .     A
C304   C870    1.386   .     S
C305   H337    1.084   .     S
C305   C310    1.397   .     A
C306   C309    1.397   .     A
C306   H338    1.084   .     S
C306   C188    1.370   1_655 S
C307   C309    1.397   .     A
C307   H339    1.084   .     S
C307   C185    1.370   1_655 S
C308   H340    1.084   .     S
C308   C310    1.397   .     A
C311   H341    1.082   .     S
C311   N346    1.366   .     A
C312   H342    1.082   .     S
C312   N345    1.366   .     A
C312   C493    1.415   .     S
C313   H343    1.082   .     S
C313   N346    1.366   .     A
C314   H344    1.082   .     S
C314   N345    1.366   .     A
C314   C491    1.415   .     S
C315   O351    1.286   .     A
C315   C320    1.437   .     S
C315   O354    1.284   .     A
C316   O352    1.286   .     A
C316   C319    1.437   .     S
C316   O353    1.284   .     A
C317   C319    1.393   .     A
C317   H331    1.086   .     S
C317   C327    1.379   .     A
C318   H332    1.086   .     S
C318   C328    1.379   .     A
C318   C320    1.393   .     A
C319   C321    1.404   .     A
C320   C322    1.404   .     A
C321   O357    1.382   .     S
C321   C323    1.404   .     A
C322   C324    1.404   .     A
C322   O359    1.382   .     S
C323   C329    1.406   .     A
C323   C325    1.418   .     A
C324   C326    1.418   .     A
C324   C330    1.406   .     A
C325   C327    1.409   .     A
C325   C866    1.397   .     S
C326   C328    1.409   .     A
C326   C865    1.397   1_554 S
C329   H333    1.081   .     S
C329   C843    1.386   .     S
C330   H334    1.081   .     S
C330   C844    1.386   1_554 S
N345   Zn355   2.006   .     S
N346   Zn356   2.006   .     S
O347   Zn355   2.000   .     S
O348   Zn356   2.000   .     S
O349   Zn355   2.000   .     S
O350   Zn356   2.000   .     S
O351   Zn355   2.017   .     S
O352   Zn356   2.017   .     S
O353   Zn355   2.020   .     S
O354   Zn356   2.020   .     S
O357   H358    0.990   .     S
O359   H360    0.990   .     S
C361   O410    1.281   .     A
C361   O407    1.281   .     A
C361   C370    1.419   .     S
C362   O409    1.281   .     A
C362   O408    1.281   .     A
C362   C369    1.419   .     S
C363   H395    1.084   .     S
C363   C388    1.396   .     A
C363   C929    1.386   1_554 S
C364   H396    1.084   .     S
C364   C387    1.396   .     A
C364   C930    1.386   .     S
C365   H397    1.084   .     S
C365   C370    1.397   .     A
C365   C487    1.370   1_455 S
C366   C369    1.397   .     A
C366   H398    1.084   .     S
C366   C428    1.370   .     S
C367   C369    1.397   .     A
C367   H399    1.084   .     S
C367   C425    1.370   .     S
C368   H400    1.084   .     S
C368   C370    1.397   .     A
C368   C486    1.370   1_455 S
C371   H401    1.082   .     S
C371   N406    1.366   .     A
C372   H402    1.082   .     S
C372   N405    1.366   .     A
C372   C13     1.415   1_565 S
C373   H403    1.082   .     S
C373   N406    1.366   .     A
C374   H404    1.082   .     S
C374   N405    1.366   .     A
C374   C11     1.415   1_565 S
C375   O411    1.286   .     A
C375   C380    1.437   .     S
C375   O414    1.284   .     A
C376   O412    1.286   .     A
C376   C379    1.437   .     S
C376   O413    1.284   .     A
C377   C379    1.393   .     A
C377   H391    1.086   .     S
C377   C387    1.379   .     A
C378   H392    1.086   .     S
C378   C388    1.379   .     A
C378   C380    1.393   .     A
C379   C381    1.404   .     A
C380   C382    1.404   .     A
C381   O417    1.382   .     S
C381   C383    1.404   .     A
C382   C384    1.404   .     A
C382   O419    1.382   .     S
C383   C389    1.406   .     A
C383   C385    1.418   .     A
C384   C386    1.418   .     A
C384   C390    1.406   .     A
C385   C387    1.409   .     A
C385   C926    1.397   .     S
C386   C388    1.409   .     A
C386   C925    1.397   1_554 S
C389   H393    1.081   .     S
C389   C903    1.386   .     S
C390   H394    1.081   .     S
C390   C904    1.386   1_554 S
N405   Zn415   2.006   .     S
N406   Zn416   2.006   .     S
O407   Zn415   2.000   .     S
O408   Zn416   2.000   .     S
O409   Zn415   2.000   .     S
O410   Zn416   2.000   .     S
O411   Zn415   2.017   .     S
O412   Zn416   2.017   .     S
O413   Zn415   2.020   .     S
O414   Zn416   2.020   .     S
O417   H418    0.990   .     S
O419   H420    0.990   .     S
C421   O470    1.281   .     A
C421   O467    1.281   .     A
C421   C430    1.419   .     S
C422   O469    1.281   .     A
C422   O468    1.281   .     A
C422   C429    1.419   .     S
C423   H455    1.084   .     S
C423   C448    1.396   .     A
C423   C989    1.386   1_554 S
C424   H456    1.084   .     S
C424   C447    1.396   .     A
C424   C990    1.386   .     S
C425   H457    1.084   .     S
C425   C430    1.397   .     A
C426   C429    1.397   .     A
C426   H458    1.084   .     S
C426   C488    1.370   .     S
C427   C429    1.397   .     A
C427   H459    1.084   .     S
C427   C485    1.370   .     S
C428   H460    1.084   .     S
C428   C430    1.397   .     A
C431   H461    1.082   .     S
C431   N466    1.366   .     A
C432   H462    1.082   .     S
C432   N465    1.366   .     A
C432   C73     1.415   1_565 S
C433   H463    1.082   .     S
C433   N466    1.366   .     A
C434   H464    1.082   .     S
C434   N465    1.366   .     A
C434   C71     1.415   1_565 S
C435   O471    1.286   .     A
C435   C440    1.437   .     S
C435   O474    1.284   .     A
C436   O472    1.286   .     A
C436   C439    1.437   .     S
C436   O473    1.284   .     A
C437   C439    1.393   .     A
C437   H451    1.086   .     S
C437   C447    1.379   .     A
C438   H452    1.086   .     S
C438   C448    1.379   .     A
C438   C440    1.393   .     A
C439   C441    1.404   .     A
C440   C442    1.404   .     A
C441   O477    1.382   .     S
C441   C443    1.404   .     A
C442   C444    1.404   .     A
C442   O479    1.382   .     S
C443   C449    1.406   .     A
C443   C445    1.418   .     A
C444   C446    1.418   .     A
C444   C450    1.406   .     A
C445   C447    1.409   .     A
C445   C986    1.397   .     S
C446   C448    1.409   .     A
C446   C985    1.397   1_554 S
C449   H453    1.081   .     S
C449   C963    1.386   .     S
C450   H454    1.081   .     S
C450   C964    1.386   1_554 S
N465   Zn475   2.006   .     S
N466   Zn476   2.006   .     S
O467   Zn475   2.000   .     S
O468   Zn476   2.000   .     S
O469   Zn475   2.000   .     S
O470   Zn476   2.000   .     S
O471   Zn475   2.017   .     S
O472   Zn476   2.017   .     S
O473   Zn475   2.020   .     S
O474   Zn476   2.020   .     S
O477   H478    0.990   .     S
O479   H480    0.990   .     S
C481   O530    1.281   .     A
C481   O527    1.281   .     A
C481   C490    1.419   .     S
C482   O529    1.281   .     A
C482   O528    1.281   .     A
C482   C489    1.419   .     S
C483   H515    1.084   .     S
C483   C508    1.396   .     A
C483   C1049   1.386   1_554 S
C484   H516    1.084   .     S
C484   C507    1.396   .     A
C484   C1050   1.386   .     S
C485   H517    1.084   .     S
C485   C490    1.397   .     A
C486   C489    1.397   .     A
C486   H518    1.084   .     S
C486   C368    1.370   1_655 S
C487   C489    1.397   .     A
C487   H519    1.084   .     S
C487   C365    1.370   1_655 S
C488   H520    1.084   .     S
C488   C490    1.397   .     A
C491   H521    1.082   .     S
C491   N526    1.366   .     A
C492   H522    1.082   .     S
C492   N525    1.366   .     A
C492   C133    1.415   1_565 S
C493   H523    1.082   .     S
C493   N526    1.366   .     A
C494   H524    1.082   .     S
C494   N525    1.366   .     A
C494   C131    1.415   1_565 S
C495   O531    1.286   .     A
C495   C500    1.437   .     S
C495   O534    1.284   .     A
C496   O532    1.286   .     A
C496   C499    1.437   .     S
C496   O533    1.284   .     A
C497   C499    1.393   .     A
C497   H511    1.086   .     S
C497   C507    1.379   .     A
C498   H512    1.086   .     S
C498   C508    1.379   .     A
C498   C500    1.393   .     A
C499   C501    1.404   .     A
C500   C502    1.404   .     A
C501   O537    1.382   .     S
C501   C503    1.404   .     A
C502   C504    1.404   .     A
C502   O539    1.382   .     S
C503   C509    1.406   .     A
C503   C505    1.418   .     A
C504   C506    1.418   .     A
C504   C510    1.406   .     A
C505   C507    1.409   .     A
C505   C1046   1.397   .     S
C506   C508    1.409   .     A
C506   C1045   1.397   1_554 S
C509   H513    1.081   .     S
C509   C1023   1.386   .     S
C510   H514    1.081   .     S
C510   C1024   1.386   1_554 S
N525   Zn535   2.006   .     S
N526   Zn536   2.006   .     S
O527   Zn535   2.000   .     S
O528   Zn536   2.000   .     S
O529   Zn535   2.000   .     S
O530   Zn536   2.000   .     S
O531   Zn535   2.017   .     S
O532   Zn536   2.017   .     S
O533   Zn535   2.020   .     S
O534   Zn536   2.020   .     S
O537   H538    0.990   .     S
O539   H540    0.990   .     S
C541   O590    1.281   .     A
C541   O587    1.281   .     A
C541   C550    1.419   .     S
C542   O589    1.281   .     A
C542   O588    1.281   .     A
C542   C549    1.419   .     S
C543   H575    1.084   .     S
C543   C568    1.396   .     A
C544   H576    1.084   .     S
C544   C567    1.396   .     A
C544   C30     1.386   1_556 S
C545   H577    1.084   .     S
C545   C550    1.397   .     A
C545   C667    1.370   1_455 S
C546   C549    1.397   .     A
C546   H578    1.084   .     S
C546   C608    1.370   .     S
C547   C549    1.397   .     A
C547   H579    1.084   .     S
C547   C605    1.370   .     S
C548   H580    1.084   .     S
C548   C550    1.397   .     A
C548   C666    1.370   1_455 S
C551   H581    1.082   .     S
C551   N586    1.366   .     A
C551   C914    1.415   1_545 S
C552   H582    1.082   .     S
C552   N585    1.366   .     A
C552   C733    1.415   .     S
C553   H583    1.082   .     S
C553   N586    1.366   .     A
C553   C912    1.415   1_545 S
C554   H584    1.082   .     S
C554   N585    1.366   .     A
C554   C731    1.415   .     S
C555   O591    1.286   .     A
C555   C560    1.437   .     S
C555   O594    1.284   .     A
C556   O592    1.286   .     A
C556   C559    1.437   .     S
C556   O593    1.284   .     A
C557   C559    1.393   .     A
C557   H571    1.086   .     S
C557   C567    1.379   .     A
C558   H572    1.086   .     S
C558   C568    1.379   .     A
C558   C560    1.393   .     A
C559   C561    1.404   .     A
C560   C562    1.404   .     A
C561   O597    1.382   .     S
C561   C563    1.404   .     A
C562   C564    1.404   .     A
C562   O599    1.382   .     S
C563   C569    1.406   .     A
C563   C565    1.418   .     A
C564   C566    1.418   .     A
C564   C570    1.406   .     A
C565   C567    1.409   .     A
C565   C26     1.397   1_556 S
C566   C568    1.409   .     A
C569   H573    1.081   .     S
C569   C3      1.386   1_556 S
C570   H574    1.081   .     S
N585   Zn595   2.006   .     S
N586   Zn596   2.006   .     S
O587   Zn595   2.000   .     S
O588   Zn596   2.000   .     S
O589   Zn595   2.000   .     S
O590   Zn596   2.000   .     S
O591   Zn595   2.017   .     S
O592   Zn596   2.017   .     S
O593   Zn595   2.020   .     S
O594   Zn596   2.020   .     S
O597   H598    0.990   .     S
O599   H600    0.990   .     S
C601   O650    1.281   .     A
C601   O647    1.281   .     A
C601   C610    1.419   .     S
C602   O649    1.281   .     A
C602   O648    1.281   .     A
C602   C609    1.419   .     S
C603   H635    1.084   .     S
C603   C628    1.396   .     A
C604   H636    1.084   .     S
C604   C627    1.396   .     A
C604   C90     1.386   1_556 S
C605   H637    1.084   .     S
C605   C610    1.397   .     A
C606   C609    1.397   .     A
C606   H638    1.084   .     S
C606   C668    1.370   .     S
C607   C609    1.397   .     A
C607   H639    1.084   .     S
C607   C665    1.370   .     S
C608   H640    1.084   .     S
C608   C610    1.397   .     A
C611   H641    1.082   .     S
C611   N646    1.366   .     A
C611   C974    1.415   1_545 S
C612   H642    1.082   .     S
C612   N645    1.366   .     A
C612   C793    1.415   .     S
C613   H643    1.082   .     S
C613   N646    1.366   .     A
C613   C972    1.415   1_545 S
C614   H644    1.082   .     S
C614   N645    1.366   .     A
C614   C791    1.415   .     S
C615   O651    1.286   .     A
C615   C620    1.437   .     S
C615   O654    1.284   .     A
C616   O652    1.286   .     A
C616   C619    1.437   .     S
C616   O653    1.284   .     A
C617   C619    1.393   .     A
C617   H631    1.086   .     S
C617   C627    1.379   .     A
C618   H632    1.086   .     S
C618   C628    1.379   .     A
C618   C620    1.393   .     A
C619   C621    1.404   .     A
C620   C622    1.404   .     A
C621   O657    1.382   .     S
C621   C623    1.404   .     A
C622   C624    1.404   .     A
C622   O659    1.382   .     S
C623   C629    1.406   .     A
C623   C625    1.418   .     A
C624   C626    1.418   .     A
C624   C630    1.406   .     A
C625   C627    1.409   .     A
C625   C86     1.397   1_556 S
C626   C628    1.409   .     A
C629   H633    1.081   .     S
C629   C63     1.386   1_556 S
C630   H634    1.081   .     S
N645   Zn655   2.006   .     S
N646   Zn656   2.006   .     S
O647   Zn655   2.000   .     S
O648   Zn656   2.000   .     S
O649   Zn655   2.000   .     S
O650   Zn656   2.000   .     S
O651   Zn655   2.017   .     S
O652   Zn656   2.017   .     S
O653   Zn655   2.020   .     S
O654   Zn656   2.020   .     S
O657   H658    0.990   .     S
O659   H660    0.990   .     S
C661   O710    1.281   .     A
C661   O707    1.281   .     A
C661   C670    1.419   .     S
C662   O709    1.281   .     A
C662   O708    1.281   .     A
C662   C669    1.419   .     S
C663   H695    1.084   .     S
C663   C688    1.396   .     A
C664   H696    1.084   .     S
C664   C687    1.396   .     A
C664   C150    1.386   1_556 S
C665   H697    1.084   .     S
C665   C670    1.397   .     A
C666   C669    1.397   .     A
C666   H698    1.084   .     S
C666   C548    1.370   1_655 S
C667   C669    1.397   .     A
C667   H699    1.084   .     S
C667   C545    1.370   1_655 S
C668   H700    1.084   .     S
C668   C670    1.397   .     A
C671   H701    1.082   .     S
C671   N706    1.366   .     A
C671   C1034   1.415   1_545 S
C672   H702    1.082   .     S
C672   N705    1.366   .     A
C672   C853    1.415   .     S
C673   H703    1.082   .     S
C673   N706    1.366   .     A
C673   C1032   1.415   1_545 S
C674   H704    1.082   .     S
C674   N705    1.366   .     A
C674   C851    1.415   .     S
C675   O711    1.286   .     A
C675   C680    1.437   .     S
C675   O714    1.284   .     A
C676   O712    1.286   .     A
C676   C679    1.437   .     S
C676   O713    1.284   .     A
C677   C679    1.393   .     A
C677   H691    1.086   .     S
C677   C687    1.379   .     A
C678   H692    1.086   .     S
C678   C688    1.379   .     A
C678   C680    1.393   .     A
C679   C681    1.404   .     A
C680   C682    1.404   .     A
C681   O717    1.382   .     S
C681   C683    1.404   .     A
C682   C684    1.404   .     A
C682   O719    1.382   .     S
C683   C689    1.406   .     A
C683   C685    1.418   .     A
C684   C686    1.418   .     A
C684   C690    1.406   .     A
C685   C687    1.409   .     A
C685   C146    1.397   1_556 S
C686   C688    1.409   .     A
C689   H693    1.081   .     S
C689   C123    1.386   1_556 S
C690   H694    1.081   .     S
N705   Zn715   2.006   .     S
N706   Zn716   2.006   .     S
O707   Zn715   2.000   .     S
O708   Zn716   2.000   .     S
O709   Zn715   2.000   .     S
O710   Zn716   2.000   .     S
O711   Zn715   2.017   .     S
O712   Zn716   2.017   .     S
O713   Zn715   2.020   .     S
O714   Zn716   2.020   .     S
O717   H718    0.990   .     S
O719   H720    0.990   .     S
C721   O770    1.281   .     A
C721   O767    1.281   .     A
C721   C730    1.419   .     S
C722   O769    1.281   .     A
C722   O768    1.281   .     A
C722   C729    1.419   .     S
C723   H755    1.084   .     S
C723   C748    1.396   .     A
C724   H756    1.084   .     S
C724   C747    1.396   .     A
C724   C210    1.386   1_556 S
C725   H757    1.084   .     S
C725   C730    1.397   .     A
C725   C847    1.370   1_455 S
C726   C729    1.397   .     A
C726   H758    1.084   .     S
C726   C788    1.370   .     S
C727   C729    1.397   .     A
C727   H759    1.084   .     S
C727   C785    1.370   .     S
C728   H760    1.084   .     S
C728   C730    1.397   .     A
C728   C846    1.370   1_455 S
C731   H761    1.082   .     S
C731   N766    1.366   .     A
C732   H762    1.082   .     S
C732   N765    1.366   .     A
C732   C913    1.415   .     S
C733   H763    1.082   .     S
C733   N766    1.366   .     A
C734   H764    1.082   .     S
C734   N765    1.366   .     A
C734   C911    1.415   .     S
C735   O771    1.286   .     A
C735   C740    1.437   .     S
C735   O774    1.284   .     A
C736   O772    1.286   .     A
C736   C739    1.437   .     S
C736   O773    1.284   .     A
C737   C739    1.393   .     A
C737   H751    1.086   .     S
C737   C747    1.379   .     A
C738   H752    1.086   .     S
C738   C748    1.379   .     A
C738   C740    1.393   .     A
C739   C741    1.404   .     A
C740   C742    1.404   .     A
C741   O777    1.382   .     S
C741   C743    1.404   .     A
C742   C744    1.404   .     A
C742   O779    1.382   .     S
C743   C749    1.406   .     A
C743   C745    1.418   .     A
C744   C746    1.418   .     A
C744   C750    1.406   .     A
C745   C747    1.409   .     A
C745   C206    1.397   1_556 S
C746   C748    1.409   .     A
C749   H753    1.081   .     S
C749   C183    1.386   1_556 S
C750   H754    1.081   .     S
N765   Zn775   2.006   .     S
N766   Zn776   2.006   .     S
O767   Zn775   2.000   .     S
O768   Zn776   2.000   .     S
O769   Zn775   2.000   .     S
O770   Zn776   2.000   .     S
O771   Zn775   2.017   .     S
O772   Zn776   2.017   .     S
O773   Zn775   2.020   .     S
O774   Zn776   2.020   .     S
O777   H778    0.990   .     S
O779   H780    0.990   .     S
C781   O830    1.281   .     A
C781   O827    1.281   .     A
C781   C790    1.419   .     S
C782   O829    1.281   .     A
C782   O828    1.281   .     A
C782   C789    1.419   .     S
C783   H815    1.084   .     S
C783   C808    1.396   .     A
C784   H816    1.084   .     S
C784   C807    1.396   .     A
C784   C270    1.386   1_556 S
C785   H817    1.084   .     S
C785   C790    1.397   .     A
C786   C789    1.397   .     A
C786   H818    1.084   .     S
C786   C848    1.370   .     S
C787   C789    1.397   .     A
C787   H819    1.084   .     S
C787   C845    1.370   .     S
C788   H820    1.084   .     S
C788   C790    1.397   .     A
C791   H821    1.082   .     S
C791   N826    1.366   .     A
C792   H822    1.082   .     S
C792   N825    1.366   .     A
C792   C973    1.415   .     S
C793   H823    1.082   .     S
C793   N826    1.366   .     A
C794   H824    1.082   .     S
C794   N825    1.366   .     A
C794   C971    1.415   .     S
C795   O831    1.286   .     A
C795   C800    1.437   .     S
C795   O834    1.284   .     A
C796   O832    1.286   .     A
C796   C799    1.437   .     S
C796   O833    1.284   .     A
C797   C799    1.393   .     A
C797   H811    1.086   .     S
C797   C807    1.379   .     A
C798   H812    1.086   .     S
C798   C808    1.379   .     A
C798   C800    1.393   .     A
C799   C801    1.404   .     A
C800   C802    1.404   .     A
C801   O837    1.382   .     S
C801   C803    1.404   .     A
C802   C804    1.404   .     A
C802   O839    1.382   .     S
C803   C809    1.406   .     A
C803   C805    1.418   .     A
C804   C806    1.418   .     A
C804   C810    1.406   .     A
C805   C807    1.409   .     A
C805   C266    1.397   1_556 S
C806   C808    1.409   .     A
C809   H813    1.081   .     S
C809   C243    1.386   1_556 S
C810   H814    1.081   .     S
N825   Zn835   2.006   .     S
N826   Zn836   2.006   .     S
O827   Zn835   2.000   .     S
O828   Zn836   2.000   .     S
O829   Zn835   2.000   .     S
O830   Zn836   2.000   .     S
O831   Zn835   2.017   .     S
O832   Zn836   2.017   .     S
O833   Zn835   2.020   .     S
O834   Zn836   2.020   .     S
O837   H838    0.990   .     S
O839   H840    0.990   .     S
C841   O890    1.281   .     A
C841   O887    1.281   .     A
C841   C850    1.419   .     S
C842   O889    1.281   .     A
C842   O888    1.281   .     A
C842   C849    1.419   .     S
C843   H875    1.084   .     S
C843   C868    1.396   .     A
C844   H876    1.084   .     S
C844   C867    1.396   .     A
C844   C330    1.386   1_556 S
C845   H877    1.084   .     S
C845   C850    1.397   .     A
C846   C849    1.397   .     A
C846   H878    1.084   .     S
C846   C728    1.370   1_655 S
C847   C849    1.397   .     A
C847   H879    1.084   .     S
C847   C725    1.370   1_655 S
C848   H880    1.084   .     S
C848   C850    1.397   .     A
C851   H881    1.082   .     S
C851   N886    1.366   .     A
C852   H882    1.082   .     S
C852   N885    1.366   .     A
C852   C1033   1.415   .     S
C853   H883    1.082   .     S
C853   N886    1.366   .     A
C854   H884    1.082   .     S
C854   N885    1.366   .     A
C854   C1031   1.415   .     S
C855   O891    1.286   .     A
C855   C860    1.437   .     S
C855   O894    1.284   .     A
C856   O892    1.286   .     A
C856   C859    1.437   .     S
C856   O893    1.284   .     A
C857   C859    1.393   .     A
C857   H871    1.086   .     S
C857   C867    1.379   .     A
C858   H872    1.086   .     S
C858   C868    1.379   .     A
C858   C860    1.393   .     A
C859   C861    1.404   .     A
C860   C862    1.404   .     A
C861   O897    1.382   .     S
C861   C863    1.404   .     A
C862   C864    1.404   .     A
C862   O899    1.382   .     S
C863   C869    1.406   .     A
C863   C865    1.418   .     A
C864   C866    1.418   .     A
C864   C870    1.406   .     A
C865   C867    1.409   .     A
C865   C326    1.397   1_556 S
C866   C868    1.409   .     A
C869   H873    1.081   .     S
C869   C303    1.386   1_556 S
C870   H874    1.081   .     S
N885   Zn895   2.006   .     S
N886   Zn896   2.006   .     S
O887   Zn895   2.000   .     S
O888   Zn896   2.000   .     S
O889   Zn895   2.000   .     S
O890   Zn896   2.000   .     S
O891   Zn895   2.017   .     S
O892   Zn896   2.017   .     S
O893   Zn895   2.020   .     S
O894   Zn896   2.020   .     S
O897   H898    0.990   .     S
O899   H900    0.990   .     S
C901   O950    1.281   .     A
C901   O947    1.281   .     A
C901   C910    1.419   .     S
C902   O949    1.281   .     A
C902   O948    1.281   .     A
C902   C909    1.419   .     S
C903   H935    1.084   .     S
C903   C928    1.396   .     A
C904   H936    1.084   .     S
C904   C927    1.396   .     A
C904   C390    1.386   1_556 S
C905   H937    1.084   .     S
C905   C910    1.397   .     A
C905   C1027   1.370   1_455 S
C906   C909    1.397   .     A
C906   H938    1.084   .     S
C906   C968    1.370   .     S
C907   C909    1.397   .     A
C907   H939    1.084   .     S
C907   C965    1.370   .     S
C908   H940    1.084   .     S
C908   C910    1.397   .     A
C908   C1026   1.370   1_455 S
C911   H941    1.082   .     S
C911   N946    1.366   .     A
C912   H942    1.082   .     S
C912   N945    1.366   .     A
C912   C553    1.415   1_565 S
C913   H943    1.082   .     S
C913   N946    1.366   .     A
C914   H944    1.082   .     S
C914   N945    1.366   .     A
C914   C551    1.415   1_565 S
C915   O951    1.286   .     A
C915   C920    1.437   .     S
C915   O954    1.284   .     A
C916   O952    1.286   .     A
C916   C919    1.437   .     S
C916   O953    1.284   .     A
C917   C919    1.393   .     A
C917   H931    1.086   .     S
C917   C927    1.379   .     A
C918   H932    1.086   .     S
C918   C928    1.379   .     A
C918   C920    1.393   .     A
C919   C921    1.404   .     A
C920   C922    1.404   .     A
C921   O957    1.382   .     S
C921   C923    1.404   .     A
C922   C924    1.404   .     A
C922   O959    1.382   .     S
C923   C929    1.406   .     A
C923   C925    1.418   .     A
C924   C926    1.418   .     A
C924   C930    1.406   .     A
C925   C927    1.409   .     A
C925   C386    1.397   1_556 S
C926   C928    1.409   .     A
C929   H933    1.081   .     S
C929   C363    1.386   1_556 S
C930   H934    1.081   .     S
N945   Zn955   2.006   .     S
N946   Zn956   2.006   .     S
O947   Zn955   2.000   .     S
O948   Zn956   2.000   .     S
O949   Zn955   2.000   .     S
O950   Zn956   2.000   .     S
O951   Zn955   2.017   .     S
O952   Zn956   2.017   .     S
O953   Zn955   2.020   .     S
O954   Zn956   2.020   .     S
O957   H958    0.990   .     S
O959   H960    0.990   .     S
C961   O1010   1.281   .     A
C961   O1007   1.281   .     A
C961   C970    1.419   .     S
C962   O1009   1.281   .     A
C962   O1008   1.281   .     A
C962   C969    1.419   .     S
C963   H995    1.084   .     S
C963   C988    1.396   .     A
C964   H996    1.084   .     S
C964   C987    1.396   .     A
C964   C450    1.386   1_556 S
C965   H997    1.084   .     S
C965   C970    1.397   .     A
C966   C969    1.397   .     A
C966   H998    1.084   .     S
C966   C1028   1.370   .     S
C967   C969    1.397   .     A
C967   H999    1.084   .     S
C967   C1025   1.370   .     S
C968   H1000   1.084   .     S
C968   C970    1.397   .     A
C971   H1001   1.082   .     S
C971   N1006   1.366   .     A
C972   H1002   1.082   .     S
C972   N1005   1.366   .     A
C972   C613    1.415   1_565 S
C973   H1003   1.082   .     S
C973   N1006   1.366   .     A
C974   H1004   1.082   .     S
C974   N1005   1.366   .     A
C974   C611    1.415   1_565 S
C975   O1011   1.286   .     A
C975   C980    1.437   .     S
C975   O1014   1.284   .     A
C976   O1012   1.286   .     A
C976   C979    1.437   .     S
C976   O1013   1.284   .     A
C977   C979    1.393   .     A
C977   H991    1.086   .     S
C977   C987    1.379   .     A
C978   H992    1.086   .     S
C978   C988    1.379   .     A
C978   C980    1.393   .     A
C979   C981    1.404   .     A
C980   C982    1.404   .     A
C981   O1017   1.382   .     S
C981   C983    1.404   .     A
C982   C984    1.404   .     A
C982   O1019   1.382   .     S
C983   C989    1.406   .     A
C983   C985    1.418   .     A
C984   C986    1.418   .     A
C984   C990    1.406   .     A
C985   C987    1.409   .     A
C985   C446    1.397   1_556 S
C986   C988    1.409   .     A
C989   H993    1.081   .     S
C989   C423    1.386   1_556 S
C990   H994    1.081   .     S
N1005  Zn1015  2.006   .     S
N1006  Zn1016  2.006   .     S
O1007  Zn1015  2.000   .     S
O1008  Zn1016  2.000   .     S
O1009  Zn1015  2.000   .     S
O1010  Zn1016  2.000   .     S
O1011  Zn1015  2.017   .     S
O1012  Zn1016  2.017   .     S
O1013  Zn1015  2.020   .     S
O1014  Zn1016  2.020   .     S
O1017  H1018   0.990   .     S
O1019  H1020   0.990   .     S
C1021  O1070   1.281   .     A
C1021  O1067   1.281   .     A
C1021  C1030   1.419   .     S
C1022  O1069   1.281   .     A
C1022  O1068   1.281   .     A
C1022  C1029   1.419   .     S
C1023  H1055   1.084   .     S
C1023  C1048   1.396   .     A
C1024  H1056   1.084   .     S
C1024  C1047   1.396   .     A
C1024  C510    1.386   1_556 S
C1025  H1057   1.084   .     S
C1025  C1030   1.397   .     A
C1026  C1029   1.397   .     A
C1026  H1058   1.084   .     S
C1026  C908    1.370   1_655 S
C1027  C1029   1.397   .     A
C1027  H1059   1.084   .     S
C1027  C905    1.370   1_655 S
C1028  H1060   1.084   .     S
C1028  C1030   1.397   .     A
C1031  H1061   1.082   .     S
C1031  N1066   1.366   .     A
C1032  H1062   1.082   .     S
C1032  N1065   1.366   .     A
C1032  C673    1.415   1_565 S
C1033  H1063   1.082   .     S
C1033  N1066   1.366   .     A
C1034  H1064   1.082   .     S
C1034  N1065   1.366   .     A
C1034  C671    1.415   1_565 S
C1035  O1071   1.286   .     A
C1035  C1040   1.437   .     S
C1035  O1074   1.284   .     A
C1036  O1072   1.286   .     A
C1036  C1039   1.437   .     S
C1036  O1073   1.284   .     A
C1037  C1039   1.393   .     A
C1037  H1051   1.086   .     S
C1037  C1047   1.379   .     A
C1038  H1052   1.086   .     S
C1038  C1048   1.379   .     A
C1038  C1040   1.393   .     A
C1039  C1041   1.404   .     A
C1040  C1042   1.404   .     A
C1041  O1077   1.382   .     S
C1041  C1043   1.404   .     A
C1042  C1044   1.404   .     A
C1042  O1079   1.382   .     S
C1043  C1049   1.406   .     A
C1043  C1045   1.418   .     A
C1044  C1046   1.418   .     A
C1044  C1050   1.406   .     A
C1045  C1047   1.409   .     A
C1045  C506    1.397   1_556 S
C1046  C1048   1.409   .     A
C1049  H1053   1.081   .     S
C1049  C483    1.386   1_556 S
C1050  H1054   1.081   .     S
N1065  Zn1075  2.006   .     S
N1066  Zn1076  2.006   .     S
O1067  Zn1075  2.000   .     S
O1068  Zn1076  2.000   .     S
O1069  Zn1075  2.000   .     S
O1070  Zn1076  2.000   .     S
O1071  Zn1075  2.017   .     S
O1072  Zn1076  2.017   .     S
O1073  Zn1075  2.020   .     S
O1074  Zn1076  2.020   .     S
O1077  H1078   0.990   .     S
O1079  H1080   0.990   .     S
