data_str_m2_o1_o18_pcu_sym.79
_audit_creation_date              2020-01-03
_audit_creation_method            'Materials Studio'
_symmetry_space_group_name_H-M    'P1'
_symmetry_Int_Tables_number       1
_symmetry_cell_setting            triclinic
loop_
_symmetry_equiv_pos_as_xyz
  x,y,z
_cell_length_a                    28.7628
_cell_length_b                    32.3313
_cell_length_c                    31.7530
_cell_angle_alpha                 89.6259
_cell_angle_beta                  72.2779
_cell_angle_gamma                 89.8612
loop_
_atom_site_label
_atom_site_type_symbol
_atom_site_fract_x
_atom_site_fract_y
_atom_site_fract_z
_atom_site_U_iso_or_equiv
_atom_site_adp_type
_atom_site_occupancy
C1     C     0.00043   0.08751   0.24894   0.00000  Uiso   1.00
C2     C     0.04040   0.02074   0.22114   0.00000  Uiso   1.00
C3     C     0.33267   0.29047   0.25123   0.00000  Uiso   1.00
C4     C     0.00066   0.04290   0.24858   0.00000  Uiso   1.00
C5     C     0.18226   0.14086   0.27739   0.00000  Uiso   1.00
C6     C     0.15110   0.19242   0.22255   0.00000  Uiso   1.00
C7     C     0.13286   0.14078   0.27728   0.00000  Uiso   1.00
C8     C     0.20055   0.19240   0.22255   0.00000  Uiso   1.00
C9     C     0.30536   0.16468   0.33555   0.00000  Uiso   1.00
C10    C     0.02795   0.16347   0.16475   0.00000  Uiso   1.00
C11    C     0.28909   0.15583   0.38311   0.00000  Uiso   1.00
C12    C     0.33292   0.24584   0.25098   0.00000  Uiso   1.00
C13    C     0.04433   0.15248   0.11794   0.00000  Uiso   1.00
C14    C     0.30093   0.12160   0.44739   0.00000  Uiso   1.00
C15    C     0.03167   0.11987   0.05350   0.00000  Uiso   1.00
C16    C     0.31945   0.13400   0.40306   0.00000  Uiso   1.00
C17    C     0.01506   0.12818   0.09909   0.00000  Uiso   1.00
C18    C     0.24011   0.16285   0.40727   0.00000  Uiso   1.00
C19    C     0.09234   0.16167   0.09300   0.00000  Uiso   1.00
C20    C     0.22269   0.15242   0.45227   0.00000  Uiso   1.00
C21    C     0.10928   0.15189   0.04808   0.00000  Uiso   1.00
C22    C     0.25585   0.13705   0.47328   0.00000  Uiso   1.00
C23    C     0.19526   0.14658   0.04445   0.00000  Uiso   1.00
C24    C     0.07591   0.13707   0.02733   0.00000  Uiso   1.00
C25    C     0.17271   0.15361   0.47670   0.00000  Uiso   1.00
C26    C     0.15913   0.15320   0.02359   0.00000  Uiso   1.00
C27    C     0.13632   0.14807   0.45597   0.00000  Uiso   1.00
C28    C     0.24216   0.13547   0.01947   0.00000  Uiso   1.00
C29    C     0.08930   0.13686   0.48107   0.00000  Uiso   1.00
C30    C     0.29376   0.02216   0.27681   0.00000  Uiso   1.00
C31    C     0.03954   0.31122   0.22295   0.00000  Uiso   1.00
C32    C     0.29283   0.31265   0.27853   0.00000  Uiso   1.00
Cu33   Cu    0.04689   0.16667   0.25000   0.00000  Uiso   1.00
Cu34   Cu    0.28645   0.16666   0.25000   0.00000  Uiso   1.00
H35    H     0.26771   0.12630   0.03650   0.00000  Uiso   1.00
H36    H     0.13999   0.21314   0.20049   0.00000  Uiso   1.00
H37    H     0.10717   0.11979   0.29901   0.00000  Uiso   1.00
H38    H     0.22638   0.21312   0.20050   0.00000  Uiso   1.00
H39    H     0.30911   0.10113   0.15250   0.00000  Uiso   1.00
H40    H     0.05234   0.14793   0.37445   0.00000  Uiso   1.00
H41    H     0.01606   0.07773   0.44077   0.00000  Uiso   1.00
H42    H     0.31713   0.07576   0.05829   0.00000  Uiso   1.00
H43    H     0.06364   0.12828   0.46410   0.00000  Uiso   1.00
H44    H     0.11611   0.17732   0.10845   0.00000  Uiso   1.00
H45    H     0.21609   0.17739   0.39113   0.00000  Uiso   1.00
H46    H     0.18640   0.14425   0.08002   0.00000  Uiso   1.00
H47    H     0.14497   0.14659   0.42039   0.00000  Uiso   1.00
H48    H     0.26347   0.03939   0.29828   0.00000  Uiso   1.00
H49    H     0.06983   0.29400   0.20146   0.00000  Uiso   1.00
H50    H     0.19339   0.12010   0.29940   0.00000  Uiso   1.00
I51    I     0.23193   0.28435   0.32548   0.00000  Uiso   1.00
I52    I     0.10084   0.04917   0.17372   0.00000  Uiso   1.00
N53    N     0.11736   0.16668   0.24999   0.00000  Uiso   1.00
N54    N     0.21597   0.16666   0.25001   0.00000  Uiso   1.00
O55    O     0.03958   0.10655   0.25000   0.00000  Uiso   1.00
O56    O     0.03258   0.12225   0.37922   0.00000  Uiso   1.00
O57    O     0.32293   0.09078   0.46459   0.00000  Uiso   1.00
O58    O     0.00991   0.09008   0.03513   0.00000  Uiso   1.00
O59    O     0.29375   0.22678   0.25000   0.00000  Uiso   1.00
O60    O     0.29372   0.10654   0.25000   0.00000  Uiso   1.00
O61    O     0.03961   0.22679   0.25000   0.00000  Uiso   1.00
O62    O     0.01852   0.16668   0.31492   0.00000  Uiso   1.00
O63    O     0.31481   0.16666   0.18508   0.00000  Uiso   1.00
O64    O     0.27267   0.16667   0.31492   0.00000  Uiso   1.00
O65    O     0.06067   0.16667   0.18508   0.00000  Uiso   1.00
O66    O     0.30488   0.11090   0.12426   0.00000  Uiso   1.00
C67    C     0.33376   0.08751   0.24894   0.00000  Uiso   1.00
C68    C     0.37374   0.02074   0.22114   0.00000  Uiso   1.00
C69    C     0.66600   0.29047   0.25123   0.00000  Uiso   1.00
C70    C     0.33399   0.04290   0.24858   0.00000  Uiso   1.00
C71    C     0.51559   0.14086   0.27739   0.00000  Uiso   1.00
C72    C     0.48444   0.19242   0.22255   0.00000  Uiso   1.00
C73    C     0.46619   0.14078   0.27728   0.00000  Uiso   1.00
C74    C     0.53388   0.19240   0.22255   0.00000  Uiso   1.00
C75    C     0.63870   0.16468   0.33555   0.00000  Uiso   1.00
C76    C     0.36129   0.16347   0.16475   0.00000  Uiso   1.00
C77    C     0.62242   0.15583   0.38311   0.00000  Uiso   1.00
C78    C     0.66625   0.24584   0.25098   0.00000  Uiso   1.00
C79    C     0.37766   0.15248   0.11794   0.00000  Uiso   1.00
C80    C     0.63427   0.12160   0.44739   0.00000  Uiso   1.00
C81    C     0.36500   0.11987   0.05350   0.00000  Uiso   1.00
C82    C     0.65278   0.13400   0.40306   0.00000  Uiso   1.00
C83    C     0.34840   0.12818   0.09909   0.00000  Uiso   1.00
C84    C     0.57344   0.16285   0.40727   0.00000  Uiso   1.00
C85    C     0.42568   0.16167   0.09300   0.00000  Uiso   1.00
C86    C     0.55603   0.15242   0.45227   0.00000  Uiso   1.00
C87    C     0.44262   0.15189   0.04808   0.00000  Uiso   1.00
C88    C     0.58918   0.13705   0.47328   0.00000  Uiso   1.00
C89    C     0.52860   0.14658   0.04445   0.00000  Uiso   1.00
C90    C     0.40925   0.13707   0.02733   0.00000  Uiso   1.00
C91    C     0.50604   0.15361   0.47670   0.00000  Uiso   1.00
C92    C     0.49246   0.15320   0.02359   0.00000  Uiso   1.00
C93    C     0.46965   0.14807   0.45597   0.00000  Uiso   1.00
C94    C     0.57550   0.13547   0.01947   0.00000  Uiso   1.00
C95    C     0.42264   0.13686   0.48107   0.00000  Uiso   1.00
C96    C     0.62710   0.02216   0.27681   0.00000  Uiso   1.00
C97    C     0.37288   0.31122   0.22295   0.00000  Uiso   1.00
C98    C     0.62616   0.31265   0.27853   0.00000  Uiso   1.00
Cu99   Cu    0.38022   0.16667   0.25000   0.00000  Uiso   1.00
Cu100  Cu    0.61978   0.16666   0.25000   0.00000  Uiso   1.00
H101   H     0.60104   0.12630   0.03650   0.00000  Uiso   1.00
H102   H     0.47332   0.21314   0.20049   0.00000  Uiso   1.00
H103   H     0.44050   0.11979   0.29901   0.00000  Uiso   1.00
H104   H     0.55971   0.21312   0.20050   0.00000  Uiso   1.00
H105   H     0.64245   0.10113   0.15250   0.00000  Uiso   1.00
H106   H     0.38567   0.14793   0.37445   0.00000  Uiso   1.00
H107   H     0.34939   0.07773   0.44077   0.00000  Uiso   1.00
H108   H     0.65046   0.07576   0.05829   0.00000  Uiso   1.00
H109   H     0.39698   0.12828   0.46410   0.00000  Uiso   1.00
H110   H     0.44945   0.17732   0.10845   0.00000  Uiso   1.00
H111   H     0.54943   0.17739   0.39113   0.00000  Uiso   1.00
H112   H     0.51973   0.14425   0.08002   0.00000  Uiso   1.00
H113   H     0.47830   0.14659   0.42039   0.00000  Uiso   1.00
H114   H     0.59680   0.03939   0.29828   0.00000  Uiso   1.00
H115   H     0.40316   0.29400   0.20146   0.00000  Uiso   1.00
H116   H     0.52672   0.12010   0.29940   0.00000  Uiso   1.00
I117   I     0.56526   0.28435   0.32548   0.00000  Uiso   1.00
I118   I     0.43418   0.04917   0.17372   0.00000  Uiso   1.00
N119   N     0.45069   0.16668   0.24999   0.00000  Uiso   1.00
N120   N     0.54931   0.16666   0.25001   0.00000  Uiso   1.00
O121   O     0.37291   0.10655   0.25000   0.00000  Uiso   1.00
O122   O     0.36591   0.12225   0.37922   0.00000  Uiso   1.00
O123   O     0.65626   0.09078   0.46459   0.00000  Uiso   1.00
O124   O     0.34324   0.09008   0.03513   0.00000  Uiso   1.00
O125   O     0.62709   0.22678   0.25000   0.00000  Uiso   1.00
O126   O     0.62706   0.10654   0.25000   0.00000  Uiso   1.00
O127   O     0.37294   0.22679   0.25000   0.00000  Uiso   1.00
O128   O     0.35186   0.16668   0.31492   0.00000  Uiso   1.00
O129   O     0.64814   0.16666   0.18508   0.00000  Uiso   1.00
O130   O     0.60600   0.16667   0.31492   0.00000  Uiso   1.00
O131   O     0.39400   0.16667   0.18508   0.00000  Uiso   1.00
O132   O     0.63821   0.11090   0.12426   0.00000  Uiso   1.00
C133   C     0.66709   0.08751   0.24894   0.00000  Uiso   1.00
C134   C     0.70707   0.02074   0.22114   0.00000  Uiso   1.00
C135   C     0.99934   0.29047   0.25123   0.00000  Uiso   1.00
C136   C     0.66732   0.04290   0.24858   0.00000  Uiso   1.00
C137   C     0.84892   0.14086   0.27739   0.00000  Uiso   1.00
C138   C     0.81777   0.19242   0.22255   0.00000  Uiso   1.00
C139   C     0.79952   0.14078   0.27728   0.00000  Uiso   1.00
C140   C     0.86722   0.19240   0.22255   0.00000  Uiso   1.00
C141   C     0.97203   0.16468   0.33555   0.00000  Uiso   1.00
C142   C     0.69462   0.16347   0.16475   0.00000  Uiso   1.00
C143   C     0.95575   0.15583   0.38311   0.00000  Uiso   1.00
C144   C     0.99959   0.24584   0.25098   0.00000  Uiso   1.00
C145   C     0.71099   0.15248   0.11794   0.00000  Uiso   1.00
C146   C     0.96760   0.12160   0.44739   0.00000  Uiso   1.00
C147   C     0.69833   0.11987   0.05350   0.00000  Uiso   1.00
C148   C     0.98612   0.13400   0.40306   0.00000  Uiso   1.00
C149   C     0.68173   0.12818   0.09909   0.00000  Uiso   1.00
C150   C     0.90677   0.16285   0.40727   0.00000  Uiso   1.00
C151   C     0.75901   0.16167   0.09300   0.00000  Uiso   1.00
C152   C     0.88936   0.15242   0.45227   0.00000  Uiso   1.00
C153   C     0.77595   0.15189   0.04808   0.00000  Uiso   1.00
C154   C     0.92252   0.13705   0.47328   0.00000  Uiso   1.00
C155   C     0.86193   0.14658   0.04445   0.00000  Uiso   1.00
C156   C     0.74258   0.13707   0.02733   0.00000  Uiso   1.00
C157   C     0.83938   0.15361   0.47670   0.00000  Uiso   1.00
C158   C     0.82580   0.15320   0.02359   0.00000  Uiso   1.00
C159   C     0.80298   0.14807   0.45597   0.00000  Uiso   1.00
C160   C     0.90883   0.13547   0.01947   0.00000  Uiso   1.00
C161   C     0.75597   0.13686   0.48107   0.00000  Uiso   1.00
C162   C     0.96043   0.02216   0.27681   0.00000  Uiso   1.00
C163   C     0.70621   0.31122   0.22295   0.00000  Uiso   1.00
C164   C     0.95950   0.31265   0.27853   0.00000  Uiso   1.00
Cu165  Cu    0.71355   0.16667   0.25000   0.00000  Uiso   1.00
Cu166  Cu    0.95311   0.16666   0.25000   0.00000  Uiso   1.00
H167   H     0.93437   0.12630   0.03650   0.00000  Uiso   1.00
H168   H     0.80665   0.21314   0.20049   0.00000  Uiso   1.00
H169   H     0.77384   0.11979   0.29901   0.00000  Uiso   1.00
H170   H     0.89304   0.21312   0.20050   0.00000  Uiso   1.00
H171   H     0.97578   0.10113   0.15250   0.00000  Uiso   1.00
H172   H     0.71900   0.14793   0.37445   0.00000  Uiso   1.00
H173   H     0.68272   0.07773   0.44077   0.00000  Uiso   1.00
H174   H     0.98380   0.07576   0.05829   0.00000  Uiso   1.00
H175   H     0.73031   0.12828   0.46410   0.00000  Uiso   1.00
H176   H     0.78278   0.17732   0.10845   0.00000  Uiso   1.00
H177   H     0.88276   0.17739   0.39113   0.00000  Uiso   1.00
H178   H     0.85307   0.14425   0.08002   0.00000  Uiso   1.00
H179   H     0.81164   0.14659   0.42039   0.00000  Uiso   1.00
H180   H     0.93014   0.03939   0.29828   0.00000  Uiso   1.00
H181   H     0.73649   0.29400   0.20146   0.00000  Uiso   1.00
H182   H     0.86005   0.12010   0.29940   0.00000  Uiso   1.00
I183   I     0.89859   0.28435   0.32548   0.00000  Uiso   1.00
I184   I     0.76751   0.04917   0.17372   0.00000  Uiso   1.00
N185   N     0.78403   0.16668   0.24999   0.00000  Uiso   1.00
N186   N     0.88264   0.16666   0.25001   0.00000  Uiso   1.00
O187   O     0.70625   0.10655   0.25000   0.00000  Uiso   1.00
O188   O     0.69924   0.12225   0.37922   0.00000  Uiso   1.00
O189   O     0.98960   0.09078   0.46459   0.00000  Uiso   1.00
O190   O     0.67657   0.09008   0.03513   0.00000  Uiso   1.00
O191   O     0.96042   0.22678   0.25000   0.00000  Uiso   1.00
O192   O     0.96039   0.10654   0.25000   0.00000  Uiso   1.00
O193   O     0.70628   0.22679   0.25000   0.00000  Uiso   1.00
O194   O     0.68519   0.16668   0.31492   0.00000  Uiso   1.00
O195   O     0.98148   0.16666   0.18508   0.00000  Uiso   1.00
O196   O     0.93933   0.16667   0.31492   0.00000  Uiso   1.00
O197   O     0.72733   0.16667   0.18508   0.00000  Uiso   1.00
O198   O     0.97154   0.11090   0.12426   0.00000  Uiso   1.00
C199   C     0.00043   0.42084   0.24894   0.00000  Uiso   1.00
C200   C     0.04040   0.35408   0.22114   0.00000  Uiso   1.00
C201   C     0.33267   0.62381   0.25123   0.00000  Uiso   1.00
C202   C     0.00066   0.37623   0.24858   0.00000  Uiso   1.00
C203   C     0.18226   0.47419   0.27739   0.00000  Uiso   1.00
C204   C     0.15110   0.52575   0.22255   0.00000  Uiso   1.00
C205   C     0.13286   0.47411   0.27728   0.00000  Uiso   1.00
C206   C     0.20055   0.52574   0.22255   0.00000  Uiso   1.00
C207   C     0.30536   0.49802   0.33555   0.00000  Uiso   1.00
C208   C     0.02795   0.49681   0.16475   0.00000  Uiso   1.00
C209   C     0.28909   0.48917   0.38311   0.00000  Uiso   1.00
C210   C     0.33292   0.57917   0.25098   0.00000  Uiso   1.00
C211   C     0.04433   0.48581   0.11794   0.00000  Uiso   1.00
C212   C     0.30093   0.45493   0.44739   0.00000  Uiso   1.00
C213   C     0.03167   0.45321   0.05350   0.00000  Uiso   1.00
C214   C     0.31945   0.46733   0.40306   0.00000  Uiso   1.00
C215   C     0.01506   0.46152   0.09909   0.00000  Uiso   1.00
C216   C     0.24011   0.49618   0.40727   0.00000  Uiso   1.00
C217   C     0.09234   0.49500   0.09300   0.00000  Uiso   1.00
C218   C     0.22269   0.48576   0.45227   0.00000  Uiso   1.00
C219   C     0.10928   0.48522   0.04808   0.00000  Uiso   1.00
C220   C     0.25585   0.47039   0.47328   0.00000  Uiso   1.00
C221   C     0.19526   0.47992   0.04445   0.00000  Uiso   1.00
C222   C     0.07591   0.47040   0.02733   0.00000  Uiso   1.00
C223   C     0.17271   0.48695   0.47670   0.00000  Uiso   1.00
C224   C     0.15913   0.48653   0.02359   0.00000  Uiso   1.00
C225   C     0.13632   0.48141   0.45597   0.00000  Uiso   1.00
C226   C     0.24216   0.46880   0.01947   0.00000  Uiso   1.00
C227   C     0.08930   0.47019   0.48107   0.00000  Uiso   1.00
C228   C     0.29376   0.35550   0.27681   0.00000  Uiso   1.00
C229   C     0.03954   0.64455   0.22295   0.00000  Uiso   1.00
C230   C     0.29283   0.64599   0.27853   0.00000  Uiso   1.00
Cu231  Cu    0.04689   0.50001   0.25000   0.00000  Uiso   1.00
Cu232  Cu    0.28645   0.49999   0.25000   0.00000  Uiso   1.00
H233   H     0.26771   0.45963   0.03650   0.00000  Uiso   1.00
H234   H     0.13999   0.54647   0.20049   0.00000  Uiso   1.00
H235   H     0.10717   0.45313   0.29901   0.00000  Uiso   1.00
H236   H     0.22638   0.54645   0.20050   0.00000  Uiso   1.00
H237   H     0.30911   0.43446   0.15250   0.00000  Uiso   1.00
H238   H     0.05234   0.48126   0.37445   0.00000  Uiso   1.00
H239   H     0.01606   0.41107   0.44077   0.00000  Uiso   1.00
H240   H     0.31713   0.40910   0.05829   0.00000  Uiso   1.00
H241   H     0.06364   0.46162   0.46410   0.00000  Uiso   1.00
H242   H     0.11611   0.51065   0.10845   0.00000  Uiso   1.00
H243   H     0.21609   0.51073   0.39113   0.00000  Uiso   1.00
H244   H     0.18640   0.47758   0.08002   0.00000  Uiso   1.00
H245   H     0.14497   0.47992   0.42039   0.00000  Uiso   1.00
H246   H     0.26347   0.37272   0.29828   0.00000  Uiso   1.00
H247   H     0.06983   0.62733   0.20146   0.00000  Uiso   1.00
H248   H     0.19339   0.45343   0.29940   0.00000  Uiso   1.00
I249   I     0.23193   0.61769   0.32548   0.00000  Uiso   1.00
I250   I     0.10084   0.38251   0.17372   0.00000  Uiso   1.00
N251   N     0.11736   0.50001   0.24999   0.00000  Uiso   1.00
N252   N     0.21597   0.49999   0.25001   0.00000  Uiso   1.00
O253   O     0.03958   0.43989   0.25000   0.00000  Uiso   1.00
O254   O     0.03258   0.45558   0.37922   0.00000  Uiso   1.00
O255   O     0.32293   0.42411   0.46459   0.00000  Uiso   1.00
O256   O     0.00991   0.42341   0.03513   0.00000  Uiso   1.00
O257   O     0.29375   0.56011   0.25000   0.00000  Uiso   1.00
O258   O     0.29372   0.43988   0.25000   0.00000  Uiso   1.00
O259   O     0.03961   0.56012   0.25000   0.00000  Uiso   1.00
O260   O     0.01852   0.50001   0.31492   0.00000  Uiso   1.00
O261   O     0.31481   0.49999   0.18508   0.00000  Uiso   1.00
O262   O     0.27267   0.50000   0.31492   0.00000  Uiso   1.00
O263   O     0.06067   0.50000   0.18508   0.00000  Uiso   1.00
O264   O     0.30488   0.44423   0.12426   0.00000  Uiso   1.00
C265   C     0.33376   0.42084   0.24894   0.00000  Uiso   1.00
C266   C     0.37374   0.35408   0.22114   0.00000  Uiso   1.00
C267   C     0.66600   0.62381   0.25123   0.00000  Uiso   1.00
C268   C     0.33399   0.37623   0.24858   0.00000  Uiso   1.00
C269   C     0.51559   0.47419   0.27739   0.00000  Uiso   1.00
C270   C     0.48444   0.52575   0.22255   0.00000  Uiso   1.00
C271   C     0.46619   0.47411   0.27728   0.00000  Uiso   1.00
C272   C     0.53388   0.52574   0.22255   0.00000  Uiso   1.00
C273   C     0.63870   0.49802   0.33555   0.00000  Uiso   1.00
C274   C     0.36129   0.49681   0.16475   0.00000  Uiso   1.00
C275   C     0.62242   0.48917   0.38311   0.00000  Uiso   1.00
C276   C     0.66625   0.57917   0.25098   0.00000  Uiso   1.00
C277   C     0.37766   0.48581   0.11794   0.00000  Uiso   1.00
C278   C     0.63427   0.45493   0.44739   0.00000  Uiso   1.00
C279   C     0.36500   0.45321   0.05350   0.00000  Uiso   1.00
C280   C     0.65278   0.46733   0.40306   0.00000  Uiso   1.00
C281   C     0.34840   0.46152   0.09909   0.00000  Uiso   1.00
C282   C     0.57344   0.49618   0.40727   0.00000  Uiso   1.00
C283   C     0.42568   0.49500   0.09300   0.00000  Uiso   1.00
C284   C     0.55603   0.48576   0.45227   0.00000  Uiso   1.00
C285   C     0.44262   0.48522   0.04808   0.00000  Uiso   1.00
C286   C     0.58918   0.47039   0.47328   0.00000  Uiso   1.00
C287   C     0.52860   0.47992   0.04445   0.00000  Uiso   1.00
C288   C     0.40925   0.47040   0.02733   0.00000  Uiso   1.00
C289   C     0.50604   0.48695   0.47670   0.00000  Uiso   1.00
C290   C     0.49246   0.48653   0.02359   0.00000  Uiso   1.00
C291   C     0.46965   0.48141   0.45597   0.00000  Uiso   1.00
C292   C     0.57550   0.46880   0.01947   0.00000  Uiso   1.00
C293   C     0.42264   0.47019   0.48107   0.00000  Uiso   1.00
C294   C     0.62710   0.35550   0.27681   0.00000  Uiso   1.00
C295   C     0.37288   0.64455   0.22295   0.00000  Uiso   1.00
C296   C     0.62616   0.64599   0.27853   0.00000  Uiso   1.00
Cu297  Cu    0.38022   0.50001   0.25000   0.00000  Uiso   1.00
Cu298  Cu    0.61978   0.49999   0.25000   0.00000  Uiso   1.00
H299   H     0.60104   0.45963   0.03650   0.00000  Uiso   1.00
H300   H     0.47332   0.54647   0.20049   0.00000  Uiso   1.00
H301   H     0.44050   0.45313   0.29901   0.00000  Uiso   1.00
H302   H     0.55971   0.54645   0.20050   0.00000  Uiso   1.00
H303   H     0.64245   0.43446   0.15250   0.00000  Uiso   1.00
H304   H     0.38567   0.48126   0.37445   0.00000  Uiso   1.00
H305   H     0.34939   0.41107   0.44077   0.00000  Uiso   1.00
H306   H     0.65046   0.40910   0.05829   0.00000  Uiso   1.00
H307   H     0.39698   0.46162   0.46410   0.00000  Uiso   1.00
H308   H     0.44945   0.51065   0.10845   0.00000  Uiso   1.00
H309   H     0.54943   0.51073   0.39113   0.00000  Uiso   1.00
H310   H     0.51973   0.47758   0.08002   0.00000  Uiso   1.00
H311   H     0.47830   0.47992   0.42039   0.00000  Uiso   1.00
H312   H     0.59680   0.37272   0.29828   0.00000  Uiso   1.00
H313   H     0.40316   0.62733   0.20146   0.00000  Uiso   1.00
H314   H     0.52672   0.45343   0.29940   0.00000  Uiso   1.00
I315   I     0.56526   0.61769   0.32548   0.00000  Uiso   1.00
I316   I     0.43418   0.38251   0.17372   0.00000  Uiso   1.00
N317   N     0.45069   0.50001   0.24999   0.00000  Uiso   1.00
N318   N     0.54931   0.49999   0.25001   0.00000  Uiso   1.00
O319   O     0.37291   0.43989   0.25000   0.00000  Uiso   1.00
O320   O     0.36591   0.45558   0.37922   0.00000  Uiso   1.00
O321   O     0.65626   0.42411   0.46459   0.00000  Uiso   1.00
O322   O     0.34324   0.42341   0.03513   0.00000  Uiso   1.00
O323   O     0.62709   0.56011   0.25000   0.00000  Uiso   1.00
O324   O     0.62706   0.43988   0.25000   0.00000  Uiso   1.00
O325   O     0.37294   0.56012   0.25000   0.00000  Uiso   1.00
O326   O     0.35186   0.50001   0.31492   0.00000  Uiso   1.00
O327   O     0.64814   0.49999   0.18508   0.00000  Uiso   1.00
O328   O     0.60600   0.50000   0.31492   0.00000  Uiso   1.00
O329   O     0.39400   0.50000   0.18508   0.00000  Uiso   1.00
O330   O     0.63821   0.44423   0.12426   0.00000  Uiso   1.00
C331   C     0.66709   0.42084   0.24894   0.00000  Uiso   1.00
C332   C     0.70707   0.35408   0.22114   0.00000  Uiso   1.00
C333   C     0.99934   0.62381   0.25123   0.00000  Uiso   1.00
C334   C     0.66732   0.37623   0.24858   0.00000  Uiso   1.00
C335   C     0.84892   0.47419   0.27739   0.00000  Uiso   1.00
C336   C     0.81777   0.52575   0.22255   0.00000  Uiso   1.00
C337   C     0.79952   0.47411   0.27728   0.00000  Uiso   1.00
C338   C     0.86722   0.52574   0.22255   0.00000  Uiso   1.00
C339   C     0.97203   0.49802   0.33555   0.00000  Uiso   1.00
C340   C     0.69462   0.49681   0.16475   0.00000  Uiso   1.00
C341   C     0.95575   0.48917   0.38311   0.00000  Uiso   1.00
C342   C     0.99959   0.57917   0.25098   0.00000  Uiso   1.00
C343   C     0.71099   0.48581   0.11794   0.00000  Uiso   1.00
C344   C     0.96760   0.45493   0.44739   0.00000  Uiso   1.00
C345   C     0.69833   0.45321   0.05350   0.00000  Uiso   1.00
C346   C     0.98612   0.46733   0.40306   0.00000  Uiso   1.00
C347   C     0.68173   0.46152   0.09909   0.00000  Uiso   1.00
C348   C     0.90677   0.49618   0.40727   0.00000  Uiso   1.00
C349   C     0.75901   0.49500   0.09300   0.00000  Uiso   1.00
C350   C     0.88936   0.48576   0.45227   0.00000  Uiso   1.00
C351   C     0.77595   0.48522   0.04808   0.00000  Uiso   1.00
C352   C     0.92252   0.47039   0.47328   0.00000  Uiso   1.00
C353   C     0.86193   0.47992   0.04445   0.00000  Uiso   1.00
C354   C     0.74258   0.47040   0.02733   0.00000  Uiso   1.00
C355   C     0.83938   0.48695   0.47670   0.00000  Uiso   1.00
C356   C     0.82580   0.48653   0.02359   0.00000  Uiso   1.00
C357   C     0.80298   0.48141   0.45597   0.00000  Uiso   1.00
C358   C     0.90883   0.46880   0.01947   0.00000  Uiso   1.00
C359   C     0.75597   0.47019   0.48107   0.00000  Uiso   1.00
C360   C     0.96043   0.35550   0.27681   0.00000  Uiso   1.00
C361   C     0.70621   0.64455   0.22295   0.00000  Uiso   1.00
C362   C     0.95950   0.64599   0.27853   0.00000  Uiso   1.00
Cu363  Cu    0.71355   0.50001   0.25000   0.00000  Uiso   1.00
Cu364  Cu    0.95311   0.49999   0.25000   0.00000  Uiso   1.00
H365   H     0.93437   0.45963   0.03650   0.00000  Uiso   1.00
H366   H     0.80665   0.54647   0.20049   0.00000  Uiso   1.00
H367   H     0.77384   0.45313   0.29901   0.00000  Uiso   1.00
H368   H     0.89304   0.54645   0.20050   0.00000  Uiso   1.00
H369   H     0.97578   0.43446   0.15250   0.00000  Uiso   1.00
H370   H     0.71900   0.48126   0.37445   0.00000  Uiso   1.00
H371   H     0.68272   0.41107   0.44077   0.00000  Uiso   1.00
H372   H     0.98380   0.40910   0.05829   0.00000  Uiso   1.00
H373   H     0.73031   0.46162   0.46410   0.00000  Uiso   1.00
H374   H     0.78278   0.51065   0.10845   0.00000  Uiso   1.00
H375   H     0.88276   0.51073   0.39113   0.00000  Uiso   1.00
H376   H     0.85307   0.47758   0.08002   0.00000  Uiso   1.00
H377   H     0.81164   0.47992   0.42039   0.00000  Uiso   1.00
H378   H     0.93014   0.37272   0.29828   0.00000  Uiso   1.00
H379   H     0.73649   0.62733   0.20146   0.00000  Uiso   1.00
H380   H     0.86005   0.45343   0.29940   0.00000  Uiso   1.00
I381   I     0.89859   0.61769   0.32548   0.00000  Uiso   1.00
I382   I     0.76751   0.38251   0.17372   0.00000  Uiso   1.00
N383   N     0.78403   0.50001   0.24999   0.00000  Uiso   1.00
N384   N     0.88264   0.49999   0.25001   0.00000  Uiso   1.00
O385   O     0.70625   0.43989   0.25000   0.00000  Uiso   1.00
O386   O     0.69924   0.45558   0.37922   0.00000  Uiso   1.00
O387   O     0.98960   0.42411   0.46459   0.00000  Uiso   1.00
O388   O     0.67657   0.42341   0.03513   0.00000  Uiso   1.00
O389   O     0.96042   0.56011   0.25000   0.00000  Uiso   1.00
O390   O     0.96039   0.43988   0.25000   0.00000  Uiso   1.00
O391   O     0.70628   0.56012   0.25000   0.00000  Uiso   1.00
O392   O     0.68519   0.50001   0.31492   0.00000  Uiso   1.00
O393   O     0.98148   0.49999   0.18508   0.00000  Uiso   1.00
O394   O     0.93933   0.50000   0.31492   0.00000  Uiso   1.00
O395   O     0.72733   0.50000   0.18508   0.00000  Uiso   1.00
O396   O     0.97154   0.44423   0.12426   0.00000  Uiso   1.00
C397   C     0.00043   0.75418   0.24894   0.00000  Uiso   1.00
C398   C     0.04040   0.68741   0.22114   0.00000  Uiso   1.00
C399   C     0.33267   0.95714   0.25123   0.00000  Uiso   1.00
C400   C     0.00066   0.70957   0.24858   0.00000  Uiso   1.00
C401   C     0.18226   0.80752   0.27739   0.00000  Uiso   1.00
C402   C     0.15110   0.85909   0.22255   0.00000  Uiso   1.00
C403   C     0.13286   0.80745   0.27728   0.00000  Uiso   1.00
C404   C     0.20055   0.85907   0.22255   0.00000  Uiso   1.00
C405   C     0.30536   0.83135   0.33555   0.00000  Uiso   1.00
C406   C     0.02795   0.83014   0.16475   0.00000  Uiso   1.00
C407   C     0.28909   0.82250   0.38311   0.00000  Uiso   1.00
C408   C     0.33292   0.91250   0.25098   0.00000  Uiso   1.00
C409   C     0.04433   0.81915   0.11794   0.00000  Uiso   1.00
C410   C     0.30093   0.78827   0.44739   0.00000  Uiso   1.00
C411   C     0.03167   0.78654   0.05350   0.00000  Uiso   1.00
C412   C     0.31945   0.80067   0.40306   0.00000  Uiso   1.00
C413   C     0.01506   0.79485   0.09909   0.00000  Uiso   1.00
C414   C     0.24011   0.82951   0.40727   0.00000  Uiso   1.00
C415   C     0.09234   0.82834   0.09300   0.00000  Uiso   1.00
C416   C     0.22269   0.81909   0.45227   0.00000  Uiso   1.00
C417   C     0.10928   0.81856   0.04808   0.00000  Uiso   1.00
C418   C     0.25585   0.80372   0.47328   0.00000  Uiso   1.00
C419   C     0.19526   0.81325   0.04445   0.00000  Uiso   1.00
C420   C     0.07591   0.80373   0.02733   0.00000  Uiso   1.00
C421   C     0.17271   0.82028   0.47670   0.00000  Uiso   1.00
C422   C     0.15913   0.81987   0.02359   0.00000  Uiso   1.00
C423   C     0.13632   0.81474   0.45597   0.00000  Uiso   1.00
C424   C     0.24216   0.80213   0.01947   0.00000  Uiso   1.00
C425   C     0.08930   0.80352   0.48107   0.00000  Uiso   1.00
C426   C     0.29376   0.68883   0.27681   0.00000  Uiso   1.00
C427   C     0.03954   0.97789   0.22295   0.00000  Uiso   1.00
C428   C     0.29283   0.97932   0.27853   0.00000  Uiso   1.00
Cu429  Cu    0.04689   0.83334   0.25000   0.00000  Uiso   1.00
Cu430  Cu    0.28645   0.83333   0.25000   0.00000  Uiso   1.00
H431   H     0.26771   0.79297   0.03650   0.00000  Uiso   1.00
H432   H     0.13999   0.87980   0.20049   0.00000  Uiso   1.00
H433   H     0.10717   0.78646   0.29901   0.00000  Uiso   1.00
H434   H     0.22638   0.87978   0.20050   0.00000  Uiso   1.00
H435   H     0.30911   0.76779   0.15250   0.00000  Uiso   1.00
H436   H     0.05234   0.81460   0.37445   0.00000  Uiso   1.00
H437   H     0.01606   0.74440   0.44077   0.00000  Uiso   1.00
H438   H     0.31713   0.74243   0.05829   0.00000  Uiso   1.00
H439   H     0.06364   0.79495   0.46410   0.00000  Uiso   1.00
H440   H     0.11611   0.84398   0.10845   0.00000  Uiso   1.00
H441   H     0.21609   0.84406   0.39113   0.00000  Uiso   1.00
H442   H     0.18640   0.81091   0.08002   0.00000  Uiso   1.00
H443   H     0.14497   0.81326   0.42039   0.00000  Uiso   1.00
H444   H     0.26347   0.70606   0.29828   0.00000  Uiso   1.00
H445   H     0.06983   0.96066   0.20146   0.00000  Uiso   1.00
H446   H     0.19339   0.78676   0.29940   0.00000  Uiso   1.00
I447   I     0.23193   0.95102   0.32548   0.00000  Uiso   1.00
I448   I     0.10084   0.71584   0.17372   0.00000  Uiso   1.00
N449   N     0.11736   0.83334   0.24999   0.00000  Uiso   1.00
N450   N     0.21597   0.83332   0.25001   0.00000  Uiso   1.00
O451   O     0.03958   0.77322   0.25000   0.00000  Uiso   1.00
O452   O     0.03258   0.78892   0.37922   0.00000  Uiso   1.00
O453   O     0.32293   0.75745   0.46459   0.00000  Uiso   1.00
O454   O     0.00991   0.75674   0.03513   0.00000  Uiso   1.00
O455   O     0.29375   0.89345   0.25000   0.00000  Uiso   1.00
O456   O     0.29372   0.77321   0.25000   0.00000  Uiso   1.00
O457   O     0.03961   0.89346   0.25000   0.00000  Uiso   1.00
O458   O     0.01852   0.83334   0.31492   0.00000  Uiso   1.00
O459   O     0.31481   0.83332   0.18508   0.00000  Uiso   1.00
O460   O     0.27267   0.83333   0.31492   0.00000  Uiso   1.00
O461   O     0.06067   0.83333   0.18508   0.00000  Uiso   1.00
O462   O     0.30488   0.77756   0.12426   0.00000  Uiso   1.00
C463   C     0.33376   0.75418   0.24894   0.00000  Uiso   1.00
C464   C     0.37374   0.68741   0.22114   0.00000  Uiso   1.00
C465   C     0.66600   0.95714   0.25123   0.00000  Uiso   1.00
C466   C     0.33399   0.70957   0.24858   0.00000  Uiso   1.00
C467   C     0.51559   0.80752   0.27739   0.00000  Uiso   1.00
C468   C     0.48444   0.85909   0.22255   0.00000  Uiso   1.00
C469   C     0.46619   0.80745   0.27728   0.00000  Uiso   1.00
C470   C     0.53388   0.85907   0.22255   0.00000  Uiso   1.00
C471   C     0.63870   0.83135   0.33555   0.00000  Uiso   1.00
C472   C     0.36129   0.83014   0.16475   0.00000  Uiso   1.00
C473   C     0.62242   0.82250   0.38311   0.00000  Uiso   1.00
C474   C     0.66625   0.91250   0.25098   0.00000  Uiso   1.00
C475   C     0.37766   0.81915   0.11794   0.00000  Uiso   1.00
C476   C     0.63427   0.78827   0.44739   0.00000  Uiso   1.00
C477   C     0.36500   0.78654   0.05350   0.00000  Uiso   1.00
C478   C     0.65278   0.80067   0.40306   0.00000  Uiso   1.00
C479   C     0.34840   0.79485   0.09909   0.00000  Uiso   1.00
C480   C     0.57344   0.82951   0.40727   0.00000  Uiso   1.00
C481   C     0.42568   0.82834   0.09300   0.00000  Uiso   1.00
C482   C     0.55603   0.81909   0.45227   0.00000  Uiso   1.00
C483   C     0.44262   0.81856   0.04808   0.00000  Uiso   1.00
C484   C     0.58918   0.80372   0.47328   0.00000  Uiso   1.00
C485   C     0.52860   0.81325   0.04445   0.00000  Uiso   1.00
C486   C     0.40925   0.80373   0.02733   0.00000  Uiso   1.00
C487   C     0.50604   0.82028   0.47670   0.00000  Uiso   1.00
C488   C     0.49246   0.81987   0.02359   0.00000  Uiso   1.00
C489   C     0.46965   0.81474   0.45597   0.00000  Uiso   1.00
C490   C     0.57550   0.80213   0.01947   0.00000  Uiso   1.00
C491   C     0.42264   0.80352   0.48107   0.00000  Uiso   1.00
C492   C     0.62710   0.68883   0.27681   0.00000  Uiso   1.00
C493   C     0.37288   0.97789   0.22295   0.00000  Uiso   1.00
C494   C     0.62616   0.97932   0.27853   0.00000  Uiso   1.00
Cu495  Cu    0.38022   0.83334   0.25000   0.00000  Uiso   1.00
Cu496  Cu    0.61978   0.83333   0.25000   0.00000  Uiso   1.00
H497   H     0.60104   0.79297   0.03650   0.00000  Uiso   1.00
H498   H     0.47332   0.87980   0.20049   0.00000  Uiso   1.00
H499   H     0.44050   0.78646   0.29901   0.00000  Uiso   1.00
H500   H     0.55971   0.87978   0.20050   0.00000  Uiso   1.00
H501   H     0.64245   0.76779   0.15250   0.00000  Uiso   1.00
H502   H     0.38567   0.81460   0.37445   0.00000  Uiso   1.00
H503   H     0.34939   0.74440   0.44077   0.00000  Uiso   1.00
H504   H     0.65046   0.74243   0.05829   0.00000  Uiso   1.00
H505   H     0.39698   0.79495   0.46410   0.00000  Uiso   1.00
H506   H     0.44945   0.84398   0.10845   0.00000  Uiso   1.00
H507   H     0.54943   0.84406   0.39113   0.00000  Uiso   1.00
H508   H     0.51973   0.81091   0.08002   0.00000  Uiso   1.00
H509   H     0.47830   0.81326   0.42039   0.00000  Uiso   1.00
H510   H     0.59680   0.70606   0.29828   0.00000  Uiso   1.00
H511   H     0.40316   0.96066   0.20146   0.00000  Uiso   1.00
H512   H     0.52672   0.78676   0.29940   0.00000  Uiso   1.00
I513   I     0.56526   0.95102   0.32548   0.00000  Uiso   1.00
I514   I     0.43418   0.71584   0.17372   0.00000  Uiso   1.00
N515   N     0.45069   0.83334   0.24999   0.00000  Uiso   1.00
N516   N     0.54931   0.83332   0.25001   0.00000  Uiso   1.00
O517   O     0.37291   0.77322   0.25000   0.00000  Uiso   1.00
O518   O     0.36591   0.78892   0.37922   0.00000  Uiso   1.00
O519   O     0.65626   0.75745   0.46459   0.00000  Uiso   1.00
O520   O     0.34324   0.75674   0.03513   0.00000  Uiso   1.00
O521   O     0.62709   0.89345   0.25000   0.00000  Uiso   1.00
O522   O     0.62706   0.77321   0.25000   0.00000  Uiso   1.00
O523   O     0.37294   0.89346   0.25000   0.00000  Uiso   1.00
O524   O     0.35186   0.83334   0.31492   0.00000  Uiso   1.00
O525   O     0.64814   0.83332   0.18508   0.00000  Uiso   1.00
O526   O     0.60600   0.83333   0.31492   0.00000  Uiso   1.00
O527   O     0.39400   0.83333   0.18508   0.00000  Uiso   1.00
O528   O     0.63821   0.77756   0.12426   0.00000  Uiso   1.00
C529   C     0.66709   0.75418   0.24894   0.00000  Uiso   1.00
C530   C     0.70707   0.68741   0.22114   0.00000  Uiso   1.00
C531   C     0.99934   0.95714   0.25123   0.00000  Uiso   1.00
C532   C     0.66732   0.70957   0.24858   0.00000  Uiso   1.00
C533   C     0.84892   0.80752   0.27739   0.00000  Uiso   1.00
C534   C     0.81777   0.85909   0.22255   0.00000  Uiso   1.00
C535   C     0.79952   0.80745   0.27728   0.00000  Uiso   1.00
C536   C     0.86722   0.85907   0.22255   0.00000  Uiso   1.00
C537   C     0.97203   0.83135   0.33555   0.00000  Uiso   1.00
C538   C     0.69462   0.83014   0.16475   0.00000  Uiso   1.00
C539   C     0.95575   0.82250   0.38311   0.00000  Uiso   1.00
C540   C     0.99959   0.91250   0.25098   0.00000  Uiso   1.00
C541   C     0.71099   0.81915   0.11794   0.00000  Uiso   1.00
C542   C     0.96760   0.78827   0.44739   0.00000  Uiso   1.00
C543   C     0.69833   0.78654   0.05350   0.00000  Uiso   1.00
C544   C     0.98612   0.80067   0.40306   0.00000  Uiso   1.00
C545   C     0.68173   0.79485   0.09909   0.00000  Uiso   1.00
C546   C     0.90677   0.82951   0.40727   0.00000  Uiso   1.00
C547   C     0.75901   0.82834   0.09300   0.00000  Uiso   1.00
C548   C     0.88936   0.81909   0.45227   0.00000  Uiso   1.00
C549   C     0.77595   0.81856   0.04808   0.00000  Uiso   1.00
C550   C     0.92252   0.80372   0.47328   0.00000  Uiso   1.00
C551   C     0.86193   0.81325   0.04445   0.00000  Uiso   1.00
C552   C     0.74258   0.80373   0.02733   0.00000  Uiso   1.00
C553   C     0.83938   0.82028   0.47670   0.00000  Uiso   1.00
C554   C     0.82580   0.81987   0.02359   0.00000  Uiso   1.00
C555   C     0.80298   0.81474   0.45597   0.00000  Uiso   1.00
C556   C     0.90883   0.80213   0.01947   0.00000  Uiso   1.00
C557   C     0.75597   0.80352   0.48107   0.00000  Uiso   1.00
C558   C     0.96043   0.68883   0.27681   0.00000  Uiso   1.00
C559   C     0.70621   0.97789   0.22295   0.00000  Uiso   1.00
C560   C     0.95950   0.97932   0.27853   0.00000  Uiso   1.00
Cu561  Cu    0.71355   0.83334   0.25000   0.00000  Uiso   1.00
Cu562  Cu    0.95311   0.83333   0.25000   0.00000  Uiso   1.00
H563   H     0.93437   0.79297   0.03650   0.00000  Uiso   1.00
H564   H     0.80665   0.87980   0.20049   0.00000  Uiso   1.00
H565   H     0.77384   0.78646   0.29901   0.00000  Uiso   1.00
H566   H     0.89304   0.87978   0.20050   0.00000  Uiso   1.00
H567   H     0.97578   0.76779   0.15250   0.00000  Uiso   1.00
H568   H     0.71900   0.81460   0.37445   0.00000  Uiso   1.00
H569   H     0.68272   0.74440   0.44077   0.00000  Uiso   1.00
H570   H     0.98380   0.74243   0.05829   0.00000  Uiso   1.00
H571   H     0.73031   0.79495   0.46410   0.00000  Uiso   1.00
H572   H     0.78278   0.84398   0.10845   0.00000  Uiso   1.00
H573   H     0.88276   0.84406   0.39113   0.00000  Uiso   1.00
H574   H     0.85307   0.81091   0.08002   0.00000  Uiso   1.00
H575   H     0.81164   0.81326   0.42039   0.00000  Uiso   1.00
H576   H     0.93014   0.70606   0.29828   0.00000  Uiso   1.00
H577   H     0.73649   0.96066   0.20146   0.00000  Uiso   1.00
H578   H     0.86005   0.78676   0.29940   0.00000  Uiso   1.00
I579   I     0.89859   0.95102   0.32548   0.00000  Uiso   1.00
I580   I     0.76751   0.71584   0.17372   0.00000  Uiso   1.00
N581   N     0.78403   0.83334   0.24999   0.00000  Uiso   1.00
N582   N     0.88264   0.83332   0.25001   0.00000  Uiso   1.00
O583   O     0.70625   0.77322   0.25000   0.00000  Uiso   1.00
O584   O     0.69924   0.78892   0.37922   0.00000  Uiso   1.00
O585   O     0.98960   0.75745   0.46459   0.00000  Uiso   1.00
O586   O     0.67657   0.75674   0.03513   0.00000  Uiso   1.00
O587   O     0.96042   0.89345   0.25000   0.00000  Uiso   1.00
O588   O     0.96039   0.77321   0.25000   0.00000  Uiso   1.00
O589   O     0.70628   0.89346   0.25000   0.00000  Uiso   1.00
O590   O     0.68519   0.83334   0.31492   0.00000  Uiso   1.00
O591   O     0.98148   0.83332   0.18508   0.00000  Uiso   1.00
O592   O     0.93933   0.83333   0.31492   0.00000  Uiso   1.00
O593   O     0.72733   0.83333   0.18508   0.00000  Uiso   1.00
O594   O     0.97154   0.77756   0.12426   0.00000  Uiso   1.00
C595   C     0.00043   0.08751   0.74894   0.00000  Uiso   1.00
C596   C     0.04040   0.02074   0.72114   0.00000  Uiso   1.00
C597   C     0.33267   0.29047   0.75123   0.00000  Uiso   1.00
C598   C     0.00066   0.04290   0.74858   0.00000  Uiso   1.00
C599   C     0.18226   0.14086   0.77739   0.00000  Uiso   1.00
C600   C     0.15110   0.19242   0.72255   0.00000  Uiso   1.00
C601   C     0.13286   0.14078   0.77728   0.00000  Uiso   1.00
C602   C     0.20055   0.19240   0.72255   0.00000  Uiso   1.00
C603   C     0.30536   0.16468   0.83555   0.00000  Uiso   1.00
C604   C     0.02795   0.16347   0.66475   0.00000  Uiso   1.00
C605   C     0.28909   0.15583   0.88311   0.00000  Uiso   1.00
C606   C     0.33292   0.24584   0.75098   0.00000  Uiso   1.00
C607   C     0.04433   0.15248   0.61794   0.00000  Uiso   1.00
C608   C     0.30093   0.12160   0.94739   0.00000  Uiso   1.00
C609   C     0.03167   0.11987   0.55350   0.00000  Uiso   1.00
C610   C     0.31945   0.13400   0.90306   0.00000  Uiso   1.00
C611   C     0.01506   0.12818   0.59909   0.00000  Uiso   1.00
C612   C     0.24011   0.16285   0.90727   0.00000  Uiso   1.00
C613   C     0.09234   0.16167   0.59300   0.00000  Uiso   1.00
C614   C     0.22269   0.15242   0.95227   0.00000  Uiso   1.00
C615   C     0.10928   0.15189   0.54808   0.00000  Uiso   1.00
C616   C     0.25585   0.13705   0.97328   0.00000  Uiso   1.00
C617   C     0.19526   0.14658   0.54445   0.00000  Uiso   1.00
C618   C     0.07591   0.13707   0.52733   0.00000  Uiso   1.00
C619   C     0.17271   0.15361   0.97670   0.00000  Uiso   1.00
C620   C     0.15913   0.15320   0.52359   0.00000  Uiso   1.00
C621   C     0.13632   0.14807   0.95597   0.00000  Uiso   1.00
C622   C     0.24216   0.13547   0.51947   0.00000  Uiso   1.00
C623   C     0.08930   0.13686   0.98107   0.00000  Uiso   1.00
C624   C     0.29376   0.02216   0.77681   0.00000  Uiso   1.00
C625   C     0.03954   0.31122   0.72295   0.00000  Uiso   1.00
C626   C     0.29283   0.31265   0.77853   0.00000  Uiso   1.00
Cu627  Cu    0.04689   0.16667   0.75000   0.00000  Uiso   1.00
Cu628  Cu    0.28645   0.16666   0.75000   0.00000  Uiso   1.00
H629   H     0.26771   0.12630   0.53650   0.00000  Uiso   1.00
H630   H     0.13999   0.21314   0.70049   0.00000  Uiso   1.00
H631   H     0.10717   0.11979   0.79901   0.00000  Uiso   1.00
H632   H     0.22638   0.21312   0.70050   0.00000  Uiso   1.00
H633   H     0.30911   0.10113   0.65250   0.00000  Uiso   1.00
H634   H     0.05234   0.14793   0.87445   0.00000  Uiso   1.00
H635   H     0.01606   0.07773   0.94077   0.00000  Uiso   1.00
H636   H     0.31713   0.07576   0.55829   0.00000  Uiso   1.00
H637   H     0.06364   0.12828   0.96410   0.00000  Uiso   1.00
H638   H     0.11611   0.17732   0.60845   0.00000  Uiso   1.00
H639   H     0.21609   0.17739   0.89113   0.00000  Uiso   1.00
H640   H     0.18640   0.14425   0.58002   0.00000  Uiso   1.00
H641   H     0.14497   0.14659   0.92039   0.00000  Uiso   1.00
H642   H     0.26347   0.03939   0.79828   0.00000  Uiso   1.00
H643   H     0.06983   0.29400   0.70146   0.00000  Uiso   1.00
H644   H     0.19339   0.12010   0.79940   0.00000  Uiso   1.00
I645   I     0.23193   0.28435   0.82548   0.00000  Uiso   1.00
I646   I     0.10084   0.04917   0.67372   0.00000  Uiso   1.00
N647   N     0.11736   0.16668   0.74999   0.00000  Uiso   1.00
N648   N     0.21597   0.16666   0.75001   0.00000  Uiso   1.00
O649   O     0.03958   0.10655   0.75000   0.00000  Uiso   1.00
O650   O     0.03258   0.12225   0.87922   0.00000  Uiso   1.00
O651   O     0.32293   0.09078   0.96459   0.00000  Uiso   1.00
O652   O     0.00991   0.09008   0.53513   0.00000  Uiso   1.00
O653   O     0.29375   0.22678   0.75000   0.00000  Uiso   1.00
O654   O     0.29372   0.10654   0.75000   0.00000  Uiso   1.00
O655   O     0.03961   0.22679   0.75000   0.00000  Uiso   1.00
O656   O     0.01852   0.16668   0.81492   0.00000  Uiso   1.00
O657   O     0.31481   0.16666   0.68508   0.00000  Uiso   1.00
O658   O     0.27267   0.16667   0.81492   0.00000  Uiso   1.00
O659   O     0.06067   0.16667   0.68508   0.00000  Uiso   1.00
O660   O     0.30488   0.11090   0.62426   0.00000  Uiso   1.00
C661   C     0.33376   0.08751   0.74894   0.00000  Uiso   1.00
C662   C     0.37374   0.02074   0.72114   0.00000  Uiso   1.00
C663   C     0.66600   0.29047   0.75123   0.00000  Uiso   1.00
C664   C     0.33399   0.04290   0.74858   0.00000  Uiso   1.00
C665   C     0.51559   0.14086   0.77739   0.00000  Uiso   1.00
C666   C     0.48444   0.19242   0.72255   0.00000  Uiso   1.00
C667   C     0.46619   0.14078   0.77728   0.00000  Uiso   1.00
C668   C     0.53388   0.19240   0.72255   0.00000  Uiso   1.00
C669   C     0.63870   0.16468   0.83555   0.00000  Uiso   1.00
C670   C     0.36129   0.16347   0.66475   0.00000  Uiso   1.00
C671   C     0.62242   0.15583   0.88311   0.00000  Uiso   1.00
C672   C     0.66625   0.24584   0.75098   0.00000  Uiso   1.00
C673   C     0.37766   0.15248   0.61794   0.00000  Uiso   1.00
C674   C     0.63427   0.12160   0.94739   0.00000  Uiso   1.00
C675   C     0.36500   0.11987   0.55350   0.00000  Uiso   1.00
C676   C     0.65278   0.13400   0.90306   0.00000  Uiso   1.00
C677   C     0.34840   0.12818   0.59909   0.00000  Uiso   1.00
C678   C     0.57344   0.16285   0.90727   0.00000  Uiso   1.00
C679   C     0.42568   0.16167   0.59300   0.00000  Uiso   1.00
C680   C     0.55603   0.15242   0.95227   0.00000  Uiso   1.00
C681   C     0.44262   0.15189   0.54808   0.00000  Uiso   1.00
C682   C     0.58918   0.13705   0.97328   0.00000  Uiso   1.00
C683   C     0.52860   0.14658   0.54445   0.00000  Uiso   1.00
C684   C     0.40925   0.13707   0.52733   0.00000  Uiso   1.00
C685   C     0.50604   0.15361   0.97670   0.00000  Uiso   1.00
C686   C     0.49246   0.15320   0.52359   0.00000  Uiso   1.00
C687   C     0.46965   0.14807   0.95597   0.00000  Uiso   1.00
C688   C     0.57550   0.13547   0.51947   0.00000  Uiso   1.00
C689   C     0.42264   0.13686   0.98107   0.00000  Uiso   1.00
C690   C     0.62710   0.02216   0.77681   0.00000  Uiso   1.00
C691   C     0.37288   0.31122   0.72295   0.00000  Uiso   1.00
C692   C     0.62616   0.31265   0.77853   0.00000  Uiso   1.00
Cu693  Cu    0.38022   0.16667   0.75000   0.00000  Uiso   1.00
Cu694  Cu    0.61978   0.16666   0.75000   0.00000  Uiso   1.00
H695   H     0.60104   0.12630   0.53650   0.00000  Uiso   1.00
H696   H     0.47332   0.21314   0.70049   0.00000  Uiso   1.00
H697   H     0.44050   0.11979   0.79901   0.00000  Uiso   1.00
H698   H     0.55971   0.21312   0.70050   0.00000  Uiso   1.00
H699   H     0.64245   0.10113   0.65250   0.00000  Uiso   1.00
H700   H     0.38567   0.14793   0.87445   0.00000  Uiso   1.00
H701   H     0.34939   0.07773   0.94077   0.00000  Uiso   1.00
H702   H     0.65046   0.07576   0.55829   0.00000  Uiso   1.00
H703   H     0.39698   0.12828   0.96410   0.00000  Uiso   1.00
H704   H     0.44945   0.17732   0.60845   0.00000  Uiso   1.00
H705   H     0.54943   0.17739   0.89113   0.00000  Uiso   1.00
H706   H     0.51973   0.14425   0.58002   0.00000  Uiso   1.00
H707   H     0.47830   0.14659   0.92039   0.00000  Uiso   1.00
H708   H     0.59680   0.03939   0.79828   0.00000  Uiso   1.00
H709   H     0.40316   0.29400   0.70146   0.00000  Uiso   1.00
H710   H     0.52672   0.12010   0.79940   0.00000  Uiso   1.00
I711   I     0.56526   0.28435   0.82548   0.00000  Uiso   1.00
I712   I     0.43418   0.04917   0.67372   0.00000  Uiso   1.00
N713   N     0.45069   0.16668   0.74999   0.00000  Uiso   1.00
N714   N     0.54931   0.16666   0.75001   0.00000  Uiso   1.00
O715   O     0.37291   0.10655   0.75000   0.00000  Uiso   1.00
O716   O     0.36591   0.12225   0.87922   0.00000  Uiso   1.00
O717   O     0.65626   0.09078   0.96459   0.00000  Uiso   1.00
O718   O     0.34324   0.09008   0.53513   0.00000  Uiso   1.00
O719   O     0.62709   0.22678   0.75000   0.00000  Uiso   1.00
O720   O     0.62706   0.10654   0.75000   0.00000  Uiso   1.00
O721   O     0.37294   0.22679   0.75000   0.00000  Uiso   1.00
O722   O     0.35186   0.16668   0.81492   0.00000  Uiso   1.00
O723   O     0.64814   0.16666   0.68508   0.00000  Uiso   1.00
O724   O     0.60600   0.16667   0.81492   0.00000  Uiso   1.00
O725   O     0.39400   0.16667   0.68508   0.00000  Uiso   1.00
O726   O     0.63821   0.11090   0.62426   0.00000  Uiso   1.00
C727   C     0.66709   0.08751   0.74894   0.00000  Uiso   1.00
C728   C     0.70707   0.02074   0.72114   0.00000  Uiso   1.00
C729   C     0.99934   0.29047   0.75123   0.00000  Uiso   1.00
C730   C     0.66732   0.04290   0.74858   0.00000  Uiso   1.00
C731   C     0.84892   0.14086   0.77739   0.00000  Uiso   1.00
C732   C     0.81777   0.19242   0.72255   0.00000  Uiso   1.00
C733   C     0.79952   0.14078   0.77728   0.00000  Uiso   1.00
C734   C     0.86722   0.19240   0.72255   0.00000  Uiso   1.00
C735   C     0.97203   0.16468   0.83555   0.00000  Uiso   1.00
C736   C     0.69462   0.16347   0.66475   0.00000  Uiso   1.00
C737   C     0.95575   0.15583   0.88311   0.00000  Uiso   1.00
C738   C     0.99959   0.24584   0.75098   0.00000  Uiso   1.00
C739   C     0.71099   0.15248   0.61794   0.00000  Uiso   1.00
C740   C     0.96760   0.12160   0.94739   0.00000  Uiso   1.00
C741   C     0.69833   0.11987   0.55350   0.00000  Uiso   1.00
C742   C     0.98612   0.13400   0.90306   0.00000  Uiso   1.00
C743   C     0.68173   0.12818   0.59909   0.00000  Uiso   1.00
C744   C     0.90677   0.16285   0.90727   0.00000  Uiso   1.00
C745   C     0.75901   0.16167   0.59300   0.00000  Uiso   1.00
C746   C     0.88936   0.15242   0.95227   0.00000  Uiso   1.00
C747   C     0.77595   0.15189   0.54808   0.00000  Uiso   1.00
C748   C     0.92252   0.13705   0.97328   0.00000  Uiso   1.00
C749   C     0.86193   0.14658   0.54445   0.00000  Uiso   1.00
C750   C     0.74258   0.13707   0.52733   0.00000  Uiso   1.00
C751   C     0.83938   0.15361   0.97670   0.00000  Uiso   1.00
C752   C     0.82580   0.15320   0.52359   0.00000  Uiso   1.00
C753   C     0.80298   0.14807   0.95597   0.00000  Uiso   1.00
C754   C     0.90883   0.13547   0.51947   0.00000  Uiso   1.00
C755   C     0.75597   0.13686   0.98107   0.00000  Uiso   1.00
C756   C     0.96043   0.02216   0.77681   0.00000  Uiso   1.00
C757   C     0.70621   0.31122   0.72295   0.00000  Uiso   1.00
C758   C     0.95950   0.31265   0.77853   0.00000  Uiso   1.00
Cu759  Cu    0.71355   0.16667   0.75000   0.00000  Uiso   1.00
Cu760  Cu    0.95311   0.16666   0.75000   0.00000  Uiso   1.00
H761   H     0.93437   0.12630   0.53650   0.00000  Uiso   1.00
H762   H     0.80665   0.21314   0.70049   0.00000  Uiso   1.00
H763   H     0.77384   0.11979   0.79901   0.00000  Uiso   1.00
H764   H     0.89304   0.21312   0.70050   0.00000  Uiso   1.00
H765   H     0.97578   0.10113   0.65250   0.00000  Uiso   1.00
H766   H     0.71900   0.14793   0.87445   0.00000  Uiso   1.00
H767   H     0.68272   0.07773   0.94077   0.00000  Uiso   1.00
H768   H     0.98380   0.07576   0.55829   0.00000  Uiso   1.00
H769   H     0.73031   0.12828   0.96410   0.00000  Uiso   1.00
H770   H     0.78278   0.17732   0.60845   0.00000  Uiso   1.00
H771   H     0.88276   0.17739   0.89113   0.00000  Uiso   1.00
H772   H     0.85307   0.14425   0.58002   0.00000  Uiso   1.00
H773   H     0.81164   0.14659   0.92039   0.00000  Uiso   1.00
H774   H     0.93014   0.03939   0.79828   0.00000  Uiso   1.00
H775   H     0.73649   0.29400   0.70146   0.00000  Uiso   1.00
H776   H     0.86005   0.12010   0.79940   0.00000  Uiso   1.00
I777   I     0.89859   0.28435   0.82548   0.00000  Uiso   1.00
I778   I     0.76751   0.04917   0.67372   0.00000  Uiso   1.00
N779   N     0.78403   0.16668   0.74999   0.00000  Uiso   1.00
N780   N     0.88264   0.16666   0.75001   0.00000  Uiso   1.00
O781   O     0.70625   0.10655   0.75000   0.00000  Uiso   1.00
O782   O     0.69924   0.12225   0.87922   0.00000  Uiso   1.00
O783   O     0.98960   0.09078   0.96459   0.00000  Uiso   1.00
O784   O     0.67657   0.09008   0.53513   0.00000  Uiso   1.00
O785   O     0.96042   0.22678   0.75000   0.00000  Uiso   1.00
O786   O     0.96039   0.10654   0.75000   0.00000  Uiso   1.00
O787   O     0.70628   0.22679   0.75000   0.00000  Uiso   1.00
O788   O     0.68519   0.16668   0.81492   0.00000  Uiso   1.00
O789   O     0.98148   0.16666   0.68508   0.00000  Uiso   1.00
O790   O     0.93933   0.16667   0.81492   0.00000  Uiso   1.00
O791   O     0.72733   0.16667   0.68508   0.00000  Uiso   1.00
O792   O     0.97154   0.11090   0.62426   0.00000  Uiso   1.00
C793   C     0.00043   0.42084   0.74894   0.00000  Uiso   1.00
C794   C     0.04040   0.35408   0.72114   0.00000  Uiso   1.00
C795   C     0.33267   0.62381   0.75123   0.00000  Uiso   1.00
C796   C     0.00066   0.37623   0.74858   0.00000  Uiso   1.00
C797   C     0.18226   0.47419   0.77739   0.00000  Uiso   1.00
C798   C     0.15110   0.52575   0.72255   0.00000  Uiso   1.00
C799   C     0.13286   0.47411   0.77728   0.00000  Uiso   1.00
C800   C     0.20055   0.52574   0.72255   0.00000  Uiso   1.00
C801   C     0.30536   0.49802   0.83555   0.00000  Uiso   1.00
C802   C     0.02795   0.49681   0.66475   0.00000  Uiso   1.00
C803   C     0.28909   0.48917   0.88311   0.00000  Uiso   1.00
C804   C     0.33292   0.57917   0.75098   0.00000  Uiso   1.00
C805   C     0.04433   0.48581   0.61794   0.00000  Uiso   1.00
C806   C     0.30093   0.45493   0.94739   0.00000  Uiso   1.00
C807   C     0.03167   0.45321   0.55350   0.00000  Uiso   1.00
C808   C     0.31945   0.46733   0.90306   0.00000  Uiso   1.00
C809   C     0.01506   0.46152   0.59909   0.00000  Uiso   1.00
C810   C     0.24011   0.49618   0.90727   0.00000  Uiso   1.00
C811   C     0.09234   0.49500   0.59300   0.00000  Uiso   1.00
C812   C     0.22269   0.48576   0.95227   0.00000  Uiso   1.00
C813   C     0.10928   0.48522   0.54808   0.00000  Uiso   1.00
C814   C     0.25585   0.47039   0.97328   0.00000  Uiso   1.00
C815   C     0.19526   0.47992   0.54445   0.00000  Uiso   1.00
C816   C     0.07591   0.47040   0.52733   0.00000  Uiso   1.00
C817   C     0.17271   0.48695   0.97670   0.00000  Uiso   1.00
C818   C     0.15913   0.48653   0.52359   0.00000  Uiso   1.00
C819   C     0.13632   0.48141   0.95597   0.00000  Uiso   1.00
C820   C     0.24216   0.46880   0.51947   0.00000  Uiso   1.00
C821   C     0.08930   0.47019   0.98107   0.00000  Uiso   1.00
C822   C     0.29376   0.35550   0.77681   0.00000  Uiso   1.00
C823   C     0.03954   0.64455   0.72295   0.00000  Uiso   1.00
C824   C     0.29283   0.64599   0.77853   0.00000  Uiso   1.00
Cu825  Cu    0.04689   0.50001   0.75000   0.00000  Uiso   1.00
Cu826  Cu    0.28645   0.49999   0.75000   0.00000  Uiso   1.00
H827   H     0.26771   0.45963   0.53650   0.00000  Uiso   1.00
H828   H     0.13999   0.54647   0.70049   0.00000  Uiso   1.00
H829   H     0.10717   0.45313   0.79901   0.00000  Uiso   1.00
H830   H     0.22638   0.54645   0.70050   0.00000  Uiso   1.00
H831   H     0.30911   0.43446   0.65250   0.00000  Uiso   1.00
H832   H     0.05234   0.48126   0.87445   0.00000  Uiso   1.00
H833   H     0.01606   0.41107   0.94077   0.00000  Uiso   1.00
H834   H     0.31713   0.40910   0.55829   0.00000  Uiso   1.00
H835   H     0.06364   0.46162   0.96410   0.00000  Uiso   1.00
H836   H     0.11611   0.51065   0.60845   0.00000  Uiso   1.00
H837   H     0.21609   0.51073   0.89113   0.00000  Uiso   1.00
H838   H     0.18640   0.47758   0.58002   0.00000  Uiso   1.00
H839   H     0.14497   0.47992   0.92039   0.00000  Uiso   1.00
H840   H     0.26347   0.37272   0.79828   0.00000  Uiso   1.00
H841   H     0.06983   0.62733   0.70146   0.00000  Uiso   1.00
H842   H     0.19339   0.45343   0.79940   0.00000  Uiso   1.00
I843   I     0.23193   0.61769   0.82548   0.00000  Uiso   1.00
I844   I     0.10084   0.38251   0.67372   0.00000  Uiso   1.00
N845   N     0.11736   0.50001   0.74999   0.00000  Uiso   1.00
N846   N     0.21597   0.49999   0.75001   0.00000  Uiso   1.00
O847   O     0.03958   0.43989   0.75000   0.00000  Uiso   1.00
O848   O     0.03258   0.45558   0.87922   0.00000  Uiso   1.00
O849   O     0.32293   0.42411   0.96459   0.00000  Uiso   1.00
O850   O     0.00991   0.42341   0.53513   0.00000  Uiso   1.00
O851   O     0.29375   0.56011   0.75000   0.00000  Uiso   1.00
O852   O     0.29372   0.43988   0.75000   0.00000  Uiso   1.00
O853   O     0.03961   0.56012   0.75000   0.00000  Uiso   1.00
O854   O     0.01852   0.50001   0.81492   0.00000  Uiso   1.00
O855   O     0.31481   0.49999   0.68508   0.00000  Uiso   1.00
O856   O     0.27267   0.50000   0.81492   0.00000  Uiso   1.00
O857   O     0.06067   0.50000   0.68508   0.00000  Uiso   1.00
O858   O     0.30488   0.44423   0.62426   0.00000  Uiso   1.00
C859   C     0.33376   0.42084   0.74894   0.00000  Uiso   1.00
C860   C     0.37374   0.35408   0.72114   0.00000  Uiso   1.00
C861   C     0.66600   0.62381   0.75123   0.00000  Uiso   1.00
C862   C     0.33399   0.37623   0.74858   0.00000  Uiso   1.00
C863   C     0.51559   0.47419   0.77739   0.00000  Uiso   1.00
C864   C     0.48444   0.52575   0.72255   0.00000  Uiso   1.00
C865   C     0.46619   0.47411   0.77728   0.00000  Uiso   1.00
C866   C     0.53388   0.52574   0.72255   0.00000  Uiso   1.00
C867   C     0.63870   0.49802   0.83555   0.00000  Uiso   1.00
C868   C     0.36129   0.49681   0.66475   0.00000  Uiso   1.00
C869   C     0.62242   0.48917   0.88311   0.00000  Uiso   1.00
C870   C     0.66625   0.57917   0.75098   0.00000  Uiso   1.00
C871   C     0.37766   0.48581   0.61794   0.00000  Uiso   1.00
C872   C     0.63427   0.45493   0.94739   0.00000  Uiso   1.00
C873   C     0.36500   0.45321   0.55350   0.00000  Uiso   1.00
C874   C     0.65278   0.46733   0.90306   0.00000  Uiso   1.00
C875   C     0.34840   0.46152   0.59909   0.00000  Uiso   1.00
C876   C     0.57344   0.49618   0.90727   0.00000  Uiso   1.00
C877   C     0.42568   0.49500   0.59300   0.00000  Uiso   1.00
C878   C     0.55603   0.48576   0.95227   0.00000  Uiso   1.00
C879   C     0.44262   0.48522   0.54808   0.00000  Uiso   1.00
C880   C     0.58918   0.47039   0.97328   0.00000  Uiso   1.00
C881   C     0.52860   0.47992   0.54445   0.00000  Uiso   1.00
C882   C     0.40925   0.47040   0.52733   0.00000  Uiso   1.00
C883   C     0.50604   0.48695   0.97670   0.00000  Uiso   1.00
C884   C     0.49246   0.48653   0.52359   0.00000  Uiso   1.00
C885   C     0.46965   0.48141   0.95597   0.00000  Uiso   1.00
C886   C     0.57550   0.46880   0.51947   0.00000  Uiso   1.00
C887   C     0.42264   0.47019   0.98107   0.00000  Uiso   1.00
C888   C     0.62710   0.35550   0.77681   0.00000  Uiso   1.00
C889   C     0.37288   0.64455   0.72295   0.00000  Uiso   1.00
C890   C     0.62616   0.64599   0.77853   0.00000  Uiso   1.00
Cu891  Cu    0.38022   0.50001   0.75000   0.00000  Uiso   1.00
Cu892  Cu    0.61978   0.49999   0.75000   0.00000  Uiso   1.00
H893   H     0.60104   0.45963   0.53650   0.00000  Uiso   1.00
H894   H     0.47332   0.54647   0.70049   0.00000  Uiso   1.00
H895   H     0.44050   0.45313   0.79901   0.00000  Uiso   1.00
H896   H     0.55971   0.54645   0.70050   0.00000  Uiso   1.00
H897   H     0.64245   0.43446   0.65250   0.00000  Uiso   1.00
H898   H     0.38567   0.48126   0.87445   0.00000  Uiso   1.00
H899   H     0.34939   0.41107   0.94077   0.00000  Uiso   1.00
H900   H     0.65046   0.40910   0.55829   0.00000  Uiso   1.00
H901   H     0.39698   0.46162   0.96410   0.00000  Uiso   1.00
H902   H     0.44945   0.51065   0.60845   0.00000  Uiso   1.00
H903   H     0.54943   0.51073   0.89113   0.00000  Uiso   1.00
H904   H     0.51973   0.47758   0.58002   0.00000  Uiso   1.00
H905   H     0.47830   0.47992   0.92039   0.00000  Uiso   1.00
H906   H     0.59680   0.37272   0.79828   0.00000  Uiso   1.00
H907   H     0.40316   0.62733   0.70146   0.00000  Uiso   1.00
H908   H     0.52672   0.45343   0.79940   0.00000  Uiso   1.00
I909   I     0.56526   0.61769   0.82548   0.00000  Uiso   1.00
I910   I     0.43418   0.38251   0.67372   0.00000  Uiso   1.00
N911   N     0.45069   0.50001   0.74999   0.00000  Uiso   1.00
N912   N     0.54931   0.49999   0.75001   0.00000  Uiso   1.00
O913   O     0.37291   0.43989   0.75000   0.00000  Uiso   1.00
O914   O     0.36591   0.45558   0.87922   0.00000  Uiso   1.00
O915   O     0.65626   0.42411   0.96459   0.00000  Uiso   1.00
O916   O     0.34324   0.42341   0.53513   0.00000  Uiso   1.00
O917   O     0.62709   0.56011   0.75000   0.00000  Uiso   1.00
O918   O     0.62706   0.43988   0.75000   0.00000  Uiso   1.00
O919   O     0.37294   0.56012   0.75000   0.00000  Uiso   1.00
O920   O     0.35186   0.50001   0.81492   0.00000  Uiso   1.00
O921   O     0.64814   0.49999   0.68508   0.00000  Uiso   1.00
O922   O     0.60600   0.50000   0.81492   0.00000  Uiso   1.00
O923   O     0.39400   0.50000   0.68508   0.00000  Uiso   1.00
O924   O     0.63821   0.44423   0.62426   0.00000  Uiso   1.00
C925   C     0.66709   0.42084   0.74894   0.00000  Uiso   1.00
C926   C     0.70707   0.35408   0.72114   0.00000  Uiso   1.00
C927   C     0.99934   0.62381   0.75123   0.00000  Uiso   1.00
C928   C     0.66732   0.37623   0.74858   0.00000  Uiso   1.00
C929   C     0.84892   0.47419   0.77739   0.00000  Uiso   1.00
C930   C     0.81777   0.52575   0.72255   0.00000  Uiso   1.00
C931   C     0.79952   0.47411   0.77728   0.00000  Uiso   1.00
C932   C     0.86722   0.52574   0.72255   0.00000  Uiso   1.00
C933   C     0.97203   0.49802   0.83555   0.00000  Uiso   1.00
C934   C     0.69462   0.49681   0.66475   0.00000  Uiso   1.00
C935   C     0.95575   0.48917   0.88311   0.00000  Uiso   1.00
C936   C     0.99959   0.57917   0.75098   0.00000  Uiso   1.00
C937   C     0.71099   0.48581   0.61794   0.00000  Uiso   1.00
C938   C     0.96760   0.45493   0.94739   0.00000  Uiso   1.00
C939   C     0.69833   0.45321   0.55350   0.00000  Uiso   1.00
C940   C     0.98612   0.46733   0.90306   0.00000  Uiso   1.00
C941   C     0.68173   0.46152   0.59909   0.00000  Uiso   1.00
C942   C     0.90677   0.49618   0.90727   0.00000  Uiso   1.00
C943   C     0.75901   0.49500   0.59300   0.00000  Uiso   1.00
C944   C     0.88936   0.48576   0.95227   0.00000  Uiso   1.00
C945   C     0.77595   0.48522   0.54808   0.00000  Uiso   1.00
C946   C     0.92252   0.47039   0.97328   0.00000  Uiso   1.00
C947   C     0.86193   0.47992   0.54445   0.00000  Uiso   1.00
C948   C     0.74258   0.47040   0.52733   0.00000  Uiso   1.00
C949   C     0.83938   0.48695   0.97670   0.00000  Uiso   1.00
C950   C     0.82580   0.48653   0.52359   0.00000  Uiso   1.00
C951   C     0.80298   0.48141   0.95597   0.00000  Uiso   1.00
C952   C     0.90883   0.46880   0.51947   0.00000  Uiso   1.00
C953   C     0.75597   0.47019   0.98107   0.00000  Uiso   1.00
C954   C     0.96043   0.35550   0.77681   0.00000  Uiso   1.00
C955   C     0.70621   0.64455   0.72295   0.00000  Uiso   1.00
C956   C     0.95950   0.64599   0.77853   0.00000  Uiso   1.00
Cu957  Cu    0.71355   0.50001   0.75000   0.00000  Uiso   1.00
Cu958  Cu    0.95311   0.49999   0.75000   0.00000  Uiso   1.00
H959   H     0.93437   0.45963   0.53650   0.00000  Uiso   1.00
H960   H     0.80665   0.54647   0.70049   0.00000  Uiso   1.00
H961   H     0.77384   0.45313   0.79901   0.00000  Uiso   1.00
H962   H     0.89304   0.54645   0.70050   0.00000  Uiso   1.00
H963   H     0.97578   0.43446   0.65250   0.00000  Uiso   1.00
H964   H     0.71900   0.48126   0.87445   0.00000  Uiso   1.00
H965   H     0.68272   0.41107   0.94077   0.00000  Uiso   1.00
H966   H     0.98380   0.40910   0.55829   0.00000  Uiso   1.00
H967   H     0.73031   0.46162   0.96410   0.00000  Uiso   1.00
H968   H     0.78278   0.51065   0.60845   0.00000  Uiso   1.00
H969   H     0.88276   0.51073   0.89113   0.00000  Uiso   1.00
H970   H     0.85307   0.47758   0.58002   0.00000  Uiso   1.00
H971   H     0.81164   0.47992   0.92039   0.00000  Uiso   1.00
H972   H     0.93014   0.37272   0.79828   0.00000  Uiso   1.00
H973   H     0.73649   0.62733   0.70146   0.00000  Uiso   1.00
H974   H     0.86005   0.45343   0.79940   0.00000  Uiso   1.00
I975   I     0.89859   0.61769   0.82548   0.00000  Uiso   1.00
I976   I     0.76751   0.38251   0.67372   0.00000  Uiso   1.00
N977   N     0.78403   0.50001   0.74999   0.00000  Uiso   1.00
N978   N     0.88264   0.49999   0.75001   0.00000  Uiso   1.00
O979   O     0.70625   0.43989   0.75000   0.00000  Uiso   1.00
O980   O     0.69924   0.45558   0.87922   0.00000  Uiso   1.00
O981   O     0.98960   0.42411   0.96459   0.00000  Uiso   1.00
O982   O     0.67657   0.42341   0.53513   0.00000  Uiso   1.00
O983   O     0.96042   0.56011   0.75000   0.00000  Uiso   1.00
O984   O     0.96039   0.43988   0.75000   0.00000  Uiso   1.00
O985   O     0.70628   0.56012   0.75000   0.00000  Uiso   1.00
O986   O     0.68519   0.50001   0.81492   0.00000  Uiso   1.00
O987   O     0.98148   0.49999   0.68508   0.00000  Uiso   1.00
O988   O     0.93933   0.50000   0.81492   0.00000  Uiso   1.00
O989   O     0.72733   0.50000   0.68508   0.00000  Uiso   1.00
O990   O     0.97154   0.44423   0.62426   0.00000  Uiso   1.00
C991   C     0.00043   0.75418   0.74894   0.00000  Uiso   1.00
C992   C     0.04040   0.68741   0.72114   0.00000  Uiso   1.00
C993   C     0.33267   0.95714   0.75123   0.00000  Uiso   1.00
C994   C     0.00066   0.70957   0.74858   0.00000  Uiso   1.00
C995   C     0.18226   0.80752   0.77739   0.00000  Uiso   1.00
C996   C     0.15110   0.85909   0.72255   0.00000  Uiso   1.00
C997   C     0.13286   0.80745   0.77728   0.00000  Uiso   1.00
C998   C     0.20055   0.85907   0.72255   0.00000  Uiso   1.00
C999   C     0.30536   0.83135   0.83555   0.00000  Uiso   1.00
C1000  C     0.02795   0.83014   0.66475   0.00000  Uiso   1.00
C1001  C     0.28909   0.82250   0.88311   0.00000  Uiso   1.00
C1002  C     0.33292   0.91250   0.75098   0.00000  Uiso   1.00
C1003  C     0.04433   0.81915   0.61794   0.00000  Uiso   1.00
C1004  C     0.30093   0.78827   0.94739   0.00000  Uiso   1.00
C1005  C     0.03167   0.78654   0.55350   0.00000  Uiso   1.00
C1006  C     0.31945   0.80067   0.90306   0.00000  Uiso   1.00
C1007  C     0.01506   0.79485   0.59909   0.00000  Uiso   1.00
C1008  C     0.24011   0.82951   0.90727   0.00000  Uiso   1.00
C1009  C     0.09234   0.82834   0.59300   0.00000  Uiso   1.00
C1010  C     0.22269   0.81909   0.95227   0.00000  Uiso   1.00
C1011  C     0.10928   0.81856   0.54808   0.00000  Uiso   1.00
C1012  C     0.25585   0.80372   0.97328   0.00000  Uiso   1.00
C1013  C     0.19526   0.81325   0.54445   0.00000  Uiso   1.00
C1014  C     0.07591   0.80373   0.52733   0.00000  Uiso   1.00
C1015  C     0.17271   0.82028   0.97670   0.00000  Uiso   1.00
C1016  C     0.15913   0.81987   0.52359   0.00000  Uiso   1.00
C1017  C     0.13632   0.81474   0.95597   0.00000  Uiso   1.00
C1018  C     0.24216   0.80213   0.51947   0.00000  Uiso   1.00
C1019  C     0.08930   0.80352   0.98107   0.00000  Uiso   1.00
C1020  C     0.29376   0.68883   0.77681   0.00000  Uiso   1.00
C1021  C     0.03954   0.97789   0.72295   0.00000  Uiso   1.00
C1022  C     0.29283   0.97932   0.77853   0.00000  Uiso   1.00
Cu1023 Cu    0.04689   0.83334   0.75000   0.00000  Uiso   1.00
Cu1024 Cu    0.28645   0.83333   0.75000   0.00000  Uiso   1.00
H1025  H     0.26771   0.79297   0.53650   0.00000  Uiso   1.00
H1026  H     0.13999   0.87980   0.70049   0.00000  Uiso   1.00
H1027  H     0.10717   0.78646   0.79901   0.00000  Uiso   1.00
H1028  H     0.22638   0.87978   0.70050   0.00000  Uiso   1.00
H1029  H     0.30911   0.76779   0.65250   0.00000  Uiso   1.00
H1030  H     0.05234   0.81460   0.87445   0.00000  Uiso   1.00
H1031  H     0.01606   0.74440   0.94077   0.00000  Uiso   1.00
H1032  H     0.31713   0.74243   0.55829   0.00000  Uiso   1.00
H1033  H     0.06364   0.79495   0.96410   0.00000  Uiso   1.00
H1034  H     0.11611   0.84398   0.60845   0.00000  Uiso   1.00
H1035  H     0.21609   0.84406   0.89113   0.00000  Uiso   1.00
H1036  H     0.18640   0.81091   0.58002   0.00000  Uiso   1.00
H1037  H     0.14497   0.81326   0.92039   0.00000  Uiso   1.00
H1038  H     0.26347   0.70606   0.79828   0.00000  Uiso   1.00
H1039  H     0.06983   0.96066   0.70146   0.00000  Uiso   1.00
H1040  H     0.19339   0.78676   0.79940   0.00000  Uiso   1.00
I1041  I     0.23193   0.95102   0.82548   0.00000  Uiso   1.00
I1042  I     0.10084   0.71584   0.67372   0.00000  Uiso   1.00
N1043  N     0.11736   0.83334   0.74999   0.00000  Uiso   1.00
N1044  N     0.21597   0.83332   0.75001   0.00000  Uiso   1.00
O1045  O     0.03958   0.77322   0.75000   0.00000  Uiso   1.00
O1046  O     0.03258   0.78892   0.87922   0.00000  Uiso   1.00
O1047  O     0.32293   0.75745   0.96459   0.00000  Uiso   1.00
O1048  O     0.00991   0.75674   0.53513   0.00000  Uiso   1.00
O1049  O     0.29375   0.89345   0.75000   0.00000  Uiso   1.00
O1050  O     0.29372   0.77321   0.75000   0.00000  Uiso   1.00
O1051  O     0.03961   0.89346   0.75000   0.00000  Uiso   1.00
O1052  O     0.01852   0.83334   0.81492   0.00000  Uiso   1.00
O1053  O     0.31481   0.83332   0.68508   0.00000  Uiso   1.00
O1054  O     0.27267   0.83333   0.81492   0.00000  Uiso   1.00
O1055  O     0.06067   0.83333   0.68508   0.00000  Uiso   1.00
O1056  O     0.30488   0.77756   0.62426   0.00000  Uiso   1.00
C1057  C     0.33376   0.75418   0.74894   0.00000  Uiso   1.00
C1058  C     0.37374   0.68741   0.72114   0.00000  Uiso   1.00
C1059  C     0.66600   0.95714   0.75123   0.00000  Uiso   1.00
C1060  C     0.33399   0.70957   0.74858   0.00000  Uiso   1.00
C1061  C     0.51559   0.80752   0.77739   0.00000  Uiso   1.00
C1062  C     0.48444   0.85909   0.72255   0.00000  Uiso   1.00
C1063  C     0.46619   0.80745   0.77728   0.00000  Uiso   1.00
C1064  C     0.53388   0.85907   0.72255   0.00000  Uiso   1.00
C1065  C     0.63870   0.83135   0.83555   0.00000  Uiso   1.00
C1066  C     0.36129   0.83014   0.66475   0.00000  Uiso   1.00
C1067  C     0.62242   0.82250   0.88311   0.00000  Uiso   1.00
C1068  C     0.66625   0.91250   0.75098   0.00000  Uiso   1.00
C1069  C     0.37766   0.81915   0.61794   0.00000  Uiso   1.00
C1070  C     0.63427   0.78827   0.94739   0.00000  Uiso   1.00
C1071  C     0.36500   0.78654   0.55350   0.00000  Uiso   1.00
C1072  C     0.65278   0.80067   0.90306   0.00000  Uiso   1.00
C1073  C     0.34840   0.79485   0.59909   0.00000  Uiso   1.00
C1074  C     0.57344   0.82951   0.90727   0.00000  Uiso   1.00
C1075  C     0.42568   0.82834   0.59300   0.00000  Uiso   1.00
C1076  C     0.55603   0.81909   0.95227   0.00000  Uiso   1.00
C1077  C     0.44262   0.81856   0.54808   0.00000  Uiso   1.00
C1078  C     0.58918   0.80372   0.97328   0.00000  Uiso   1.00
C1079  C     0.52860   0.81325   0.54445   0.00000  Uiso   1.00
C1080  C     0.40925   0.80373   0.52733   0.00000  Uiso   1.00
C1081  C     0.50604   0.82028   0.97670   0.00000  Uiso   1.00
C1082  C     0.49246   0.81987   0.52359   0.00000  Uiso   1.00
C1083  C     0.46965   0.81474   0.95597   0.00000  Uiso   1.00
C1084  C     0.57550   0.80213   0.51947   0.00000  Uiso   1.00
C1085  C     0.42264   0.80352   0.98107   0.00000  Uiso   1.00
C1086  C     0.62710   0.68883   0.77681   0.00000  Uiso   1.00
C1087  C     0.37288   0.97789   0.72295   0.00000  Uiso   1.00
C1088  C     0.62616   0.97932   0.77853   0.00000  Uiso   1.00
Cu1089 Cu    0.38022   0.83334   0.75000   0.00000  Uiso   1.00
Cu1090 Cu    0.61978   0.83333   0.75000   0.00000  Uiso   1.00
H1091  H     0.60104   0.79297   0.53650   0.00000  Uiso   1.00
H1092  H     0.47332   0.87980   0.70049   0.00000  Uiso   1.00
H1093  H     0.44050   0.78646   0.79901   0.00000  Uiso   1.00
H1094  H     0.55971   0.87978   0.70050   0.00000  Uiso   1.00
H1095  H     0.64245   0.76779   0.65250   0.00000  Uiso   1.00
H1096  H     0.38567   0.81460   0.87445   0.00000  Uiso   1.00
H1097  H     0.34939   0.74440   0.94077   0.00000  Uiso   1.00
H1098  H     0.65046   0.74243   0.55829   0.00000  Uiso   1.00
H1099  H     0.39698   0.79495   0.96410   0.00000  Uiso   1.00
H1100  H     0.44945   0.84398   0.60845   0.00000  Uiso   1.00
H1101  H     0.54943   0.84406   0.89113   0.00000  Uiso   1.00
H1102  H     0.51973   0.81091   0.58002   0.00000  Uiso   1.00
H1103  H     0.47830   0.81326   0.92039   0.00000  Uiso   1.00
H1104  H     0.59680   0.70606   0.79828   0.00000  Uiso   1.00
H1105  H     0.40316   0.96066   0.70146   0.00000  Uiso   1.00
H1106  H     0.52672   0.78676   0.79940   0.00000  Uiso   1.00
I1107  I     0.56526   0.95102   0.82548   0.00000  Uiso   1.00
I1108  I     0.43418   0.71584   0.67372   0.00000  Uiso   1.00
N1109  N     0.45069   0.83334   0.74999   0.00000  Uiso   1.00
N1110  N     0.54931   0.83332   0.75001   0.00000  Uiso   1.00
O1111  O     0.37291   0.77322   0.75000   0.00000  Uiso   1.00
O1112  O     0.36591   0.78892   0.87922   0.00000  Uiso   1.00
O1113  O     0.65626   0.75745   0.96459   0.00000  Uiso   1.00
O1114  O     0.34324   0.75674   0.53513   0.00000  Uiso   1.00
O1115  O     0.62709   0.89345   0.75000   0.00000  Uiso   1.00
O1116  O     0.62706   0.77321   0.75000   0.00000  Uiso   1.00
O1117  O     0.37294   0.89346   0.75000   0.00000  Uiso   1.00
O1118  O     0.35186   0.83334   0.81492   0.00000  Uiso   1.00
O1119  O     0.64814   0.83332   0.68508   0.00000  Uiso   1.00
O1120  O     0.60600   0.83333   0.81492   0.00000  Uiso   1.00
O1121  O     0.39400   0.83333   0.68508   0.00000  Uiso   1.00
O1122  O     0.63821   0.77756   0.62426   0.00000  Uiso   1.00
C1123  C     0.66709   0.75418   0.74894   0.00000  Uiso   1.00
C1124  C     0.70707   0.68741   0.72114   0.00000  Uiso   1.00
C1125  C     0.99934   0.95714   0.75123   0.00000  Uiso   1.00
C1126  C     0.66732   0.70957   0.74858   0.00000  Uiso   1.00
C1127  C     0.84892   0.80752   0.77739   0.00000  Uiso   1.00
C1128  C     0.81777   0.85909   0.72255   0.00000  Uiso   1.00
C1129  C     0.79952   0.80745   0.77728   0.00000  Uiso   1.00
C1130  C     0.86722   0.85907   0.72255   0.00000  Uiso   1.00
C1131  C     0.97203   0.83135   0.83555   0.00000  Uiso   1.00
C1132  C     0.69462   0.83014   0.66475   0.00000  Uiso   1.00
C1133  C     0.95575   0.82250   0.88311   0.00000  Uiso   1.00
C1134  C     0.99959   0.91250   0.75098   0.00000  Uiso   1.00
C1135  C     0.71099   0.81915   0.61794   0.00000  Uiso   1.00
C1136  C     0.96760   0.78827   0.94739   0.00000  Uiso   1.00
C1137  C     0.69833   0.78654   0.55350   0.00000  Uiso   1.00
C1138  C     0.98612   0.80067   0.90306   0.00000  Uiso   1.00
C1139  C     0.68173   0.79485   0.59909   0.00000  Uiso   1.00
C1140  C     0.90677   0.82951   0.90727   0.00000  Uiso   1.00
C1141  C     0.75901   0.82834   0.59300   0.00000  Uiso   1.00
C1142  C     0.88936   0.81909   0.95227   0.00000  Uiso   1.00
C1143  C     0.77595   0.81856   0.54808   0.00000  Uiso   1.00
C1144  C     0.92252   0.80372   0.97328   0.00000  Uiso   1.00
C1145  C     0.86193   0.81325   0.54445   0.00000  Uiso   1.00
C1146  C     0.74258   0.80373   0.52733   0.00000  Uiso   1.00
C1147  C     0.83938   0.82028   0.97670   0.00000  Uiso   1.00
C1148  C     0.82580   0.81987   0.52359   0.00000  Uiso   1.00
C1149  C     0.80298   0.81474   0.95597   0.00000  Uiso   1.00
C1150  C     0.90883   0.80213   0.51947   0.00000  Uiso   1.00
C1151  C     0.75597   0.80352   0.98107   0.00000  Uiso   1.00
C1152  C     0.96043   0.68883   0.77681   0.00000  Uiso   1.00
C1153  C     0.70621   0.97789   0.72295   0.00000  Uiso   1.00
C1154  C     0.95950   0.97932   0.77853   0.00000  Uiso   1.00
Cu1155 Cu    0.71355   0.83334   0.75000   0.00000  Uiso   1.00
Cu1156 Cu    0.95311   0.83333   0.75000   0.00000  Uiso   1.00
H1157  H     0.93437   0.79297   0.53650   0.00000  Uiso   1.00
H1158  H     0.80665   0.87980   0.70049   0.00000  Uiso   1.00
H1159  H     0.77384   0.78646   0.79901   0.00000  Uiso   1.00
H1160  H     0.89304   0.87978   0.70050   0.00000  Uiso   1.00
H1161  H     0.97578   0.76779   0.65250   0.00000  Uiso   1.00
H1162  H     0.71900   0.81460   0.87445   0.00000  Uiso   1.00
H1163  H     0.68272   0.74440   0.94077   0.00000  Uiso   1.00
H1164  H     0.98380   0.74243   0.55829   0.00000  Uiso   1.00
H1165  H     0.73031   0.79495   0.96410   0.00000  Uiso   1.00
H1166  H     0.78278   0.84398   0.60845   0.00000  Uiso   1.00
H1167  H     0.88276   0.84406   0.89113   0.00000  Uiso   1.00
H1168  H     0.85307   0.81091   0.58002   0.00000  Uiso   1.00
H1169  H     0.81164   0.81326   0.92039   0.00000  Uiso   1.00
H1170  H     0.93014   0.70606   0.79828   0.00000  Uiso   1.00
H1171  H     0.73649   0.96066   0.70146   0.00000  Uiso   1.00
H1172  H     0.86005   0.78676   0.79940   0.00000  Uiso   1.00
I1173  I     0.89859   0.95102   0.82548   0.00000  Uiso   1.00
I1174  I     0.76751   0.71584   0.67372   0.00000  Uiso   1.00
N1175  N     0.78403   0.83334   0.74999   0.00000  Uiso   1.00
N1176  N     0.88264   0.83332   0.75001   0.00000  Uiso   1.00
O1177  O     0.70625   0.77322   0.75000   0.00000  Uiso   1.00
O1178  O     0.69924   0.78892   0.87922   0.00000  Uiso   1.00
O1179  O     0.98960   0.75745   0.96459   0.00000  Uiso   1.00
O1180  O     0.67657   0.75674   0.53513   0.00000  Uiso   1.00
O1181  O     0.96042   0.89345   0.75000   0.00000  Uiso   1.00
O1182  O     0.96039   0.77321   0.75000   0.00000  Uiso   1.00
O1183  O     0.70628   0.89346   0.75000   0.00000  Uiso   1.00
O1184  O     0.68519   0.83334   0.81492   0.00000  Uiso   1.00
O1185  O     0.98148   0.83332   0.68508   0.00000  Uiso   1.00
O1186  O     0.93933   0.83333   0.81492   0.00000  Uiso   1.00
O1187  O     0.72733   0.83333   0.68508   0.00000  Uiso   1.00
O1188  O     0.97154   0.77756   0.62426   0.00000  Uiso   1.00
loop_
_geom_bond_atom_site_label_1
_geom_bond_atom_site_label_2
_geom_bond_distance
_geom_bond_site_symmetry_2
_ccdc_geom_bond_type
C1     C4      1.442   .     S
C1     O55     1.294   .     A
C1     O192    1.296   1_455 S
C2     C4      1.406   .     A
C2     I52     2.128   .     S
C2     C427    1.386   1_545 S
C3     C32     1.406   .     A
C3     C12     1.443   .     S
C3     C97     1.399   .     S
C4     C162    1.399   1_455 S
C5     C7      1.422   .     A
C5     H50     1.082   .     S
C5     N54     1.369   .     A
C6     H36     1.082   .     S
C6     N53     1.369   .     A
C6     C8      1.422   .     A
C7     H37     1.081   .     S
C7     N53     1.369   .     A
C8     H38     1.082   .     S
C8     N54     1.369   .     A
C9     O64     1.301   .     A
C9     C11     1.465   .     S
C9     O128    1.299   .     S
C10    O65     1.298   .     A
C10    C13     1.462   .     S
C10    O195    1.300   1_455 S
C11    C18     1.403   .     A
C11    C16     1.411   .     A
C12    O59     1.294   .     A
C12    O127    1.296   .     S
C13    C17     1.414   .     A
C13    C19     1.399   .     A
C14    C22     1.400   .     A
C14    C16     1.401   .     A
C14    O57     1.375   .     S
C15    O58     1.376   .     S
C15    C17     1.407   .     A
C15    C24     1.405   .     A
C16    O122    1.374   .     S
C17    O198    1.381   1_455 S
C18    C20     1.402   .     A
C18    H45     1.082   .     S
C19    H44     1.083   .     S
C19    C21     1.398   .     A
C20    C22     1.408   .     A
C20    C25     1.411   .     A
C21    C26     1.408   .     A
C21    C24     1.406   .     A
C22    C622    1.399   .     S
C23    H46     1.082   .     S
C23    C28     1.389   .     A
C23    C26     1.407   .     A
C24    C623    1.401   1_554 S
C25    C27     1.408   .     A
C25    C620    1.419   .     S
C26    C619    1.419   1_554 S
C27    H47     1.081   .     S
C27    C29     1.392   .     A
C28    H35     1.076   .     S
C28    C616    1.399   1_554 S
C29    H43     1.076   .     S
C29    C618    1.401   .     S
C30    H48     1.084   .     S
C30    C70     1.399   .     S
C30    C428    1.386   1_545 S
C31    H49     1.084   .     S
C31    C200    1.386   .     S
C31    C135    1.399   1_455 S
C32    I51     2.128   .     S
C32    C228    1.386   .     S
Cu33   O55     1.956   .     S
Cu33   O65     1.977   .     S
Cu33   N53     2.027   .     S
Cu33   O61     1.954   .     S
Cu33   O62     1.972   .     S
Cu33   Cu166   2.697   1_455 S
Cu34   O60     1.954   .     S
Cu34   O64     1.977   .     S
Cu34   O63     1.972   .     S
Cu34   N54     2.027   .     S
Cu34   O59     1.956   .     S
Cu34   Cu99    2.697   .     S
H39    O66     0.991   .     S
H40    O56     0.992   .     S
H41    O189    0.991   1_455 S
H42    O124    0.990   .     S
O56    C148    1.374   1_455 S
O57    H107    0.991   .     S
O58    H174    0.990   1_455 S
O60    C67     1.296   .     S
O61    C144    1.296   1_455 S
O62    C141    1.299   1_455 S
O63    C76     1.300   .     S
O66    C83     1.381   .     S
C67    C70     1.442   .     S
C67    O121    1.294   .     A
C68    C70     1.406   .     A
C68    I118    2.128   .     S
C68    C493    1.386   1_545 S
C69    C98     1.406   .     A
C69    C78     1.443   .     S
C69    C163    1.399   .     S
C71    C73     1.422   .     A
C71    H116    1.082   .     S
C71    N120    1.369   .     A
C72    H102    1.082   .     S
C72    N119    1.369   .     A
C72    C74     1.422   .     A
C73    H103    1.081   .     S
C73    N119    1.369   .     A
C74    H104    1.082   .     S
C74    N120    1.369   .     A
C75    O130    1.301   .     A
C75    C77     1.465   .     S
C75    O194    1.299   .     S
C76    O131    1.298   .     A
C76    C79     1.462   .     S
C77    C84     1.403   .     A
C77    C82     1.411   .     A
C78    O125    1.294   .     A
C78    O193    1.296   .     S
C79    C83     1.414   .     A
C79    C85     1.399   .     A
C80    C88     1.400   .     A
C80    C82     1.401   .     A
C80    O123    1.375   .     S
C81    O124    1.376   .     S
C81    C83     1.407   .     A
C81    C90     1.405   .     A
C82    O188    1.374   .     S
C84    C86     1.402   .     A
C84    H111    1.082   .     S
C85    H110    1.083   .     S
C85    C87     1.398   .     A
C86    C88     1.408   .     A
C86    C91     1.411   .     A
C87    C92     1.408   .     A
C87    C90     1.406   .     A
C88    C688    1.399   .     S
C89    H112    1.082   .     S
C89    C94     1.389   .     A
C89    C92     1.407   .     A
C90    C689    1.401   1_554 S
C91    C93     1.408   .     A
C91    C686    1.419   .     S
C92    C685    1.419   1_554 S
C93    H113    1.081   .     S
C93    C95     1.392   .     A
C94    H101    1.076   .     S
C94    C682    1.399   1_554 S
C95    H109    1.076   .     S
C95    C684    1.401   .     S
C96    H114    1.084   .     S
C96    C136    1.399   .     S
C96    C494    1.386   1_545 S
C97    H115    1.084   .     S
C97    C266    1.386   .     S
C98    I117    2.128   .     S
C98    C294    1.386   .     S
Cu99   O121    1.956   .     S
Cu99   O131    1.977   .     S
Cu99   N119    2.027   .     S
Cu99   O127    1.954   .     S
Cu99   O128    1.972   .     S
Cu100  O126    1.954   .     S
Cu100  O130    1.977   .     S
Cu100  O129    1.972   .     S
Cu100  N120    2.027   .     S
Cu100  O125    1.956   .     S
Cu100  Cu165   2.697   .     S
H105   O132    0.991   .     S
H106   O122    0.992   .     S
H108   O190    0.990   .     S
O123   H173    0.991   .     S
O126   C133    1.296   .     S
O129   C142    1.300   .     S
O132   C149    1.381   .     S
C133   C136    1.442   .     S
C133   O187    1.294   .     A
C134   C136    1.406   .     A
C134   I184    2.128   .     S
C134   C559    1.386   1_545 S
C135   C164    1.406   .     A
C135   C144    1.443   .     S
C135   C31     1.399   1_655 S
C137   C139    1.422   .     A
C137   H182    1.082   .     S
C137   N186    1.369   .     A
C138   H168    1.082   .     S
C138   N185    1.369   .     A
C138   C140    1.422   .     A
C139   H169    1.081   .     S
C139   N185    1.369   .     A
C140   H170    1.082   .     S
C140   N186    1.369   .     A
C141   O196    1.301   .     A
C141   C143    1.465   .     S
C141   O62     1.299   1_655 S
C142   O197    1.298   .     A
C142   C145    1.462   .     S
C143   C150    1.403   .     A
C143   C148    1.411   .     A
C144   O191    1.294   .     A
C144   O61     1.296   1_655 S
C145   C149    1.414   .     A
C145   C151    1.399   .     A
C146   C154    1.400   .     A
C146   C148    1.401   .     A
C146   O189    1.375   .     S
C147   O190    1.376   .     S
C147   C149    1.407   .     A
C147   C156    1.405   .     A
C148   O56     1.374   1_655 S
C150   C152    1.402   .     A
C150   H177    1.082   .     S
C151   H176    1.083   .     S
C151   C153    1.398   .     A
C152   C154    1.408   .     A
C152   C157    1.411   .     A
C153   C158    1.408   .     A
C153   C156    1.406   .     A
C154   C754    1.399   .     S
C155   H178    1.082   .     S
C155   C160    1.389   .     A
C155   C158    1.407   .     A
C156   C755    1.401   1_554 S
C157   C159    1.408   .     A
C157   C752    1.419   .     S
C158   C751    1.419   1_554 S
C159   H179    1.081   .     S
C159   C161    1.392   .     A
C160   H167    1.076   .     S
C160   C748    1.399   1_554 S
C161   H175    1.076   .     S
C161   C750    1.401   .     S
C162   H180    1.084   .     S
C162   C4      1.399   1_655 S
C162   C560    1.386   1_545 S
C163   H181    1.084   .     S
C163   C332    1.386   .     S
C164   I183    2.128   .     S
C164   C360    1.386   .     S
Cu165  O187    1.956   .     S
Cu165  O197    1.977   .     S
Cu165  N185    2.027   .     S
Cu165  O193    1.954   .     S
Cu165  O194    1.972   .     S
Cu166  O192    1.954   .     S
Cu166  O196    1.977   .     S
Cu166  O195    1.972   .     S
Cu166  N186    2.027   .     S
Cu166  O191    1.956   .     S
Cu166  Cu33    2.697   1_655 S
H171   O198    0.991   .     S
H172   O188    0.992   .     S
H174   O58     0.990   1_655 S
O189   H41     0.991   1_655 S
O192   C1      1.296   1_655 S
O195   C10     1.300   1_655 S
O198   C17     1.381   1_655 S
C199   C202    1.442   .     S
C199   O253    1.294   .     A
C199   O390    1.296   1_455 S
C200   C202    1.406   .     A
C200   I250    2.128   .     S
C201   C230    1.406   .     A
C201   C210    1.443   .     S
C201   C295    1.399   .     S
C202   C360    1.399   1_455 S
C203   C205    1.422   .     A
C203   H248    1.082   .     S
C203   N252    1.369   .     A
C204   H234    1.082   .     S
C204   N251    1.369   .     A
C204   C206    1.422   .     A
C205   H235    1.081   .     S
C205   N251    1.369   .     A
C206   H236    1.082   .     S
C206   N252    1.369   .     A
C207   O262    1.301   .     A
C207   C209    1.465   .     S
C207   O326    1.299   .     S
C208   O263    1.298   .     A
C208   C211    1.462   .     S
C208   O393    1.300   1_455 S
C209   C216    1.403   .     A
C209   C214    1.411   .     A
C210   O257    1.294   .     A
C210   O325    1.296   .     S
C211   C215    1.414   .     A
C211   C217    1.399   .     A
C212   C220    1.400   .     A
C212   C214    1.401   .     A
C212   O255    1.375   .     S
C213   O256    1.376   .     S
C213   C215    1.407   .     A
C213   C222    1.405   .     A
C214   O320    1.374   .     S
C215   O396    1.381   1_455 S
C216   C218    1.402   .     A
C216   H243    1.082   .     S
C217   H242    1.083   .     S
C217   C219    1.398   .     A
C218   C220    1.408   .     A
C218   C223    1.411   .     A
C219   C224    1.408   .     A
C219   C222    1.406   .     A
C220   C820    1.399   .     S
C221   H244    1.082   .     S
C221   C226    1.389   .     A
C221   C224    1.407   .     A
C222   C821    1.401   1_554 S
C223   C225    1.408   .     A
C223   C818    1.419   .     S
C224   C817    1.419   1_554 S
C225   H245    1.081   .     S
C225   C227    1.392   .     A
C226   H233    1.076   .     S
C226   C814    1.399   1_554 S
C227   H241    1.076   .     S
C227   C816    1.401   .     S
C228   H246    1.084   .     S
C228   C268    1.399   .     S
C229   H247    1.084   .     S
C229   C398    1.386   .     S
C229   C333    1.399   1_455 S
C230   I249    2.128   .     S
C230   C426    1.386   .     S
Cu231  O253    1.956   .     S
Cu231  O263    1.977   .     S
Cu231  N251    2.027   .     S
Cu231  O259    1.954   .     S
Cu231  O260    1.972   .     S
Cu231  Cu364   2.697   1_455 S
Cu232  O258    1.954   .     S
Cu232  O262    1.977   .     S
Cu232  O261    1.972   .     S
Cu232  N252    2.027   .     S
Cu232  O257    1.956   .     S
Cu232  Cu297   2.697   .     S
H237   O264    0.991   .     S
H238   O254    0.992   .     S
H239   O387    0.991   1_455 S
H240   O322    0.990   .     S
O254   C346    1.374   1_455 S
O255   H305    0.991   .     S
O256   H372    0.990   1_455 S
O258   C265    1.296   .     S
O259   C342    1.296   1_455 S
O260   C339    1.299   1_455 S
O261   C274    1.300   .     S
O264   C281    1.381   .     S
C265   C268    1.442   .     S
C265   O319    1.294   .     A
C266   C268    1.406   .     A
C266   I316    2.128   .     S
C267   C296    1.406   .     A
C267   C276    1.443   .     S
C267   C361    1.399   .     S
C269   C271    1.422   .     A
C269   H314    1.082   .     S
C269   N318    1.369   .     A
C270   H300    1.082   .     S
C270   N317    1.369   .     A
C270   C272    1.422   .     A
C271   H301    1.081   .     S
C271   N317    1.369   .     A
C272   H302    1.082   .     S
C272   N318    1.369   .     A
C273   O328    1.301   .     A
C273   C275    1.465   .     S
C273   O392    1.299   .     S
C274   O329    1.298   .     A
C274   C277    1.462   .     S
C275   C282    1.403   .     A
C275   C280    1.411   .     A
C276   O323    1.294   .     A
C276   O391    1.296   .     S
C277   C281    1.414   .     A
C277   C283    1.399   .     A
C278   C286    1.400   .     A
C278   C280    1.401   .     A
C278   O321    1.375   .     S
C279   O322    1.376   .     S
C279   C281    1.407   .     A
C279   C288    1.405   .     A
C280   O386    1.374   .     S
C282   C284    1.402   .     A
C282   H309    1.082   .     S
C283   H308    1.083   .     S
C283   C285    1.398   .     A
C284   C286    1.408   .     A
C284   C289    1.411   .     A
C285   C290    1.408   .     A
C285   C288    1.406   .     A
C286   C886    1.399   .     S
C287   H310    1.082   .     S
C287   C292    1.389   .     A
C287   C290    1.407   .     A
C288   C887    1.401   1_554 S
C289   C291    1.408   .     A
C289   C884    1.419   .     S
C290   C883    1.419   1_554 S
C291   H311    1.081   .     S
C291   C293    1.392   .     A
C292   H299    1.076   .     S
C292   C880    1.399   1_554 S
C293   H307    1.076   .     S
C293   C882    1.401   .     S
C294   H312    1.084   .     S
C294   C334    1.399   .     S
C295   H313    1.084   .     S
C295   C464    1.386   .     S
C296   I315    2.128   .     S
C296   C492    1.386   .     S
Cu297  O319    1.956   .     S
Cu297  O329    1.977   .     S
Cu297  N317    2.027   .     S
Cu297  O325    1.954   .     S
Cu297  O326    1.972   .     S
Cu298  O324    1.954   .     S
Cu298  O328    1.977   .     S
Cu298  O327    1.972   .     S
Cu298  N318    2.027   .     S
Cu298  O323    1.956   .     S
Cu298  Cu363   2.697   .     S
H303   O330    0.991   .     S
H304   O320    0.992   .     S
H306   O388    0.990   .     S
O321   H371    0.991   .     S
O324   C331    1.296   .     S
O327   C340    1.300   .     S
O330   C347    1.381   .     S
C331   C334    1.442   .     S
C331   O385    1.294   .     A
C332   C334    1.406   .     A
C332   I382    2.128   .     S
C333   C362    1.406   .     A
C333   C342    1.443   .     S
C333   C229    1.399   1_655 S
C335   C337    1.422   .     A
C335   H380    1.082   .     S
C335   N384    1.369   .     A
C336   H366    1.082   .     S
C336   N383    1.369   .     A
C336   C338    1.422   .     A
C337   H367    1.081   .     S
C337   N383    1.369   .     A
C338   H368    1.082   .     S
C338   N384    1.369   .     A
C339   O394    1.301   .     A
C339   C341    1.465   .     S
C339   O260    1.299   1_655 S
C340   O395    1.298   .     A
C340   C343    1.462   .     S
C341   C348    1.403   .     A
C341   C346    1.411   .     A
C342   O389    1.294   .     A
C342   O259    1.296   1_655 S
C343   C347    1.414   .     A
C343   C349    1.399   .     A
C344   C352    1.400   .     A
C344   C346    1.401   .     A
C344   O387    1.375   .     S
C345   O388    1.376   .     S
C345   C347    1.407   .     A
C345   C354    1.405   .     A
C346   O254    1.374   1_655 S
C348   C350    1.402   .     A
C348   H375    1.082   .     S
C349   H374    1.083   .     S
C349   C351    1.398   .     A
C350   C352    1.408   .     A
C350   C355    1.411   .     A
C351   C356    1.408   .     A
C351   C354    1.406   .     A
C352   C952    1.399   .     S
C353   H376    1.082   .     S
C353   C358    1.389   .     A
C353   C356    1.407   .     A
C354   C953    1.401   1_554 S
C355   C357    1.408   .     A
C355   C950    1.419   .     S
C356   C949    1.419   1_554 S
C357   H377    1.081   .     S
C357   C359    1.392   .     A
C358   H365    1.076   .     S
C358   C946    1.399   1_554 S
C359   H373    1.076   .     S
C359   C948    1.401   .     S
C360   H378    1.084   .     S
C360   C202    1.399   1_655 S
C361   H379    1.084   .     S
C361   C530    1.386   .     S
C362   I381    2.128   .     S
C362   C558    1.386   .     S
Cu363  O385    1.956   .     S
Cu363  O395    1.977   .     S
Cu363  N383    2.027   .     S
Cu363  O391    1.954   .     S
Cu363  O392    1.972   .     S
Cu364  O390    1.954   .     S
Cu364  O394    1.977   .     S
Cu364  O393    1.972   .     S
Cu364  N384    2.027   .     S
Cu364  O389    1.956   .     S
Cu364  Cu231   2.697   1_655 S
H369   O396    0.991   .     S
H370   O386    0.992   .     S
H372   O256    0.990   1_655 S
O387   H239    0.991   1_655 S
O390   C199    1.296   1_655 S
O393   C208    1.300   1_655 S
O396   C215    1.381   1_655 S
C397   C400    1.442   .     S
C397   O451    1.294   .     A
C397   O588    1.296   1_455 S
C398   C400    1.406   .     A
C398   I448    2.128   .     S
C399   C428    1.406   .     A
C399   C408    1.443   .     S
C399   C493    1.399   .     S
C400   C558    1.399   1_455 S
C401   C403    1.422   .     A
C401   H446    1.082   .     S
C401   N450    1.369   .     A
C402   H432    1.082   .     S
C402   N449    1.369   .     A
C402   C404    1.422   .     A
C403   H433    1.081   .     S
C403   N449    1.369   .     A
C404   H434    1.082   .     S
C404   N450    1.369   .     A
C405   O460    1.301   .     A
C405   C407    1.465   .     S
C405   O524    1.299   .     S
C406   O461    1.298   .     A
C406   C409    1.462   .     S
C406   O591    1.300   1_455 S
C407   C414    1.403   .     A
C407   C412    1.411   .     A
C408   O455    1.294   .     A
C408   O523    1.296   .     S
C409   C413    1.414   .     A
C409   C415    1.399   .     A
C410   C418    1.400   .     A
C410   C412    1.401   .     A
C410   O453    1.375   .     S
C411   O454    1.376   .     S
C411   C413    1.407   .     A
C411   C420    1.405   .     A
C412   O518    1.374   .     S
C413   O594    1.381   1_455 S
C414   C416    1.402   .     A
C414   H441    1.082   .     S
C415   H440    1.083   .     S
C415   C417    1.398   .     A
C416   C418    1.408   .     A
C416   C421    1.411   .     A
C417   C422    1.408   .     A
C417   C420    1.406   .     A
C418   C1018   1.399   .     S
C419   H442    1.082   .     S
C419   C424    1.389   .     A
C419   C422    1.407   .     A
C420   C1019   1.401   1_554 S
C421   C423    1.408   .     A
C421   C1016   1.419   .     S
C422   C1015   1.419   1_554 S
C423   H443    1.081   .     S
C423   C425    1.392   .     A
C424   H431    1.076   .     S
C424   C1012   1.399   1_554 S
C425   H439    1.076   .     S
C425   C1014   1.401   .     S
C426   H444    1.084   .     S
C426   C466    1.399   .     S
C427   H445    1.084   .     S
C427   C2      1.386   1_565 S
C427   C531    1.399   1_455 S
C428   I447    2.128   .     S
C428   C30     1.386   1_565 S
Cu429  O451    1.956   .     S
Cu429  O461    1.977   .     S
Cu429  N449    2.027   .     S
Cu429  O457    1.954   .     S
Cu429  O458    1.972   .     S
Cu429  Cu562   2.697   1_455 S
Cu430  O456    1.954   .     S
Cu430  O460    1.977   .     S
Cu430  O459    1.972   .     S
Cu430  N450    2.027   .     S
Cu430  O455    1.956   .     S
Cu430  Cu495   2.697   .     S
H435   O462    0.991   .     S
H436   O452    0.992   .     S
H437   O585    0.991   1_455 S
H438   O520    0.990   .     S
O452   C544    1.374   1_455 S
O453   H503    0.991   .     S
O454   H570    0.990   1_455 S
O456   C463    1.296   .     S
O457   C540    1.296   1_455 S
O458   C537    1.299   1_455 S
O459   C472    1.300   .     S
O462   C479    1.381   .     S
C463   C466    1.442   .     S
C463   O517    1.294   .     A
C464   C466    1.406   .     A
C464   I514    2.128   .     S
C465   C494    1.406   .     A
C465   C474    1.443   .     S
C465   C559    1.399   .     S
C467   C469    1.422   .     A
C467   H512    1.082   .     S
C467   N516    1.369   .     A
C468   H498    1.082   .     S
C468   N515    1.369   .     A
C468   C470    1.422   .     A
C469   H499    1.081   .     S
C469   N515    1.369   .     A
C470   H500    1.082   .     S
C470   N516    1.369   .     A
C471   O526    1.301   .     A
C471   C473    1.465   .     S
C471   O590    1.299   .     S
C472   O527    1.298   .     A
C472   C475    1.462   .     S
C473   C480    1.403   .     A
C473   C478    1.411   .     A
C474   O521    1.294   .     A
C474   O589    1.296   .     S
C475   C479    1.414   .     A
C475   C481    1.399   .     A
C476   C484    1.400   .     A
C476   C478    1.401   .     A
C476   O519    1.375   .     S
C477   O520    1.376   .     S
C477   C479    1.407   .     A
C477   C486    1.405   .     A
C478   O584    1.374   .     S
C480   C482    1.402   .     A
C480   H507    1.082   .     S
C481   H506    1.083   .     S
C481   C483    1.398   .     A
C482   C484    1.408   .     A
C482   C487    1.411   .     A
C483   C488    1.408   .     A
C483   C486    1.406   .     A
C484   C1084   1.399   .     S
C485   H508    1.082   .     S
C485   C490    1.389   .     A
C485   C488    1.407   .     A
C486   C1085   1.401   1_554 S
C487   C489    1.408   .     A
C487   C1082   1.419   .     S
C488   C1081   1.419   1_554 S
C489   H509    1.081   .     S
C489   C491    1.392   .     A
C490   H497    1.076   .     S
C490   C1078   1.399   1_554 S
C491   H505    1.076   .     S
C491   C1080   1.401   .     S
C492   H510    1.084   .     S
C492   C532    1.399   .     S
C493   H511    1.084   .     S
C493   C68     1.386   1_565 S
C494   I513    2.128   .     S
C494   C96     1.386   1_565 S
Cu495  O517    1.956   .     S
Cu495  O527    1.977   .     S
Cu495  N515    2.027   .     S
Cu495  O523    1.954   .     S
Cu495  O524    1.972   .     S
Cu496  O522    1.954   .     S
Cu496  O526    1.977   .     S
Cu496  O525    1.972   .     S
Cu496  N516    2.027   .     S
Cu496  O521    1.956   .     S
Cu496  Cu561   2.697   .     S
H501   O528    0.991   .     S
H502   O518    0.992   .     S
H504   O586    0.990   .     S
O519   H569    0.991   .     S
O522   C529    1.296   .     S
O525   C538    1.300   .     S
O528   C545    1.381   .     S
C529   C532    1.442   .     S
C529   O583    1.294   .     A
C530   C532    1.406   .     A
C530   I580    2.128   .     S
C531   C560    1.406   .     A
C531   C540    1.443   .     S
C531   C427    1.399   1_655 S
C533   C535    1.422   .     A
C533   H578    1.082   .     S
C533   N582    1.369   .     A
C534   H564    1.082   .     S
C534   N581    1.369   .     A
C534   C536    1.422   .     A
C535   H565    1.081   .     S
C535   N581    1.369   .     A
C536   H566    1.082   .     S
C536   N582    1.369   .     A
C537   O592    1.301   .     A
C537   C539    1.465   .     S
C537   O458    1.299   1_655 S
C538   O593    1.298   .     A
C538   C541    1.462   .     S
C539   C546    1.403   .     A
C539   C544    1.411   .     A
C540   O587    1.294   .     A
C540   O457    1.296   1_655 S
C541   C545    1.414   .     A
C541   C547    1.399   .     A
C542   C550    1.400   .     A
C542   C544    1.401   .     A
C542   O585    1.375   .     S
C543   O586    1.376   .     S
C543   C545    1.407   .     A
C543   C552    1.405   .     A
C544   O452    1.374   1_655 S
C546   C548    1.402   .     A
C546   H573    1.082   .     S
C547   H572    1.083   .     S
C547   C549    1.398   .     A
C548   C550    1.408   .     A
C548   C553    1.411   .     A
C549   C554    1.408   .     A
C549   C552    1.406   .     A
C550   C1150   1.399   .     S
C551   H574    1.082   .     S
C551   C556    1.389   .     A
C551   C554    1.407   .     A
C552   C1151   1.401   1_554 S
C553   C555    1.408   .     A
C553   C1148   1.419   .     S
C554   C1147   1.419   1_554 S
C555   H575    1.081   .     S
C555   C557    1.392   .     A
C556   H563    1.076   .     S
C556   C1144   1.399   1_554 S
C557   H571    1.076   .     S
C557   C1146   1.401   .     S
C558   H576    1.084   .     S
C558   C400    1.399   1_655 S
C559   H577    1.084   .     S
C559   C134    1.386   1_565 S
C560   I579    2.128   .     S
C560   C162    1.386   1_565 S
Cu561  O583    1.956   .     S
Cu561  O593    1.977   .     S
Cu561  N581    2.027   .     S
Cu561  O589    1.954   .     S
Cu561  O590    1.972   .     S
Cu562  O588    1.954   .     S
Cu562  O592    1.977   .     S
Cu562  O591    1.972   .     S
Cu562  N582    2.027   .     S
Cu562  O587    1.956   .     S
Cu562  Cu429   2.697   1_655 S
H567   O594    0.991   .     S
H568   O584    0.992   .     S
H570   O454    0.990   1_655 S
O585   H437    0.991   1_655 S
O588   C397    1.296   1_655 S
O591   C406    1.300   1_655 S
O594   C413    1.381   1_655 S
C595   C598    1.442   .     S
C595   O649    1.294   .     A
C595   O786    1.296   1_455 S
C596   C598    1.406   .     A
C596   I646    2.128   .     S
C596   C1021   1.386   1_545 S
C597   C626    1.406   .     A
C597   C606    1.443   .     S
C597   C691    1.399   .     S
C598   C756    1.399   1_455 S
C599   C601    1.422   .     A
C599   H644    1.082   .     S
C599   N648    1.369   .     A
C600   H630    1.082   .     S
C600   N647    1.369   .     A
C600   C602    1.422   .     A
C601   H631    1.081   .     S
C601   N647    1.369   .     A
C602   H632    1.082   .     S
C602   N648    1.369   .     A
C603   O658    1.301   .     A
C603   C605    1.465   .     S
C603   O722    1.299   .     S
C604   O659    1.298   .     A
C604   C607    1.462   .     S
C604   O789    1.300   1_455 S
C605   C612    1.403   .     A
C605   C610    1.411   .     A
C606   O653    1.294   .     A
C606   O721    1.296   .     S
C607   C611    1.414   .     A
C607   C613    1.399   .     A
C608   C616    1.400   .     A
C608   C610    1.401   .     A
C608   O651    1.375   .     S
C609   O652    1.376   .     S
C609   C611    1.407   .     A
C609   C618    1.405   .     A
C610   O716    1.374   .     S
C611   O792    1.381   1_455 S
C612   C614    1.402   .     A
C612   H639    1.082   .     S
C613   H638    1.083   .     S
C613   C615    1.398   .     A
C614   C616    1.408   .     A
C614   C619    1.411   .     A
C615   C620    1.408   .     A
C615   C618    1.406   .     A
C616   C28     1.399   1_556 S
C617   H640    1.082   .     S
C617   C622    1.389   .     A
C617   C620    1.407   .     A
C619   C621    1.408   .     A
C619   C26     1.419   1_556 S
C621   H641    1.081   .     S
C621   C623    1.392   .     A
C622   H629    1.076   .     S
C623   H637    1.076   .     S
C623   C24     1.401   1_556 S
C624   H642    1.084   .     S
C624   C664    1.399   .     S
C624   C1022   1.386   1_545 S
C625   H643    1.084   .     S
C625   C794    1.386   .     S
C625   C729    1.399   1_455 S
C626   I645    2.128   .     S
C626   C822    1.386   .     S
Cu627  O649    1.956   .     S
Cu627  O659    1.977   .     S
Cu627  N647    2.027   .     S
Cu627  O655    1.954   .     S
Cu627  O656    1.972   .     S
Cu627  Cu760   2.697   1_455 S
Cu628  O654    1.954   .     S
Cu628  O658    1.977   .     S
Cu628  O657    1.972   .     S
Cu628  N648    2.027   .     S
Cu628  O653    1.956   .     S
Cu628  Cu693   2.697   .     S
H633   O660    0.991   .     S
H634   O650    0.992   .     S
H635   O783    0.991   1_455 S
H636   O718    0.990   .     S
O650   C742    1.374   1_455 S
O651   H701    0.991   .     S
O652   H768    0.990   1_455 S
O654   C661    1.296   .     S
O655   C738    1.296   1_455 S
O656   C735    1.299   1_455 S
O657   C670    1.300   .     S
O660   C677    1.381   .     S
C661   C664    1.442   .     S
C661   O715    1.294   .     A
C662   C664    1.406   .     A
C662   I712    2.128   .     S
C662   C1087   1.386   1_545 S
C663   C692    1.406   .     A
C663   C672    1.443   .     S
C663   C757    1.399   .     S
C665   C667    1.422   .     A
C665   H710    1.082   .     S
C665   N714    1.369   .     A
C666   H696    1.082   .     S
C666   N713    1.369   .     A
C666   C668    1.422   .     A
C667   H697    1.081   .     S
C667   N713    1.369   .     A
C668   H698    1.082   .     S
C668   N714    1.369   .     A
C669   O724    1.301   .     A
C669   C671    1.465   .     S
C669   O788    1.299   .     S
C670   O725    1.298   .     A
C670   C673    1.462   .     S
C671   C678    1.403   .     A
C671   C676    1.411   .     A
C672   O719    1.294   .     A
C672   O787    1.296   .     S
C673   C677    1.414   .     A
C673   C679    1.399   .     A
C674   C682    1.400   .     A
C674   C676    1.401   .     A
C674   O717    1.375   .     S
C675   O718    1.376   .     S
C675   C677    1.407   .     A
C675   C684    1.405   .     A
C676   O782    1.374   .     S
C678   C680    1.402   .     A
C678   H705    1.082   .     S
C679   H704    1.083   .     S
C679   C681    1.398   .     A
C680   C682    1.408   .     A
C680   C685    1.411   .     A
C681   C686    1.408   .     A
C681   C684    1.406   .     A
C682   C94     1.399   1_556 S
C683   H706    1.082   .     S
C683   C688    1.389   .     A
C683   C686    1.407   .     A
C685   C687    1.408   .     A
C685   C92     1.419   1_556 S
C687   H707    1.081   .     S
C687   C689    1.392   .     A
C688   H695    1.076   .     S
C689   H703    1.076   .     S
C689   C90     1.401   1_556 S
C690   H708    1.084   .     S
C690   C730    1.399   .     S
C690   C1088   1.386   1_545 S
C691   H709    1.084   .     S
C691   C860    1.386   .     S
C692   I711    2.128   .     S
C692   C888    1.386   .     S
Cu693  O715    1.956   .     S
Cu693  O725    1.977   .     S
Cu693  N713    2.027   .     S
Cu693  O721    1.954   .     S
Cu693  O722    1.972   .     S
Cu694  O720    1.954   .     S
Cu694  O724    1.977   .     S
Cu694  O723    1.972   .     S
Cu694  N714    2.027   .     S
Cu694  O719    1.956   .     S
Cu694  Cu759   2.697   .     S
H699   O726    0.991   .     S
H700   O716    0.992   .     S
H702   O784    0.990   .     S
O717   H767    0.991   .     S
O720   C727    1.296   .     S
O723   C736    1.300   .     S
O726   C743    1.381   .     S
C727   C730    1.442   .     S
C727   O781    1.294   .     A
C728   C730    1.406   .     A
C728   I778    2.128   .     S
C728   C1153   1.386   1_545 S
C729   C758    1.406   .     A
C729   C738    1.443   .     S
C729   C625    1.399   1_655 S
C731   C733    1.422   .     A
C731   H776    1.082   .     S
C731   N780    1.369   .     A
C732   H762    1.082   .     S
C732   N779    1.369   .     A
C732   C734    1.422   .     A
C733   H763    1.081   .     S
C733   N779    1.369   .     A
C734   H764    1.082   .     S
C734   N780    1.369   .     A
C735   O790    1.301   .     A
C735   C737    1.465   .     S
C735   O656    1.299   1_655 S
C736   O791    1.298   .     A
C736   C739    1.462   .     S
C737   C744    1.403   .     A
C737   C742    1.411   .     A
C738   O785    1.294   .     A
C738   O655    1.296   1_655 S
C739   C743    1.414   .     A
C739   C745    1.399   .     A
C740   C748    1.400   .     A
C740   C742    1.401   .     A
C740   O783    1.375   .     S
C741   O784    1.376   .     S
C741   C743    1.407   .     A
C741   C750    1.405   .     A
C742   O650    1.374   1_655 S
C744   C746    1.402   .     A
C744   H771    1.082   .     S
C745   H770    1.083   .     S
C745   C747    1.398   .     A
C746   C748    1.408   .     A
C746   C751    1.411   .     A
C747   C752    1.408   .     A
C747   C750    1.406   .     A
C748   C160    1.399   1_556 S
C749   H772    1.082   .     S
C749   C754    1.389   .     A
C749   C752    1.407   .     A
C751   C753    1.408   .     A
C751   C158    1.419   1_556 S
C753   H773    1.081   .     S
C753   C755    1.392   .     A
C754   H761    1.076   .     S
C755   H769    1.076   .     S
C755   C156    1.401   1_556 S
C756   H774    1.084   .     S
C756   C598    1.399   1_655 S
C756   C1154   1.386   1_545 S
C757   H775    1.084   .     S
C757   C926    1.386   .     S
C758   I777    2.128   .     S
C758   C954    1.386   .     S
Cu759  O781    1.956   .     S
Cu759  O791    1.977   .     S
Cu759  N779    2.027   .     S
Cu759  O787    1.954   .     S
Cu759  O788    1.972   .     S
Cu760  O786    1.954   .     S
Cu760  O790    1.977   .     S
Cu760  O789    1.972   .     S
Cu760  N780    2.027   .     S
Cu760  O785    1.956   .     S
Cu760  Cu627   2.697   1_655 S
H765   O792    0.991   .     S
H766   O782    0.992   .     S
H768   O652    0.990   1_655 S
O783   H635    0.991   1_655 S
O786   C595    1.296   1_655 S
O789   C604    1.300   1_655 S
O792   C611    1.381   1_655 S
C793   C796    1.442   .     S
C793   O847    1.294   .     A
C793   O984    1.296   1_455 S
C794   C796    1.406   .     A
C794   I844    2.128   .     S
C795   C824    1.406   .     A
C795   C804    1.443   .     S
C795   C889    1.399   .     S
C796   C954    1.399   1_455 S
C797   C799    1.422   .     A
C797   H842    1.082   .     S
C797   N846    1.369   .     A
C798   H828    1.082   .     S
C798   N845    1.369   .     A
C798   C800    1.422   .     A
C799   H829    1.081   .     S
C799   N845    1.369   .     A
C800   H830    1.082   .     S
C800   N846    1.369   .     A
C801   O856    1.301   .     A
C801   C803    1.465   .     S
C801   O920    1.299   .     S
C802   O857    1.298   .     A
C802   C805    1.462   .     S
C802   O987    1.300   1_455 S
C803   C810    1.403   .     A
C803   C808    1.411   .     A
C804   O851    1.294   .     A
C804   O919    1.296   .     S
C805   C809    1.414   .     A
C805   C811    1.399   .     A
C806   C814    1.400   .     A
C806   C808    1.401   .     A
C806   O849    1.375   .     S
C807   O850    1.376   .     S
C807   C809    1.407   .     A
C807   C816    1.405   .     A
C808   O914    1.374   .     S
C809   O990    1.381   1_455 S
C810   C812    1.402   .     A
C810   H837    1.082   .     S
C811   H836    1.083   .     S
C811   C813    1.398   .     A
C812   C814    1.408   .     A
C812   C817    1.411   .     A
C813   C818    1.408   .     A
C813   C816    1.406   .     A
C814   C226    1.399   1_556 S
C815   H838    1.082   .     S
C815   C820    1.389   .     A
C815   C818    1.407   .     A
C817   C819    1.408   .     A
C817   C224    1.419   1_556 S
C819   H839    1.081   .     S
C819   C821    1.392   .     A
C820   H827    1.076   .     S
C821   H835    1.076   .     S
C821   C222    1.401   1_556 S
C822   H840    1.084   .     S
C822   C862    1.399   .     S
C823   H841    1.084   .     S
C823   C992    1.386   .     S
C823   C927    1.399   1_455 S
C824   I843    2.128   .     S
C824   C1020   1.386   .     S
Cu825  O847    1.956   .     S
Cu825  O857    1.977   .     S
Cu825  N845    2.027   .     S
Cu825  O853    1.954   .     S
Cu825  O854    1.972   .     S
Cu825  Cu958   2.697   1_455 S
Cu826  O852    1.954   .     S
Cu826  O856    1.977   .     S
Cu826  O855    1.972   .     S
Cu826  N846    2.027   .     S
Cu826  O851    1.956   .     S
Cu826  Cu891   2.697   .     S
H831   O858    0.991   .     S
H832   O848    0.992   .     S
H833   O981    0.991   1_455 S
H834   O916    0.990   .     S
O848   C940    1.374   1_455 S
O849   H899    0.991   .     S
O850   H966    0.990   1_455 S
O852   C859    1.296   .     S
O853   C936    1.296   1_455 S
O854   C933    1.299   1_455 S
O855   C868    1.300   .     S
O858   C875    1.381   .     S
C859   C862    1.442   .     S
C859   O913    1.294   .     A
C860   C862    1.406   .     A
C860   I910    2.128   .     S
C861   C890    1.406   .     A
C861   C870    1.443   .     S
C861   C955    1.399   .     S
C863   C865    1.422   .     A
C863   H908    1.082   .     S
C863   N912    1.369   .     A
C864   H894    1.082   .     S
C864   N911    1.369   .     A
C864   C866    1.422   .     A
C865   H895    1.081   .     S
C865   N911    1.369   .     A
C866   H896    1.082   .     S
C866   N912    1.369   .     A
C867   O922    1.301   .     A
C867   C869    1.465   .     S
C867   O986    1.299   .     S
C868   O923    1.298   .     A
C868   C871    1.462   .     S
C869   C876    1.403   .     A
C869   C874    1.411   .     A
C870   O917    1.294   .     A
C870   O985    1.296   .     S
C871   C875    1.414   .     A
C871   C877    1.399   .     A
C872   C880    1.400   .     A
C872   C874    1.401   .     A
C872   O915    1.375   .     S
C873   O916    1.376   .     S
C873   C875    1.407   .     A
C873   C882    1.405   .     A
C874   O980    1.374   .     S
C876   C878    1.402   .     A
C876   H903    1.082   .     S
C877   H902    1.083   .     S
C877   C879    1.398   .     A
C878   C880    1.408   .     A
C878   C883    1.411   .     A
C879   C884    1.408   .     A
C879   C882    1.406   .     A
C880   C292    1.399   1_556 S
C881   H904    1.082   .     S
C881   C886    1.389   .     A
C881   C884    1.407   .     A
C883   C885    1.408   .     A
C883   C290    1.419   1_556 S
C885   H905    1.081   .     S
C885   C887    1.392   .     A
C886   H893    1.076   .     S
C887   H901    1.076   .     S
C887   C288    1.401   1_556 S
C888   H906    1.084   .     S
C888   C928    1.399   .     S
C889   H907    1.084   .     S
C889   C1058   1.386   .     S
C890   I909    2.128   .     S
C890   C1086   1.386   .     S
Cu891  O913    1.956   .     S
Cu891  O923    1.977   .     S
Cu891  N911    2.027   .     S
Cu891  O919    1.954   .     S
Cu891  O920    1.972   .     S
Cu892  O918    1.954   .     S
Cu892  O922    1.977   .     S
Cu892  O921    1.972   .     S
Cu892  N912    2.027   .     S
Cu892  O917    1.956   .     S
Cu892  Cu957   2.697   .     S
H897   O924    0.991   .     S
H898   O914    0.992   .     S
H900   O982    0.990   .     S
O915   H965    0.991   .     S
O918   C925    1.296   .     S
O921   C934    1.300   .     S
O924   C941    1.381   .     S
C925   C928    1.442   .     S
C925   O979    1.294   .     A
C926   C928    1.406   .     A
C926   I976    2.128   .     S
C927   C956    1.406   .     A
C927   C936    1.443   .     S
C927   C823    1.399   1_655 S
C929   C931    1.422   .     A
C929   H974    1.082   .     S
C929   N978    1.369   .     A
C930   H960    1.082   .     S
C930   N977    1.369   .     A
C930   C932    1.422   .     A
C931   H961    1.081   .     S
C931   N977    1.369   .     A
C932   H962    1.082   .     S
C932   N978    1.369   .     A
C933   O988    1.301   .     A
C933   C935    1.465   .     S
C933   O854    1.299   1_655 S
C934   O989    1.298   .     A
C934   C937    1.462   .     S
C935   C942    1.403   .     A
C935   C940    1.411   .     A
C936   O983    1.294   .     A
C936   O853    1.296   1_655 S
C937   C941    1.414   .     A
C937   C943    1.399   .     A
C938   C946    1.400   .     A
C938   C940    1.401   .     A
C938   O981    1.375   .     S
C939   O982    1.376   .     S
C939   C941    1.407   .     A
C939   C948    1.405   .     A
C940   O848    1.374   1_655 S
C942   C944    1.402   .     A
C942   H969    1.082   .     S
C943   H968    1.083   .     S
C943   C945    1.398   .     A
C944   C946    1.408   .     A
C944   C949    1.411   .     A
C945   C950    1.408   .     A
C945   C948    1.406   .     A
C946   C358    1.399   1_556 S
C947   H970    1.082   .     S
C947   C952    1.389   .     A
C947   C950    1.407   .     A
C949   C951    1.408   .     A
C949   C356    1.419   1_556 S
C951   H971    1.081   .     S
C951   C953    1.392   .     A
C952   H959    1.076   .     S
C953   H967    1.076   .     S
C953   C354    1.401   1_556 S
C954   H972    1.084   .     S
C954   C796    1.399   1_655 S
C955   H973    1.084   .     S
C955   C1124   1.386   .     S
C956   I975    2.128   .     S
C956   C1152   1.386   .     S
Cu957  O979    1.956   .     S
Cu957  O989    1.977   .     S
Cu957  N977    2.027   .     S
Cu957  O985    1.954   .     S
Cu957  O986    1.972   .     S
Cu958  O984    1.954   .     S
Cu958  O988    1.977   .     S
Cu958  O987    1.972   .     S
Cu958  N978    2.027   .     S
Cu958  O983    1.956   .     S
Cu958  Cu825   2.697   1_655 S
H963   O990    0.991   .     S
H964   O980    0.992   .     S
H966   O850    0.990   1_655 S
O981   H833    0.991   1_655 S
O984   C793    1.296   1_655 S
O987   C802    1.300   1_655 S
O990   C809    1.381   1_655 S
C991   C994    1.442   .     S
C991   O1045   1.294   .     A
C991   O1182   1.296   1_455 S
C992   C994    1.406   .     A
C992   I1042   2.128   .     S
C993   C1022   1.406   .     A
C993   C1002   1.443   .     S
C993   C1087   1.399   .     S
C994   C1152   1.399   1_455 S
C995   C997    1.422   .     A
C995   H1040   1.082   .     S
C995   N1044   1.369   .     A
C996   H1026   1.082   .     S
C996   N1043   1.369   .     A
C996   C998    1.422   .     A
C997   H1027   1.081   .     S
C997   N1043   1.369   .     A
C998   H1028   1.082   .     S
C998   N1044   1.369   .     A
C999   O1054   1.301   .     A
C999   C1001   1.465   .     S
C999   O1118   1.299   .     S
C1000  O1055   1.298   .     A
C1000  C1003   1.462   .     S
C1000  O1185   1.300   1_455 S
C1001  C1008   1.403   .     A
C1001  C1006   1.411   .     A
C1002  O1049   1.294   .     A
C1002  O1117   1.296   .     S
C1003  C1007   1.414   .     A
C1003  C1009   1.399   .     A
C1004  C1012   1.400   .     A
C1004  C1006   1.401   .     A
C1004  O1047   1.375   .     S
C1005  O1048   1.376   .     S
C1005  C1007   1.407   .     A
C1005  C1014   1.405   .     A
C1006  O1112   1.374   .     S
C1007  O1188   1.381   1_455 S
C1008  C1010   1.402   .     A
C1008  H1035   1.082   .     S
C1009  H1034   1.083   .     S
C1009  C1011   1.398   .     A
C1010  C1012   1.408   .     A
C1010  C1015   1.411   .     A
C1011  C1016   1.408   .     A
C1011  C1014   1.406   .     A
C1012  C424    1.399   1_556 S
C1013  H1036   1.082   .     S
C1013  C1018   1.389   .     A
C1013  C1016   1.407   .     A
C1015  C1017   1.408   .     A
C1015  C422    1.419   1_556 S
C1017  H1037   1.081   .     S
C1017  C1019   1.392   .     A
C1018  H1025   1.076   .     S
C1019  H1033   1.076   .     S
C1019  C420    1.401   1_556 S
C1020  H1038   1.084   .     S
C1020  C1060   1.399   .     S
C1021  H1039   1.084   .     S
C1021  C596    1.386   1_565 S
C1021  C1125   1.399   1_455 S
C1022  I1041   2.128   .     S
C1022  C624    1.386   1_565 S
Cu1023 O1045   1.956   .     S
Cu1023 O1055   1.977   .     S
Cu1023 N1043   2.027   .     S
Cu1023 O1051   1.954   .     S
Cu1023 O1052   1.972   .     S
Cu1023 Cu1156  2.697   1_455 S
Cu1024 O1050   1.954   .     S
Cu1024 O1054   1.977   .     S
Cu1024 O1053   1.972   .     S
Cu1024 N1044   2.027   .     S
Cu1024 O1049   1.956   .     S
Cu1024 Cu1089  2.697   .     S
H1029  O1056   0.991   .     S
H1030  O1046   0.992   .     S
H1031  O1179   0.991   1_455 S
H1032  O1114   0.990   .     S
O1046  C1138   1.374   1_455 S
O1047  H1097   0.991   .     S
O1048  H1164   0.990   1_455 S
O1050  C1057   1.296   .     S
O1051  C1134   1.296   1_455 S
O1052  C1131   1.299   1_455 S
O1053  C1066   1.300   .     S
O1056  C1073   1.381   .     S
C1057  C1060   1.442   .     S
C1057  O1111   1.294   .     A
C1058  C1060   1.406   .     A
C1058  I1108   2.128   .     S
C1059  C1088   1.406   .     A
C1059  C1068   1.443   .     S
C1059  C1153   1.399   .     S
C1061  C1063   1.422   .     A
C1061  H1106   1.082   .     S
C1061  N1110   1.369   .     A
C1062  H1092   1.082   .     S
C1062  N1109   1.369   .     A
C1062  C1064   1.422   .     A
C1063  H1093   1.081   .     S
C1063  N1109   1.369   .     A
C1064  H1094   1.082   .     S
C1064  N1110   1.369   .     A
C1065  O1120   1.301   .     A
C1065  C1067   1.465   .     S
C1065  O1184   1.299   .     S
C1066  O1121   1.298   .     A
C1066  C1069   1.462   .     S
C1067  C1074   1.403   .     A
C1067  C1072   1.411   .     A
C1068  O1115   1.294   .     A
C1068  O1183   1.296   .     S
C1069  C1073   1.414   .     A
C1069  C1075   1.399   .     A
C1070  C1078   1.400   .     A
C1070  C1072   1.401   .     A
C1070  O1113   1.375   .     S
C1071  O1114   1.376   .     S
C1071  C1073   1.407   .     A
C1071  C1080   1.405   .     A
C1072  O1178   1.374   .     S
C1074  C1076   1.402   .     A
C1074  H1101   1.082   .     S
C1075  H1100   1.083   .     S
C1075  C1077   1.398   .     A
C1076  C1078   1.408   .     A
C1076  C1081   1.411   .     A
C1077  C1082   1.408   .     A
C1077  C1080   1.406   .     A
C1078  C490    1.399   1_556 S
C1079  H1102   1.082   .     S
C1079  C1084   1.389   .     A
C1079  C1082   1.407   .     A
C1081  C1083   1.408   .     A
C1081  C488    1.419   1_556 S
C1083  H1103   1.081   .     S
C1083  C1085   1.392   .     A
C1084  H1091   1.076   .     S
C1085  H1099   1.076   .     S
C1085  C486    1.401   1_556 S
C1086  H1104   1.084   .     S
C1086  C1126   1.399   .     S
C1087  H1105   1.084   .     S
C1087  C662    1.386   1_565 S
C1088  I1107   2.128   .     S
C1088  C690    1.386   1_565 S
Cu1089 O1111   1.956   .     S
Cu1089 O1121   1.977   .     S
Cu1089 N1109   2.027   .     S
Cu1089 O1117   1.954   .     S
Cu1089 O1118   1.972   .     S
Cu1090 O1116   1.954   .     S
Cu1090 O1120   1.977   .     S
Cu1090 O1119   1.972   .     S
Cu1090 N1110   2.027   .     S
Cu1090 O1115   1.956   .     S
Cu1090 Cu1155  2.697   .     S
H1095  O1122   0.991   .     S
H1096  O1112   0.992   .     S
H1098  O1180   0.990   .     S
O1113  H1163   0.991   .     S
O1116  C1123   1.296   .     S
O1119  C1132   1.300   .     S
O1122  C1139   1.381   .     S
C1123  C1126   1.442   .     S
C1123  O1177   1.294   .     A
C1124  C1126   1.406   .     A
C1124  I1174   2.128   .     S
C1125  C1154   1.406   .     A
C1125  C1134   1.443   .     S
C1125  C1021   1.399   1_655 S
C1127  C1129   1.422   .     A
C1127  H1172   1.082   .     S
C1127  N1176   1.369   .     A
C1128  H1158   1.082   .     S
C1128  N1175   1.369   .     A
C1128  C1130   1.422   .     A
C1129  H1159   1.081   .     S
C1129  N1175   1.369   .     A
C1130  H1160   1.082   .     S
C1130  N1176   1.369   .     A
C1131  O1186   1.301   .     A
C1131  C1133   1.465   .     S
C1131  O1052   1.299   1_655 S
C1132  O1187   1.298   .     A
C1132  C1135   1.462   .     S
C1133  C1140   1.403   .     A
C1133  C1138   1.411   .     A
C1134  O1181   1.294   .     A
C1134  O1051   1.296   1_655 S
C1135  C1139   1.414   .     A
C1135  C1141   1.399   .     A
C1136  C1144   1.400   .     A
C1136  C1138   1.401   .     A
C1136  O1179   1.375   .     S
C1137  O1180   1.376   .     S
C1137  C1139   1.407   .     A
C1137  C1146   1.405   .     A
C1138  O1046   1.374   1_655 S
C1140  C1142   1.402   .     A
C1140  H1167   1.082   .     S
C1141  H1166   1.083   .     S
C1141  C1143   1.398   .     A
C1142  C1144   1.408   .     A
C1142  C1147   1.411   .     A
C1143  C1148   1.408   .     A
C1143  C1146   1.406   .     A
C1144  C556    1.399   1_556 S
C1145  H1168   1.082   .     S
C1145  C1150   1.389   .     A
C1145  C1148   1.407   .     A
C1147  C1149   1.408   .     A
C1147  C554    1.419   1_556 S
C1149  H1169   1.081   .     S
C1149  C1151   1.392   .     A
C1150  H1157   1.076   .     S
C1151  H1165   1.076   .     S
C1151  C552    1.401   1_556 S
C1152  H1170   1.084   .     S
C1152  C994    1.399   1_655 S
C1153  H1171   1.084   .     S
C1153  C728    1.386   1_565 S
C1154  I1173   2.128   .     S
C1154  C756    1.386   1_565 S
Cu1155 O1177   1.956   .     S
Cu1155 O1187   1.977   .     S
Cu1155 N1175   2.027   .     S
Cu1155 O1183   1.954   .     S
Cu1155 O1184   1.972   .     S
Cu1156 O1182   1.954   .     S
Cu1156 O1186   1.977   .     S
Cu1156 O1185   1.972   .     S
Cu1156 N1176   2.027   .     S
Cu1156 O1181   1.956   .     S
Cu1156 Cu1023  2.697   1_655 S
H1161  O1188   0.991   .     S
H1162  O1178   0.992   .     S
H1164  O1048   0.990   1_655 S
O1179  H1031   0.991   1_655 S
O1182  C991    1.296   1_655 S
O1185  C1000   1.300   1_655 S
O1188  C1007   1.381   1_655 S
