data_str_m1_o10_o18_pcu_sym.176
_audit_creation_date              2020-01-03
_audit_creation_method            'Materials Studio'
_symmetry_space_group_name_H-M    'P1'
_symmetry_Int_Tables_number       1
_symmetry_cell_setting            triclinic
loop_
_symmetry_equiv_pos_as_xyz
  x,y,z
_cell_length_a                    32.4802
_cell_length_b                    32.7598
_cell_length_c                    35.4634
_cell_angle_alpha                 98.5526
_cell_angle_beta                  72.8332
_cell_angle_gamma                 98.5072
loop_
_atom_site_label
_atom_site_type_symbol
_atom_site_fract_x
_atom_site_fract_y
_atom_site_fract_z
_atom_site_U_iso_or_equiv
_atom_site_adp_type
_atom_site_occupancy
C1     C     0.05243   0.15993   0.25883   0.00000  Uiso   1.00
C2     C     0.20125   0.13045   0.45702   0.00000  Uiso   1.00
C3     C     0.22711   0.11326   0.47466   0.00000  Uiso   1.00
C4     C     0.28107   0.17356   0.24118   0.00000  Uiso   1.00
C5     C     0.21685   0.11677   0.01721   0.00000  Uiso   1.00
C6     C     0.18130   0.13941   0.03969   0.00000  Uiso   1.00
C7     C     0.23956   0.09874   0.03874   0.00000  Uiso   1.00
C8     C     0.23168   0.10908   0.08038   0.00000  Uiso   1.00
C9     C     0.17407   0.14856   0.08090   0.00000  Uiso   1.00
C10    C     0.32711   0.17617   0.23755   0.00000  Uiso   1.00
C11    C     0.00702   0.15771   0.26231   0.00000  Uiso   1.00
C12    C     0.08979   0.20126   0.42247   0.00000  Uiso   1.00
C13    C     0.18004   0.32238   0.23986   0.00000  Uiso   1.00
C14    C     0.14921   0.01291   0.26326   0.00000  Uiso   1.00
C15    C     0.15592   0.05639   0.25879   0.00000  Uiso   1.00
C16    C     0.17656   0.27775   0.24164   0.00000  Uiso   1.00
C17    C     0.18812   0.14536   0.14387   0.00000  Uiso   1.00
C18    C     0.14503   0.18764   0.35643   0.00000  Uiso   1.00
C19    C     0.13233   0.19315   0.40042   0.00000  Uiso   1.00
C20    C     0.19893   0.13448   0.10084   0.00000  Uiso   1.00
C21    C     0.07629   0.19903   0.46321   0.00000  Uiso   1.00
C22    C     0.10689   0.32981   0.29235   0.00000  Uiso   1.00
C23    C     0.16176   0.18587   0.42064   0.00000  Uiso   1.00
C24    C     0.07515   0.02889   0.31296   0.00000  Uiso   1.00
C25    C     0.03422   0.00902   0.34098   0.00000  Uiso   1.00
C26    C     0.25865   0.09358   0.10292   0.00000  Uiso   1.00
C27    C     0.30294   0.11966   0.09701   0.00000  Uiso   1.00
C28    C     0.32962   0.10579   0.12078   0.00000  Uiso   1.00
C29    C     0.26675   0.09536   0.44567   0.00000  Uiso   1.00
C30    C     0.30902   0.12229   0.44829   0.00000  Uiso   1.00
C31    C     0.01519   0.10233   0.42122   0.00000  Uiso   1.00
C32    C     0.21011   0.19977   0.40292   0.00000  Uiso   1.00
C33    C     0.22924   0.23104   0.43189   0.00000  Uiso   1.00
C34    C     0.14470   0.17441   0.46008   0.00000  Uiso   1.00
C35    C     0.27539   0.24873   0.41160   0.00000  Uiso   1.00
C36    C     0.10276   0.18476   0.48194   0.00000  Uiso   1.00
C37    C     0.16771   0.15390   0.47896   0.00000  Uiso   1.00
C38    C     0.15438   0.15401   0.02059   0.00000  Uiso   1.00
C39    C     0.11325   0.16676   0.04174   0.00000  Uiso   1.00
C40    C     0.08740   0.18056   0.02239   0.00000  Uiso   1.00
Cl41   Cl    0.27352   0.05885   0.01689   0.00000  Uiso   1.00
Cl42   Cl    0.22675   0.01098   0.20546   0.00000  Uiso   1.00
Cl43   Cl    0.05138   0.21357   0.40090   0.00000  Uiso   1.00
H44    H     0.05533   0.18838   0.03934   0.00000  Uiso   1.00
H45    H     0.01095   0.03237   0.35403   0.00000  Uiso   1.00
H46    H     0.09083   0.05419   0.33038   0.00000  Uiso   1.00
H47    H     0.06555   0.04250   0.29033   0.00000  Uiso   1.00
H48    H     0.08945   0.30516   0.27581   0.00000  Uiso   1.00
H49    H     0.11500   0.31658   0.31606   0.00000  Uiso   1.00
H50    H     0.31249   0.10950   0.15302   0.00000  Uiso   1.00
H51    H     0.00203   0.07277   0.11115   0.00000  Uiso   1.00
H52    H     0.02810   0.12514   0.11581   0.00000  Uiso   1.00
H53    H     0.32136   0.11684   0.06506   0.00000  Uiso   1.00
H54    H     0.29820   0.15290   0.10688   0.00000  Uiso   1.00
H55    H     0.01697   0.19309   0.21466   0.00000  Uiso   1.00
H56    H     0.24204   0.09489   0.13521   0.00000  Uiso   1.00
H57    H     0.26275   0.06022   0.09349   0.00000  Uiso   1.00
H58    H     0.01439   0.07014   0.42799   0.00000  Uiso   1.00
H59    H     0.01598   0.10183   0.38964   0.00000  Uiso   1.00
H60    H     0.04529   0.12041   0.42584   0.00000  Uiso   1.00
H61    H     0.30909   0.15333   0.43916   0.00000  Uiso   1.00
H62    H     0.31177   0.12731   0.47911   0.00000  Uiso   1.00
H63    H     0.26679   0.06231   0.44880   0.00000  Uiso   1.00
H64    H     0.26561   0.09421   0.41447   0.00000  Uiso   1.00
H65    H     0.29620   0.22319   0.39927   0.00000  Uiso   1.00
H66    H     0.31783   0.14075   0.28550   0.00000  Uiso   1.00
H67    H     0.27556   0.26650   0.38719   0.00000  Uiso   1.00
H68    H     0.28899   0.26994   0.43350   0.00000  Uiso   1.00
H69    H     0.20877   0.25703   0.44324   0.00000  Uiso   1.00
H70    H     0.23018   0.21593   0.45757   0.00000  Uiso   1.00
H71    H     0.22972   0.17342   0.39167   0.00000  Uiso   1.00
H72    H     0.21458   0.21604   0.37641   0.00000  Uiso   1.00
H73    H     0.15027   0.16881   0.09832   0.00000  Uiso   1.00
H74    H     0.04391   0.20621   0.47992   0.00000  Uiso   1.00
H75    H     0.09891   0.16370   0.07291   0.00000  Uiso   1.00
H76    H     0.20617   0.12354   0.42546   0.00000  Uiso   1.00
H77    H     0.01833   0.31625   0.32458   0.00000  Uiso   1.00
H78    H     0.04234   0.33055   0.36541   0.00000  Uiso   1.00
O79    O     0.16667   0.16667   0.25000   0.00000  Uiso   1.00
O80    O     0.15693   0.12393   0.16625   0.00000  Uiso   1.00
O81    O     0.12687   0.20646   0.33749   0.00000  Uiso   1.00
O82    O     0.21088   0.17493   0.15877   0.00000  Uiso   1.00
O83    O     0.17198   0.16135   0.33749   0.00000  Uiso   1.00
O84    O     0.17849   0.08101   0.27821   0.00000  Uiso   1.00
O85    O     0.14581   0.26136   0.26767   0.00000  Uiso   1.00
O86    O     0.07452   0.13251   0.23607   0.00000  Uiso   1.00
O87    O     0.26785   0.19179   0.21806   0.00000  Uiso   1.00
O88    O     0.06990   0.18960   0.27820   0.00000  Uiso   1.00
O89    O     0.25440   0.15277   0.26768   0.00000  Uiso   1.00
O90    O     0.13800   0.06903   0.23607   0.00000  Uiso   1.00
O91    O     0.20437   0.25527   0.21806   0.00000  Uiso   1.00
Zn92   Zn    0.19244   0.14090   0.28278   0.00000  Uiso   1.00
Zn93   Zn    0.13459   0.12378   0.22258   0.00000  Uiso   1.00
Zn94   Zn    0.21166   0.19664   0.21188   0.00000  Uiso   1.00
Zn95   Zn    0.12798   0.20535   0.28277   0.00000  Uiso   1.00
C96    C     0.38577   0.15993   0.25883   0.00000  Uiso   1.00
C97    C     0.53459   0.13045   0.45702   0.00000  Uiso   1.00
C98    C     0.56044   0.11326   0.47466   0.00000  Uiso   1.00
C99    C     0.61440   0.17356   0.24118   0.00000  Uiso   1.00
C100   C     0.55018   0.11677   0.01721   0.00000  Uiso   1.00
C101   C     0.51463   0.13941   0.03969   0.00000  Uiso   1.00
C102   C     0.57289   0.09874   0.03874   0.00000  Uiso   1.00
C103   C     0.56501   0.10908   0.08038   0.00000  Uiso   1.00
C104   C     0.50740   0.14856   0.08090   0.00000  Uiso   1.00
C105   C     0.66044   0.17617   0.23755   0.00000  Uiso   1.00
C106   C     0.34036   0.15771   0.26231   0.00000  Uiso   1.00
C107   C     0.42312   0.20126   0.42247   0.00000  Uiso   1.00
C108   C     0.51337   0.32238   0.23986   0.00000  Uiso   1.00
C109   C     0.48254   0.01291   0.26326   0.00000  Uiso   1.00
C110   C     0.48925   0.05639   0.25879   0.00000  Uiso   1.00
C111   C     0.50990   0.27775   0.24164   0.00000  Uiso   1.00
C112   C     0.52145   0.14536   0.14387   0.00000  Uiso   1.00
C113   C     0.47837   0.18764   0.35643   0.00000  Uiso   1.00
C114   C     0.46566   0.19315   0.40042   0.00000  Uiso   1.00
C115   C     0.53226   0.13448   0.10084   0.00000  Uiso   1.00
C116   C     0.40962   0.19903   0.46321   0.00000  Uiso   1.00
C117   C     0.44022   0.32981   0.29235   0.00000  Uiso   1.00
C118   C     0.49510   0.18587   0.42064   0.00000  Uiso   1.00
C119   C     0.40848   0.02889   0.31296   0.00000  Uiso   1.00
C120   C     0.36756   0.00902   0.34098   0.00000  Uiso   1.00
C121   C     0.59199   0.09358   0.10292   0.00000  Uiso   1.00
C122   C     0.63628   0.11966   0.09701   0.00000  Uiso   1.00
C123   C     0.66295   0.10579   0.12078   0.00000  Uiso   1.00
C124   C     0.60008   0.09536   0.44567   0.00000  Uiso   1.00
C125   C     0.64235   0.12229   0.44829   0.00000  Uiso   1.00
C126   C     0.34853   0.10233   0.42122   0.00000  Uiso   1.00
C127   C     0.54344   0.19977   0.40292   0.00000  Uiso   1.00
C128   C     0.56258   0.23104   0.43189   0.00000  Uiso   1.00
C129   C     0.47804   0.17441   0.46008   0.00000  Uiso   1.00
C130   C     0.60872   0.24873   0.41160   0.00000  Uiso   1.00
C131   C     0.43610   0.18476   0.48194   0.00000  Uiso   1.00
C132   C     0.50104   0.15390   0.47896   0.00000  Uiso   1.00
C133   C     0.48771   0.15401   0.02059   0.00000  Uiso   1.00
C134   C     0.44658   0.16676   0.04174   0.00000  Uiso   1.00
C135   C     0.42074   0.18056   0.02239   0.00000  Uiso   1.00
Cl136  Cl    0.60685   0.05885   0.01689   0.00000  Uiso   1.00
Cl137  Cl    0.56009   0.01098   0.20546   0.00000  Uiso   1.00
Cl138  Cl    0.38471   0.21357   0.40090   0.00000  Uiso   1.00
H139   H     0.38866   0.18838   0.03934   0.00000  Uiso   1.00
H140   H     0.34428   0.03237   0.35403   0.00000  Uiso   1.00
H141   H     0.42417   0.05419   0.33038   0.00000  Uiso   1.00
H142   H     0.39888   0.04250   0.29033   0.00000  Uiso   1.00
H143   H     0.42278   0.30516   0.27581   0.00000  Uiso   1.00
H144   H     0.44833   0.31658   0.31606   0.00000  Uiso   1.00
H145   H     0.64582   0.10950   0.15302   0.00000  Uiso   1.00
H146   H     0.33536   0.07277   0.11115   0.00000  Uiso   1.00
H147   H     0.36143   0.12514   0.11581   0.00000  Uiso   1.00
H148   H     0.65469   0.11684   0.06506   0.00000  Uiso   1.00
H149   H     0.63153   0.15290   0.10688   0.00000  Uiso   1.00
H150   H     0.35030   0.19309   0.21466   0.00000  Uiso   1.00
H151   H     0.57538   0.09489   0.13521   0.00000  Uiso   1.00
H152   H     0.59609   0.06022   0.09349   0.00000  Uiso   1.00
H153   H     0.34773   0.07014   0.42799   0.00000  Uiso   1.00
H154   H     0.34931   0.10183   0.38964   0.00000  Uiso   1.00
H155   H     0.37862   0.12041   0.42584   0.00000  Uiso   1.00
H156   H     0.64242   0.15333   0.43916   0.00000  Uiso   1.00
H157   H     0.64510   0.12731   0.47911   0.00000  Uiso   1.00
H158   H     0.60013   0.06231   0.44880   0.00000  Uiso   1.00
H159   H     0.59895   0.09421   0.41447   0.00000  Uiso   1.00
H160   H     0.62954   0.22319   0.39927   0.00000  Uiso   1.00
H161   H     0.65117   0.14075   0.28550   0.00000  Uiso   1.00
H162   H     0.60890   0.26650   0.38719   0.00000  Uiso   1.00
H163   H     0.62232   0.26994   0.43350   0.00000  Uiso   1.00
H164   H     0.54211   0.25703   0.44324   0.00000  Uiso   1.00
H165   H     0.56351   0.21593   0.45757   0.00000  Uiso   1.00
H166   H     0.56305   0.17342   0.39167   0.00000  Uiso   1.00
H167   H     0.54792   0.21604   0.37641   0.00000  Uiso   1.00
H168   H     0.48360   0.16881   0.09832   0.00000  Uiso   1.00
H169   H     0.37724   0.20621   0.47992   0.00000  Uiso   1.00
H170   H     0.43224   0.16370   0.07291   0.00000  Uiso   1.00
H171   H     0.53950   0.12354   0.42546   0.00000  Uiso   1.00
H172   H     0.35166   0.31625   0.32458   0.00000  Uiso   1.00
H173   H     0.37567   0.33055   0.36541   0.00000  Uiso   1.00
O174   O     0.50000   0.16667   0.25000   0.00000  Uiso   1.00
O175   O     0.49027   0.12393   0.16625   0.00000  Uiso   1.00
O176   O     0.46020   0.20646   0.33749   0.00000  Uiso   1.00
O177   O     0.54421   0.17493   0.15877   0.00000  Uiso   1.00
O178   O     0.50532   0.16135   0.33749   0.00000  Uiso   1.00
O179   O     0.51182   0.08101   0.27821   0.00000  Uiso   1.00
O180   O     0.47914   0.26136   0.26767   0.00000  Uiso   1.00
O181   O     0.40785   0.13251   0.23607   0.00000  Uiso   1.00
O182   O     0.60119   0.19179   0.21806   0.00000  Uiso   1.00
O183   O     0.40323   0.18960   0.27820   0.00000  Uiso   1.00
O184   O     0.58773   0.15277   0.26768   0.00000  Uiso   1.00
O185   O     0.47133   0.06903   0.23607   0.00000  Uiso   1.00
O186   O     0.53771   0.25527   0.21806   0.00000  Uiso   1.00
Zn187  Zn    0.52577   0.14090   0.28278   0.00000  Uiso   1.00
Zn188  Zn    0.46792   0.12378   0.22258   0.00000  Uiso   1.00
Zn189  Zn    0.54500   0.19664   0.21188   0.00000  Uiso   1.00
Zn190  Zn    0.46131   0.20535   0.28277   0.00000  Uiso   1.00
C191   C     0.71910   0.15993   0.25883   0.00000  Uiso   1.00
C192   C     0.86792   0.13045   0.45702   0.00000  Uiso   1.00
C193   C     0.89378   0.11326   0.47466   0.00000  Uiso   1.00
C194   C     0.94774   0.17356   0.24118   0.00000  Uiso   1.00
C195   C     0.88351   0.11677   0.01721   0.00000  Uiso   1.00
C196   C     0.84797   0.13941   0.03969   0.00000  Uiso   1.00
C197   C     0.90622   0.09874   0.03874   0.00000  Uiso   1.00
C198   C     0.89835   0.10908   0.08038   0.00000  Uiso   1.00
C199   C     0.84074   0.14856   0.08090   0.00000  Uiso   1.00
C200   C     0.99378   0.17617   0.23755   0.00000  Uiso   1.00
C201   C     0.67369   0.15771   0.26231   0.00000  Uiso   1.00
C202   C     0.75646   0.20126   0.42247   0.00000  Uiso   1.00
C203   C     0.84671   0.32238   0.23986   0.00000  Uiso   1.00
C204   C     0.81587   0.01291   0.26326   0.00000  Uiso   1.00
C205   C     0.82259   0.05639   0.25879   0.00000  Uiso   1.00
C206   C     0.84323   0.27775   0.24164   0.00000  Uiso   1.00
C207   C     0.85479   0.14536   0.14387   0.00000  Uiso   1.00
C208   C     0.81170   0.18764   0.35643   0.00000  Uiso   1.00
C209   C     0.79899   0.19315   0.40042   0.00000  Uiso   1.00
C210   C     0.86559   0.13448   0.10084   0.00000  Uiso   1.00
C211   C     0.74295   0.19903   0.46321   0.00000  Uiso   1.00
C212   C     0.77356   0.32981   0.29235   0.00000  Uiso   1.00
C213   C     0.82843   0.18587   0.42064   0.00000  Uiso   1.00
C214   C     0.74182   0.02889   0.31296   0.00000  Uiso   1.00
C215   C     0.70089   0.00902   0.34098   0.00000  Uiso   1.00
C216   C     0.92532   0.09358   0.10292   0.00000  Uiso   1.00
C217   C     0.96961   0.11966   0.09701   0.00000  Uiso   1.00
C218   C     0.99628   0.10579   0.12078   0.00000  Uiso   1.00
C219   C     0.93342   0.09536   0.44567   0.00000  Uiso   1.00
C220   C     0.97569   0.12229   0.44829   0.00000  Uiso   1.00
C221   C     0.68186   0.10233   0.42122   0.00000  Uiso   1.00
C222   C     0.87678   0.19977   0.40292   0.00000  Uiso   1.00
C223   C     0.89591   0.23104   0.43189   0.00000  Uiso   1.00
C224   C     0.81137   0.17441   0.46008   0.00000  Uiso   1.00
C225   C     0.94205   0.24873   0.41160   0.00000  Uiso   1.00
C226   C     0.76943   0.18476   0.48194   0.00000  Uiso   1.00
C227   C     0.83438   0.15390   0.47896   0.00000  Uiso   1.00
C228   C     0.82104   0.15401   0.02059   0.00000  Uiso   1.00
C229   C     0.77992   0.16676   0.04174   0.00000  Uiso   1.00
C230   C     0.75407   0.18056   0.02239   0.00000  Uiso   1.00
Cl231  Cl    0.94018   0.05885   0.01689   0.00000  Uiso   1.00
Cl232  Cl    0.89342   0.01098   0.20546   0.00000  Uiso   1.00
Cl233  Cl    0.71804   0.21357   0.40090   0.00000  Uiso   1.00
H234   H     0.72199   0.18838   0.03934   0.00000  Uiso   1.00
H235   H     0.67761   0.03237   0.35403   0.00000  Uiso   1.00
H236   H     0.75750   0.05419   0.33038   0.00000  Uiso   1.00
H237   H     0.73221   0.04250   0.29033   0.00000  Uiso   1.00
H238   H     0.75611   0.30516   0.27581   0.00000  Uiso   1.00
H239   H     0.78166   0.31658   0.31606   0.00000  Uiso   1.00
H240   H     0.97916   0.10950   0.15302   0.00000  Uiso   1.00
H241   H     0.66870   0.07277   0.11115   0.00000  Uiso   1.00
H242   H     0.69476   0.12514   0.11581   0.00000  Uiso   1.00
H243   H     0.98802   0.11684   0.06506   0.00000  Uiso   1.00
H244   H     0.96487   0.15290   0.10688   0.00000  Uiso   1.00
H245   H     0.68364   0.19309   0.21466   0.00000  Uiso   1.00
H246   H     0.90871   0.09489   0.13521   0.00000  Uiso   1.00
H247   H     0.92942   0.06022   0.09349   0.00000  Uiso   1.00
H248   H     0.68106   0.07014   0.42799   0.00000  Uiso   1.00
H249   H     0.68265   0.10183   0.38964   0.00000  Uiso   1.00
H250   H     0.71195   0.12041   0.42584   0.00000  Uiso   1.00
H251   H     0.97576   0.15333   0.43916   0.00000  Uiso   1.00
H252   H     0.97843   0.12731   0.47911   0.00000  Uiso   1.00
H253   H     0.93346   0.06231   0.44880   0.00000  Uiso   1.00
H254   H     0.93228   0.09421   0.41447   0.00000  Uiso   1.00
H255   H     0.96287   0.22319   0.39927   0.00000  Uiso   1.00
H256   H     0.98450   0.14075   0.28550   0.00000  Uiso   1.00
H257   H     0.94223   0.26650   0.38719   0.00000  Uiso   1.00
H258   H     0.95566   0.26994   0.43350   0.00000  Uiso   1.00
H259   H     0.87544   0.25703   0.44324   0.00000  Uiso   1.00
H260   H     0.89685   0.21593   0.45757   0.00000  Uiso   1.00
H261   H     0.89639   0.17342   0.39167   0.00000  Uiso   1.00
H262   H     0.88125   0.21604   0.37641   0.00000  Uiso   1.00
H263   H     0.81694   0.16881   0.09832   0.00000  Uiso   1.00
H264   H     0.71058   0.20621   0.47992   0.00000  Uiso   1.00
H265   H     0.76557   0.16370   0.07291   0.00000  Uiso   1.00
H266   H     0.87283   0.12354   0.42546   0.00000  Uiso   1.00
H267   H     0.68500   0.31625   0.32458   0.00000  Uiso   1.00
H268   H     0.70901   0.33055   0.36541   0.00000  Uiso   1.00
O269   O     0.83333   0.16667   0.25000   0.00000  Uiso   1.00
O270   O     0.82360   0.12393   0.16625   0.00000  Uiso   1.00
O271   O     0.79354   0.20646   0.33749   0.00000  Uiso   1.00
O272   O     0.87755   0.17493   0.15877   0.00000  Uiso   1.00
O273   O     0.83865   0.16135   0.33749   0.00000  Uiso   1.00
O274   O     0.84515   0.08101   0.27821   0.00000  Uiso   1.00
O275   O     0.81247   0.26136   0.26767   0.00000  Uiso   1.00
O276   O     0.74119   0.13251   0.23607   0.00000  Uiso   1.00
O277   O     0.93452   0.19179   0.21806   0.00000  Uiso   1.00
O278   O     0.73656   0.18960   0.27820   0.00000  Uiso   1.00
O279   O     0.92106   0.15277   0.26768   0.00000  Uiso   1.00
O280   O     0.80467   0.06903   0.23607   0.00000  Uiso   1.00
O281   O     0.87104   0.25527   0.21806   0.00000  Uiso   1.00
Zn282  Zn    0.85910   0.14090   0.28278   0.00000  Uiso   1.00
Zn283  Zn    0.80125   0.12378   0.22258   0.00000  Uiso   1.00
Zn284  Zn    0.87833   0.19664   0.21188   0.00000  Uiso   1.00
Zn285  Zn    0.79465   0.20535   0.28277   0.00000  Uiso   1.00
C286   C     0.05243   0.49327   0.25883   0.00000  Uiso   1.00
C287   C     0.20125   0.46378   0.45702   0.00000  Uiso   1.00
C288   C     0.22711   0.44660   0.47466   0.00000  Uiso   1.00
C289   C     0.28107   0.50689   0.24118   0.00000  Uiso   1.00
C290   C     0.21685   0.45010   0.01721   0.00000  Uiso   1.00
C291   C     0.18130   0.47274   0.03969   0.00000  Uiso   1.00
C292   C     0.23956   0.43207   0.03874   0.00000  Uiso   1.00
C293   C     0.23168   0.44242   0.08038   0.00000  Uiso   1.00
C294   C     0.17407   0.48189   0.08090   0.00000  Uiso   1.00
C295   C     0.32711   0.50950   0.23755   0.00000  Uiso   1.00
C296   C     0.00702   0.49104   0.26231   0.00000  Uiso   1.00
C297   C     0.08979   0.53459   0.42247   0.00000  Uiso   1.00
C298   C     0.18004   0.65571   0.23986   0.00000  Uiso   1.00
C299   C     0.14921   0.34624   0.26326   0.00000  Uiso   1.00
C300   C     0.15592   0.38972   0.25879   0.00000  Uiso   1.00
C301   C     0.17656   0.61108   0.24164   0.00000  Uiso   1.00
C302   C     0.18812   0.47869   0.14387   0.00000  Uiso   1.00
C303   C     0.14503   0.52098   0.35643   0.00000  Uiso   1.00
C304   C     0.13233   0.52648   0.40042   0.00000  Uiso   1.00
C305   C     0.19893   0.46782   0.10084   0.00000  Uiso   1.00
C306   C     0.07629   0.53236   0.46321   0.00000  Uiso   1.00
C307   C     0.10689   0.66314   0.29235   0.00000  Uiso   1.00
C308   C     0.16176   0.51921   0.42064   0.00000  Uiso   1.00
C309   C     0.07515   0.36222   0.31296   0.00000  Uiso   1.00
C310   C     0.03422   0.34235   0.34098   0.00000  Uiso   1.00
C311   C     0.25865   0.42691   0.10292   0.00000  Uiso   1.00
C312   C     0.30294   0.45299   0.09701   0.00000  Uiso   1.00
C313   C     0.32962   0.43912   0.12078   0.00000  Uiso   1.00
C314   C     0.26675   0.42869   0.44567   0.00000  Uiso   1.00
C315   C     0.30902   0.45563   0.44829   0.00000  Uiso   1.00
C316   C     0.01519   0.43566   0.42122   0.00000  Uiso   1.00
C317   C     0.21011   0.53311   0.40292   0.00000  Uiso   1.00
C318   C     0.22924   0.56437   0.43189   0.00000  Uiso   1.00
C319   C     0.14470   0.50774   0.46008   0.00000  Uiso   1.00
C320   C     0.27539   0.58206   0.41160   0.00000  Uiso   1.00
C321   C     0.10276   0.51809   0.48194   0.00000  Uiso   1.00
C322   C     0.16771   0.48723   0.47896   0.00000  Uiso   1.00
C323   C     0.15438   0.48735   0.02059   0.00000  Uiso   1.00
C324   C     0.11325   0.50010   0.04174   0.00000  Uiso   1.00
C325   C     0.08740   0.51389   0.02239   0.00000  Uiso   1.00
Cl326  Cl    0.27352   0.39219   0.01689   0.00000  Uiso   1.00
Cl327  Cl    0.22675   0.34431   0.20546   0.00000  Uiso   1.00
Cl328  Cl    0.05138   0.54690   0.40090   0.00000  Uiso   1.00
H329   H     0.05533   0.52172   0.03934   0.00000  Uiso   1.00
H330   H     0.01095   0.36570   0.35403   0.00000  Uiso   1.00
H331   H     0.09083   0.38753   0.33038   0.00000  Uiso   1.00
H332   H     0.06555   0.37584   0.29033   0.00000  Uiso   1.00
H333   H     0.08945   0.63850   0.27581   0.00000  Uiso   1.00
H334   H     0.11500   0.64992   0.31606   0.00000  Uiso   1.00
H335   H     0.31249   0.44283   0.15302   0.00000  Uiso   1.00
H336   H     0.00203   0.40610   0.11115   0.00000  Uiso   1.00
H337   H     0.02810   0.45848   0.11581   0.00000  Uiso   1.00
H338   H     0.32136   0.45017   0.06506   0.00000  Uiso   1.00
H339   H     0.29820   0.48623   0.10688   0.00000  Uiso   1.00
H340   H     0.01697   0.52643   0.21466   0.00000  Uiso   1.00
H341   H     0.24204   0.42822   0.13521   0.00000  Uiso   1.00
H342   H     0.26275   0.39356   0.09349   0.00000  Uiso   1.00
H343   H     0.01439   0.40347   0.42799   0.00000  Uiso   1.00
H344   H     0.01598   0.43517   0.38964   0.00000  Uiso   1.00
H345   H     0.04529   0.45375   0.42584   0.00000  Uiso   1.00
H346   H     0.30909   0.48666   0.43916   0.00000  Uiso   1.00
H347   H     0.31177   0.46064   0.47911   0.00000  Uiso   1.00
H348   H     0.26679   0.39564   0.44880   0.00000  Uiso   1.00
H349   H     0.26561   0.42755   0.41447   0.00000  Uiso   1.00
H350   H     0.29620   0.55652   0.39927   0.00000  Uiso   1.00
H351   H     0.31783   0.47408   0.28550   0.00000  Uiso   1.00
H352   H     0.27556   0.59983   0.38719   0.00000  Uiso   1.00
H353   H     0.28899   0.60328   0.43350   0.00000  Uiso   1.00
H354   H     0.20877   0.59036   0.44324   0.00000  Uiso   1.00
H355   H     0.23018   0.54926   0.45757   0.00000  Uiso   1.00
H356   H     0.22972   0.50675   0.39167   0.00000  Uiso   1.00
H357   H     0.21458   0.54937   0.37641   0.00000  Uiso   1.00
H358   H     0.15027   0.50215   0.09832   0.00000  Uiso   1.00
H359   H     0.04391   0.53955   0.47992   0.00000  Uiso   1.00
H360   H     0.09891   0.49703   0.07291   0.00000  Uiso   1.00
H361   H     0.20617   0.45687   0.42546   0.00000  Uiso   1.00
H362   H     0.01833   0.64959   0.32458   0.00000  Uiso   1.00
H363   H     0.04234   0.66389   0.36541   0.00000  Uiso   1.00
O364   O     0.16667   0.50000   0.25000   0.00000  Uiso   1.00
O365   O     0.15693   0.45726   0.16625   0.00000  Uiso   1.00
O366   O     0.12687   0.53979   0.33749   0.00000  Uiso   1.00
O367   O     0.21088   0.50826   0.15877   0.00000  Uiso   1.00
O368   O     0.17198   0.49468   0.33749   0.00000  Uiso   1.00
O369   O     0.17849   0.41434   0.27821   0.00000  Uiso   1.00
O370   O     0.14581   0.59469   0.26767   0.00000  Uiso   1.00
O371   O     0.07452   0.46584   0.23607   0.00000  Uiso   1.00
O372   O     0.26785   0.52512   0.21806   0.00000  Uiso   1.00
O373   O     0.06990   0.52293   0.27820   0.00000  Uiso   1.00
O374   O     0.25440   0.48610   0.26768   0.00000  Uiso   1.00
O375   O     0.13800   0.40236   0.23607   0.00000  Uiso   1.00
O376   O     0.20437   0.58860   0.21806   0.00000  Uiso   1.00
Zn377  Zn    0.19244   0.47423   0.28278   0.00000  Uiso   1.00
Zn378  Zn    0.13459   0.45711   0.22258   0.00000  Uiso   1.00
Zn379  Zn    0.21166   0.52997   0.21188   0.00000  Uiso   1.00
Zn380  Zn    0.12798   0.53868   0.28277   0.00000  Uiso   1.00
C381   C     0.38577   0.49327   0.25883   0.00000  Uiso   1.00
C382   C     0.53459   0.46378   0.45702   0.00000  Uiso   1.00
C383   C     0.56044   0.44660   0.47466   0.00000  Uiso   1.00
C384   C     0.61440   0.50689   0.24118   0.00000  Uiso   1.00
C385   C     0.55018   0.45010   0.01721   0.00000  Uiso   1.00
C386   C     0.51463   0.47274   0.03969   0.00000  Uiso   1.00
C387   C     0.57289   0.43207   0.03874   0.00000  Uiso   1.00
C388   C     0.56501   0.44242   0.08038   0.00000  Uiso   1.00
C389   C     0.50740   0.48189   0.08090   0.00000  Uiso   1.00
C390   C     0.66044   0.50950   0.23755   0.00000  Uiso   1.00
C391   C     0.34036   0.49104   0.26231   0.00000  Uiso   1.00
C392   C     0.42312   0.53459   0.42247   0.00000  Uiso   1.00
C393   C     0.51337   0.65571   0.23986   0.00000  Uiso   1.00
C394   C     0.48254   0.34624   0.26326   0.00000  Uiso   1.00
C395   C     0.48925   0.38972   0.25879   0.00000  Uiso   1.00
C396   C     0.50990   0.61108   0.24164   0.00000  Uiso   1.00
C397   C     0.52145   0.47869   0.14387   0.00000  Uiso   1.00
C398   C     0.47837   0.52098   0.35643   0.00000  Uiso   1.00
C399   C     0.46566   0.52648   0.40042   0.00000  Uiso   1.00
C400   C     0.53226   0.46782   0.10084   0.00000  Uiso   1.00
C401   C     0.40962   0.53236   0.46321   0.00000  Uiso   1.00
C402   C     0.44022   0.66314   0.29235   0.00000  Uiso   1.00
C403   C     0.49510   0.51921   0.42064   0.00000  Uiso   1.00
C404   C     0.40848   0.36222   0.31296   0.00000  Uiso   1.00
C405   C     0.36756   0.34235   0.34098   0.00000  Uiso   1.00
C406   C     0.59199   0.42691   0.10292   0.00000  Uiso   1.00
C407   C     0.63628   0.45299   0.09701   0.00000  Uiso   1.00
C408   C     0.66295   0.43912   0.12078   0.00000  Uiso   1.00
C409   C     0.60008   0.42869   0.44567   0.00000  Uiso   1.00
C410   C     0.64235   0.45563   0.44829   0.00000  Uiso   1.00
C411   C     0.34853   0.43566   0.42122   0.00000  Uiso   1.00
C412   C     0.54344   0.53311   0.40292   0.00000  Uiso   1.00
C413   C     0.56258   0.56437   0.43189   0.00000  Uiso   1.00
C414   C     0.47804   0.50774   0.46008   0.00000  Uiso   1.00
C415   C     0.60872   0.58206   0.41160   0.00000  Uiso   1.00
C416   C     0.43610   0.51809   0.48194   0.00000  Uiso   1.00
C417   C     0.50104   0.48723   0.47896   0.00000  Uiso   1.00
C418   C     0.48771   0.48735   0.02059   0.00000  Uiso   1.00
C419   C     0.44658   0.50010   0.04174   0.00000  Uiso   1.00
C420   C     0.42074   0.51389   0.02239   0.00000  Uiso   1.00
Cl421  Cl    0.60685   0.39219   0.01689   0.00000  Uiso   1.00
Cl422  Cl    0.56009   0.34431   0.20546   0.00000  Uiso   1.00
Cl423  Cl    0.38471   0.54690   0.40090   0.00000  Uiso   1.00
H424   H     0.38866   0.52172   0.03934   0.00000  Uiso   1.00
H425   H     0.34428   0.36570   0.35403   0.00000  Uiso   1.00
H426   H     0.42417   0.38753   0.33038   0.00000  Uiso   1.00
H427   H     0.39888   0.37584   0.29033   0.00000  Uiso   1.00
H428   H     0.42278   0.63850   0.27581   0.00000  Uiso   1.00
H429   H     0.44833   0.64992   0.31606   0.00000  Uiso   1.00
H430   H     0.64582   0.44283   0.15302   0.00000  Uiso   1.00
H431   H     0.33536   0.40610   0.11115   0.00000  Uiso   1.00
H432   H     0.36143   0.45848   0.11581   0.00000  Uiso   1.00
H433   H     0.65469   0.45017   0.06506   0.00000  Uiso   1.00
H434   H     0.63153   0.48623   0.10688   0.00000  Uiso   1.00
H435   H     0.35030   0.52643   0.21466   0.00000  Uiso   1.00
H436   H     0.57538   0.42822   0.13521   0.00000  Uiso   1.00
H437   H     0.59609   0.39356   0.09349   0.00000  Uiso   1.00
H438   H     0.34773   0.40347   0.42799   0.00000  Uiso   1.00
H439   H     0.34931   0.43517   0.38964   0.00000  Uiso   1.00
H440   H     0.37862   0.45375   0.42584   0.00000  Uiso   1.00
H441   H     0.64242   0.48666   0.43916   0.00000  Uiso   1.00
H442   H     0.64510   0.46064   0.47911   0.00000  Uiso   1.00
H443   H     0.60013   0.39564   0.44880   0.00000  Uiso   1.00
H444   H     0.59895   0.42755   0.41447   0.00000  Uiso   1.00
H445   H     0.62954   0.55652   0.39927   0.00000  Uiso   1.00
H446   H     0.65117   0.47408   0.28550   0.00000  Uiso   1.00
H447   H     0.60890   0.59983   0.38719   0.00000  Uiso   1.00
H448   H     0.62232   0.60328   0.43350   0.00000  Uiso   1.00
H449   H     0.54211   0.59036   0.44324   0.00000  Uiso   1.00
H450   H     0.56351   0.54926   0.45757   0.00000  Uiso   1.00
H451   H     0.56305   0.50675   0.39167   0.00000  Uiso   1.00
H452   H     0.54792   0.54937   0.37641   0.00000  Uiso   1.00
H453   H     0.48360   0.50215   0.09832   0.00000  Uiso   1.00
H454   H     0.37724   0.53955   0.47992   0.00000  Uiso   1.00
H455   H     0.43224   0.49703   0.07291   0.00000  Uiso   1.00
H456   H     0.53950   0.45687   0.42546   0.00000  Uiso   1.00
H457   H     0.35166   0.64959   0.32458   0.00000  Uiso   1.00
H458   H     0.37567   0.66389   0.36541   0.00000  Uiso   1.00
O459   O     0.50000   0.50000   0.25000   0.00000  Uiso   1.00
O460   O     0.49027   0.45726   0.16625   0.00000  Uiso   1.00
O461   O     0.46020   0.53979   0.33749   0.00000  Uiso   1.00
O462   O     0.54421   0.50826   0.15877   0.00000  Uiso   1.00
O463   O     0.50532   0.49468   0.33749   0.00000  Uiso   1.00
O464   O     0.51182   0.41434   0.27821   0.00000  Uiso   1.00
O465   O     0.47914   0.59469   0.26767   0.00000  Uiso   1.00
O466   O     0.40785   0.46584   0.23607   0.00000  Uiso   1.00
O467   O     0.60119   0.52512   0.21806   0.00000  Uiso   1.00
O468   O     0.40323   0.52293   0.27820   0.00000  Uiso   1.00
O469   O     0.58773   0.48610   0.26768   0.00000  Uiso   1.00
O470   O     0.47133   0.40236   0.23607   0.00000  Uiso   1.00
O471   O     0.53771   0.58860   0.21806   0.00000  Uiso   1.00
Zn472  Zn    0.52577   0.47423   0.28278   0.00000  Uiso   1.00
Zn473  Zn    0.46792   0.45711   0.22258   0.00000  Uiso   1.00
Zn474  Zn    0.54500   0.52997   0.21188   0.00000  Uiso   1.00
Zn475  Zn    0.46131   0.53868   0.28277   0.00000  Uiso   1.00
C476   C     0.71910   0.49327   0.25883   0.00000  Uiso   1.00
C477   C     0.86792   0.46378   0.45702   0.00000  Uiso   1.00
C478   C     0.89378   0.44660   0.47466   0.00000  Uiso   1.00
C479   C     0.94774   0.50689   0.24118   0.00000  Uiso   1.00
C480   C     0.88351   0.45010   0.01721   0.00000  Uiso   1.00
C481   C     0.84797   0.47274   0.03969   0.00000  Uiso   1.00
C482   C     0.90622   0.43207   0.03874   0.00000  Uiso   1.00
C483   C     0.89835   0.44242   0.08038   0.00000  Uiso   1.00
C484   C     0.84074   0.48189   0.08090   0.00000  Uiso   1.00
C485   C     0.99378   0.50950   0.23755   0.00000  Uiso   1.00
C486   C     0.67369   0.49104   0.26231   0.00000  Uiso   1.00
C487   C     0.75646   0.53459   0.42247   0.00000  Uiso   1.00
C488   C     0.84671   0.65571   0.23986   0.00000  Uiso   1.00
C489   C     0.81587   0.34624   0.26326   0.00000  Uiso   1.00
C490   C     0.82259   0.38972   0.25879   0.00000  Uiso   1.00
C491   C     0.84323   0.61108   0.24164   0.00000  Uiso   1.00
C492   C     0.85479   0.47869   0.14387   0.00000  Uiso   1.00
C493   C     0.81170   0.52098   0.35643   0.00000  Uiso   1.00
C494   C     0.79899   0.52648   0.40042   0.00000  Uiso   1.00
C495   C     0.86559   0.46782   0.10084   0.00000  Uiso   1.00
C496   C     0.74295   0.53236   0.46321   0.00000  Uiso   1.00
C497   C     0.77356   0.66314   0.29235   0.00000  Uiso   1.00
C498   C     0.82843   0.51921   0.42064   0.00000  Uiso   1.00
C499   C     0.74182   0.36222   0.31296   0.00000  Uiso   1.00
C500   C     0.70089   0.34235   0.34098   0.00000  Uiso   1.00
C501   C     0.92532   0.42691   0.10292   0.00000  Uiso   1.00
C502   C     0.96961   0.45299   0.09701   0.00000  Uiso   1.00
C503   C     0.99628   0.43912   0.12078   0.00000  Uiso   1.00
C504   C     0.93342   0.42869   0.44567   0.00000  Uiso   1.00
C505   C     0.97569   0.45563   0.44829   0.00000  Uiso   1.00
C506   C     0.68186   0.43566   0.42122   0.00000  Uiso   1.00
C507   C     0.87678   0.53311   0.40292   0.00000  Uiso   1.00
C508   C     0.89591   0.56437   0.43189   0.00000  Uiso   1.00
C509   C     0.81137   0.50774   0.46008   0.00000  Uiso   1.00
C510   C     0.94205   0.58206   0.41160   0.00000  Uiso   1.00
C511   C     0.76943   0.51809   0.48194   0.00000  Uiso   1.00
C512   C     0.83438   0.48723   0.47896   0.00000  Uiso   1.00
C513   C     0.82104   0.48735   0.02059   0.00000  Uiso   1.00
C514   C     0.77992   0.50010   0.04174   0.00000  Uiso   1.00
C515   C     0.75407   0.51389   0.02239   0.00000  Uiso   1.00
Cl516  Cl    0.94018   0.39219   0.01689   0.00000  Uiso   1.00
Cl517  Cl    0.89342   0.34431   0.20546   0.00000  Uiso   1.00
Cl518  Cl    0.71804   0.54690   0.40090   0.00000  Uiso   1.00
H519   H     0.72199   0.52172   0.03934   0.00000  Uiso   1.00
H520   H     0.67761   0.36570   0.35403   0.00000  Uiso   1.00
H521   H     0.75750   0.38753   0.33038   0.00000  Uiso   1.00
H522   H     0.73221   0.37584   0.29033   0.00000  Uiso   1.00
H523   H     0.75611   0.63850   0.27581   0.00000  Uiso   1.00
H524   H     0.78166   0.64992   0.31606   0.00000  Uiso   1.00
H525   H     0.97916   0.44283   0.15302   0.00000  Uiso   1.00
H526   H     0.66870   0.40610   0.11115   0.00000  Uiso   1.00
H527   H     0.69476   0.45848   0.11581   0.00000  Uiso   1.00
H528   H     0.98802   0.45017   0.06506   0.00000  Uiso   1.00
H529   H     0.96487   0.48623   0.10688   0.00000  Uiso   1.00
H530   H     0.68364   0.52643   0.21466   0.00000  Uiso   1.00
H531   H     0.90871   0.42822   0.13521   0.00000  Uiso   1.00
H532   H     0.92942   0.39356   0.09349   0.00000  Uiso   1.00
H533   H     0.68106   0.40347   0.42799   0.00000  Uiso   1.00
H534   H     0.68265   0.43517   0.38964   0.00000  Uiso   1.00
H535   H     0.71195   0.45375   0.42584   0.00000  Uiso   1.00
H536   H     0.97576   0.48666   0.43916   0.00000  Uiso   1.00
H537   H     0.97843   0.46064   0.47911   0.00000  Uiso   1.00
H538   H     0.93346   0.39564   0.44880   0.00000  Uiso   1.00
H539   H     0.93228   0.42755   0.41447   0.00000  Uiso   1.00
H540   H     0.96287   0.55652   0.39927   0.00000  Uiso   1.00
H541   H     0.98450   0.47408   0.28550   0.00000  Uiso   1.00
H542   H     0.94223   0.59983   0.38719   0.00000  Uiso   1.00
H543   H     0.95566   0.60328   0.43350   0.00000  Uiso   1.00
H544   H     0.87544   0.59036   0.44324   0.00000  Uiso   1.00
H545   H     0.89685   0.54926   0.45757   0.00000  Uiso   1.00
H546   H     0.89639   0.50675   0.39167   0.00000  Uiso   1.00
H547   H     0.88125   0.54937   0.37641   0.00000  Uiso   1.00
H548   H     0.81694   0.50215   0.09832   0.00000  Uiso   1.00
H549   H     0.71058   0.53955   0.47992   0.00000  Uiso   1.00
H550   H     0.76557   0.49703   0.07291   0.00000  Uiso   1.00
H551   H     0.87283   0.45687   0.42546   0.00000  Uiso   1.00
H552   H     0.68500   0.64959   0.32458   0.00000  Uiso   1.00
H553   H     0.70901   0.66389   0.36541   0.00000  Uiso   1.00
O554   O     0.83333   0.50000   0.25000   0.00000  Uiso   1.00
O555   O     0.82360   0.45726   0.16625   0.00000  Uiso   1.00
O556   O     0.79354   0.53979   0.33749   0.00000  Uiso   1.00
O557   O     0.87755   0.50826   0.15877   0.00000  Uiso   1.00
O558   O     0.83865   0.49468   0.33749   0.00000  Uiso   1.00
O559   O     0.84515   0.41434   0.27821   0.00000  Uiso   1.00
O560   O     0.81247   0.59469   0.26767   0.00000  Uiso   1.00
O561   O     0.74119   0.46584   0.23607   0.00000  Uiso   1.00
O562   O     0.93452   0.52512   0.21806   0.00000  Uiso   1.00
O563   O     0.73656   0.52293   0.27820   0.00000  Uiso   1.00
O564   O     0.92106   0.48610   0.26768   0.00000  Uiso   1.00
O565   O     0.80467   0.40236   0.23607   0.00000  Uiso   1.00
O566   O     0.87104   0.58860   0.21806   0.00000  Uiso   1.00
Zn567  Zn    0.85910   0.47423   0.28278   0.00000  Uiso   1.00
Zn568  Zn    0.80125   0.45711   0.22258   0.00000  Uiso   1.00
Zn569  Zn    0.87833   0.52997   0.21188   0.00000  Uiso   1.00
Zn570  Zn    0.79465   0.53868   0.28277   0.00000  Uiso   1.00
C571   C     0.05243   0.82660   0.25883   0.00000  Uiso   1.00
C572   C     0.20125   0.79711   0.45702   0.00000  Uiso   1.00
C573   C     0.22711   0.77993   0.47466   0.00000  Uiso   1.00
C574   C     0.28107   0.84023   0.24118   0.00000  Uiso   1.00
C575   C     0.21685   0.78343   0.01721   0.00000  Uiso   1.00
C576   C     0.18130   0.80607   0.03969   0.00000  Uiso   1.00
C577   C     0.23956   0.76541   0.03874   0.00000  Uiso   1.00
C578   C     0.23168   0.77575   0.08038   0.00000  Uiso   1.00
C579   C     0.17407   0.81523   0.08090   0.00000  Uiso   1.00
C580   C     0.32711   0.84284   0.23755   0.00000  Uiso   1.00
C581   C     0.00702   0.82437   0.26231   0.00000  Uiso   1.00
C582   C     0.08979   0.86793   0.42247   0.00000  Uiso   1.00
C583   C     0.18004   0.98905   0.23986   0.00000  Uiso   1.00
C584   C     0.14921   0.67958   0.26326   0.00000  Uiso   1.00
C585   C     0.15592   0.72306   0.25879   0.00000  Uiso   1.00
C586   C     0.17656   0.94442   0.24164   0.00000  Uiso   1.00
C587   C     0.18812   0.81203   0.14387   0.00000  Uiso   1.00
C588   C     0.14503   0.85431   0.35643   0.00000  Uiso   1.00
C589   C     0.13233   0.85981   0.40042   0.00000  Uiso   1.00
C590   C     0.19893   0.80115   0.10084   0.00000  Uiso   1.00
C591   C     0.07629   0.86569   0.46321   0.00000  Uiso   1.00
C592   C     0.10689   0.99648   0.29235   0.00000  Uiso   1.00
C593   C     0.16176   0.85254   0.42064   0.00000  Uiso   1.00
C594   C     0.07515   0.69556   0.31296   0.00000  Uiso   1.00
C595   C     0.03422   0.67568   0.34098   0.00000  Uiso   1.00
C596   C     0.25865   0.76025   0.10292   0.00000  Uiso   1.00
C597   C     0.30294   0.78632   0.09701   0.00000  Uiso   1.00
C598   C     0.32962   0.77246   0.12078   0.00000  Uiso   1.00
C599   C     0.26675   0.76202   0.44567   0.00000  Uiso   1.00
C600   C     0.30902   0.78896   0.44829   0.00000  Uiso   1.00
C601   C     0.01519   0.76899   0.42122   0.00000  Uiso   1.00
C602   C     0.21011   0.86644   0.40292   0.00000  Uiso   1.00
C603   C     0.22924   0.89770   0.43189   0.00000  Uiso   1.00
C604   C     0.14470   0.84107   0.46008   0.00000  Uiso   1.00
C605   C     0.27539   0.91539   0.41160   0.00000  Uiso   1.00
C606   C     0.10276   0.85142   0.48194   0.00000  Uiso   1.00
C607   C     0.16771   0.82056   0.47896   0.00000  Uiso   1.00
C608   C     0.15438   0.82068   0.02059   0.00000  Uiso   1.00
C609   C     0.11325   0.83343   0.04174   0.00000  Uiso   1.00
C610   C     0.08740   0.84722   0.02239   0.00000  Uiso   1.00
Cl611  Cl    0.27352   0.72552   0.01689   0.00000  Uiso   1.00
Cl612  Cl    0.22675   0.67764   0.20546   0.00000  Uiso   1.00
Cl613  Cl    0.05138   0.88024   0.40090   0.00000  Uiso   1.00
H614   H     0.05533   0.85505   0.03934   0.00000  Uiso   1.00
H615   H     0.01095   0.69904   0.35403   0.00000  Uiso   1.00
H616   H     0.09083   0.72086   0.33038   0.00000  Uiso   1.00
H617   H     0.06555   0.70917   0.29033   0.00000  Uiso   1.00
H618   H     0.08945   0.97183   0.27581   0.00000  Uiso   1.00
H619   H     0.11500   0.98325   0.31606   0.00000  Uiso   1.00
H620   H     0.31249   0.77617   0.15302   0.00000  Uiso   1.00
H621   H     0.00203   0.73944   0.11115   0.00000  Uiso   1.00
H622   H     0.02810   0.79181   0.11581   0.00000  Uiso   1.00
H623   H     0.32136   0.78351   0.06506   0.00000  Uiso   1.00
H624   H     0.29820   0.81957   0.10688   0.00000  Uiso   1.00
H625   H     0.01697   0.85976   0.21466   0.00000  Uiso   1.00
H626   H     0.24204   0.76155   0.13521   0.00000  Uiso   1.00
H627   H     0.26275   0.72689   0.09349   0.00000  Uiso   1.00
H628   H     0.01439   0.73680   0.42799   0.00000  Uiso   1.00
H629   H     0.01598   0.76850   0.38964   0.00000  Uiso   1.00
H630   H     0.04529   0.78708   0.42584   0.00000  Uiso   1.00
H631   H     0.30909   0.82000   0.43916   0.00000  Uiso   1.00
H632   H     0.31177   0.79397   0.47911   0.00000  Uiso   1.00
H633   H     0.26679   0.72898   0.44880   0.00000  Uiso   1.00
H634   H     0.26561   0.76088   0.41447   0.00000  Uiso   1.00
H635   H     0.29620   0.88986   0.39927   0.00000  Uiso   1.00
H636   H     0.31783   0.80742   0.28550   0.00000  Uiso   1.00
H637   H     0.27556   0.93316   0.38719   0.00000  Uiso   1.00
H638   H     0.28899   0.93661   0.43350   0.00000  Uiso   1.00
H639   H     0.20877   0.92369   0.44324   0.00000  Uiso   1.00
H640   H     0.23018   0.88260   0.45757   0.00000  Uiso   1.00
H641   H     0.22972   0.84009   0.39167   0.00000  Uiso   1.00
H642   H     0.21458   0.88271   0.37641   0.00000  Uiso   1.00
H643   H     0.15027   0.83548   0.09832   0.00000  Uiso   1.00
H644   H     0.04391   0.87288   0.47992   0.00000  Uiso   1.00
H645   H     0.09891   0.83036   0.07291   0.00000  Uiso   1.00
H646   H     0.20617   0.79021   0.42546   0.00000  Uiso   1.00
H647   H     0.01833   0.98292   0.32458   0.00000  Uiso   1.00
H648   H     0.04234   0.99722   0.36541   0.00000  Uiso   1.00
O649   O     0.16667   0.83333   0.25000   0.00000  Uiso   1.00
O650   O     0.15693   0.79060   0.16625   0.00000  Uiso   1.00
O651   O     0.12687   0.87313   0.33749   0.00000  Uiso   1.00
O652   O     0.21088   0.84159   0.15877   0.00000  Uiso   1.00
O653   O     0.17198   0.82802   0.33749   0.00000  Uiso   1.00
O654   O     0.17849   0.74768   0.27821   0.00000  Uiso   1.00
O655   O     0.14581   0.92803   0.26767   0.00000  Uiso   1.00
O656   O     0.07452   0.79917   0.23607   0.00000  Uiso   1.00
O657   O     0.26785   0.85845   0.21806   0.00000  Uiso   1.00
O658   O     0.06990   0.85627   0.27820   0.00000  Uiso   1.00
O659   O     0.25440   0.81944   0.26768   0.00000  Uiso   1.00
O660   O     0.13800   0.73570   0.23607   0.00000  Uiso   1.00
O661   O     0.20437   0.92193   0.21806   0.00000  Uiso   1.00
Zn662  Zn    0.19244   0.80756   0.28278   0.00000  Uiso   1.00
Zn663  Zn    0.13459   0.79044   0.22258   0.00000  Uiso   1.00
Zn664  Zn    0.21166   0.86331   0.21188   0.00000  Uiso   1.00
Zn665  Zn    0.12798   0.87202   0.28277   0.00000  Uiso   1.00
C666   C     0.38577   0.82660   0.25883   0.00000  Uiso   1.00
C667   C     0.53459   0.79711   0.45702   0.00000  Uiso   1.00
C668   C     0.56044   0.77993   0.47466   0.00000  Uiso   1.00
C669   C     0.61440   0.84023   0.24118   0.00000  Uiso   1.00
C670   C     0.55018   0.78343   0.01721   0.00000  Uiso   1.00
C671   C     0.51463   0.80607   0.03969   0.00000  Uiso   1.00
C672   C     0.57289   0.76541   0.03874   0.00000  Uiso   1.00
C673   C     0.56501   0.77575   0.08038   0.00000  Uiso   1.00
C674   C     0.50740   0.81523   0.08090   0.00000  Uiso   1.00
C675   C     0.66044   0.84284   0.23755   0.00000  Uiso   1.00
C676   C     0.34036   0.82437   0.26231   0.00000  Uiso   1.00
C677   C     0.42312   0.86793   0.42247   0.00000  Uiso   1.00
C678   C     0.51337   0.98905   0.23986   0.00000  Uiso   1.00
C679   C     0.48254   0.67958   0.26326   0.00000  Uiso   1.00
C680   C     0.48925   0.72306   0.25879   0.00000  Uiso   1.00
C681   C     0.50990   0.94442   0.24164   0.00000  Uiso   1.00
C682   C     0.52145   0.81203   0.14387   0.00000  Uiso   1.00
C683   C     0.47837   0.85431   0.35643   0.00000  Uiso   1.00
C684   C     0.46566   0.85981   0.40042   0.00000  Uiso   1.00
C685   C     0.53226   0.80115   0.10084   0.00000  Uiso   1.00
C686   C     0.40962   0.86569   0.46321   0.00000  Uiso   1.00
C687   C     0.44022   0.99648   0.29235   0.00000  Uiso   1.00
C688   C     0.49510   0.85254   0.42064   0.00000  Uiso   1.00
C689   C     0.40848   0.69556   0.31296   0.00000  Uiso   1.00
C690   C     0.36756   0.67568   0.34098   0.00000  Uiso   1.00
C691   C     0.59199   0.76025   0.10292   0.00000  Uiso   1.00
C692   C     0.63628   0.78632   0.09701   0.00000  Uiso   1.00
C693   C     0.66295   0.77246   0.12078   0.00000  Uiso   1.00
C694   C     0.60008   0.76202   0.44567   0.00000  Uiso   1.00
C695   C     0.64235   0.78896   0.44829   0.00000  Uiso   1.00
C696   C     0.34853   0.76899   0.42122   0.00000  Uiso   1.00
C697   C     0.54344   0.86644   0.40292   0.00000  Uiso   1.00
C698   C     0.56258   0.89770   0.43189   0.00000  Uiso   1.00
C699   C     0.47804   0.84107   0.46008   0.00000  Uiso   1.00
C700   C     0.60872   0.91539   0.41160   0.00000  Uiso   1.00
C701   C     0.43610   0.85142   0.48194   0.00000  Uiso   1.00
C702   C     0.50104   0.82056   0.47896   0.00000  Uiso   1.00
C703   C     0.48771   0.82068   0.02059   0.00000  Uiso   1.00
C704   C     0.44658   0.83343   0.04174   0.00000  Uiso   1.00
C705   C     0.42074   0.84722   0.02239   0.00000  Uiso   1.00
Cl706  Cl    0.60685   0.72552   0.01689   0.00000  Uiso   1.00
Cl707  Cl    0.56009   0.67764   0.20546   0.00000  Uiso   1.00
Cl708  Cl    0.38471   0.88024   0.40090   0.00000  Uiso   1.00
H709   H     0.38866   0.85505   0.03934   0.00000  Uiso   1.00
H710   H     0.34428   0.69904   0.35403   0.00000  Uiso   1.00
H711   H     0.42417   0.72086   0.33038   0.00000  Uiso   1.00
H712   H     0.39888   0.70917   0.29033   0.00000  Uiso   1.00
H713   H     0.42278   0.97183   0.27581   0.00000  Uiso   1.00
H714   H     0.44833   0.98325   0.31606   0.00000  Uiso   1.00
H715   H     0.64582   0.77617   0.15302   0.00000  Uiso   1.00
H716   H     0.33536   0.73944   0.11115   0.00000  Uiso   1.00
H717   H     0.36143   0.79181   0.11581   0.00000  Uiso   1.00
H718   H     0.65469   0.78351   0.06506   0.00000  Uiso   1.00
H719   H     0.63153   0.81957   0.10688   0.00000  Uiso   1.00
H720   H     0.35030   0.85976   0.21466   0.00000  Uiso   1.00
H721   H     0.57538   0.76155   0.13521   0.00000  Uiso   1.00
H722   H     0.59609   0.72689   0.09349   0.00000  Uiso   1.00
H723   H     0.34773   0.73680   0.42799   0.00000  Uiso   1.00
H724   H     0.34931   0.76850   0.38964   0.00000  Uiso   1.00
H725   H     0.37862   0.78708   0.42584   0.00000  Uiso   1.00
H726   H     0.64242   0.82000   0.43916   0.00000  Uiso   1.00
H727   H     0.64510   0.79397   0.47911   0.00000  Uiso   1.00
H728   H     0.60013   0.72898   0.44880   0.00000  Uiso   1.00
H729   H     0.59895   0.76088   0.41447   0.00000  Uiso   1.00
H730   H     0.62954   0.88986   0.39927   0.00000  Uiso   1.00
H731   H     0.65117   0.80742   0.28550   0.00000  Uiso   1.00
H732   H     0.60890   0.93316   0.38719   0.00000  Uiso   1.00
H733   H     0.62232   0.93661   0.43350   0.00000  Uiso   1.00
H734   H     0.54211   0.92369   0.44324   0.00000  Uiso   1.00
H735   H     0.56351   0.88260   0.45757   0.00000  Uiso   1.00
H736   H     0.56305   0.84009   0.39167   0.00000  Uiso   1.00
H737   H     0.54792   0.88271   0.37641   0.00000  Uiso   1.00
H738   H     0.48360   0.83548   0.09832   0.00000  Uiso   1.00
H739   H     0.37724   0.87288   0.47992   0.00000  Uiso   1.00
H740   H     0.43224   0.83036   0.07291   0.00000  Uiso   1.00
H741   H     0.53950   0.79021   0.42546   0.00000  Uiso   1.00
H742   H     0.35166   0.98292   0.32458   0.00000  Uiso   1.00
H743   H     0.37567   0.99722   0.36541   0.00000  Uiso   1.00
O744   O     0.50000   0.83333   0.25000   0.00000  Uiso   1.00
O745   O     0.49027   0.79060   0.16625   0.00000  Uiso   1.00
O746   O     0.46020   0.87313   0.33749   0.00000  Uiso   1.00
O747   O     0.54421   0.84159   0.15877   0.00000  Uiso   1.00
O748   O     0.50532   0.82802   0.33749   0.00000  Uiso   1.00
O749   O     0.51182   0.74768   0.27821   0.00000  Uiso   1.00
O750   O     0.47914   0.92803   0.26767   0.00000  Uiso   1.00
O751   O     0.40785   0.79917   0.23607   0.00000  Uiso   1.00
O752   O     0.60119   0.85845   0.21806   0.00000  Uiso   1.00
O753   O     0.40323   0.85627   0.27820   0.00000  Uiso   1.00
O754   O     0.58773   0.81944   0.26768   0.00000  Uiso   1.00
O755   O     0.47133   0.73570   0.23607   0.00000  Uiso   1.00
O756   O     0.53771   0.92193   0.21806   0.00000  Uiso   1.00
Zn757  Zn    0.52577   0.80756   0.28278   0.00000  Uiso   1.00
Zn758  Zn    0.46792   0.79044   0.22258   0.00000  Uiso   1.00
Zn759  Zn    0.54500   0.86331   0.21188   0.00000  Uiso   1.00
Zn760  Zn    0.46131   0.87202   0.28277   0.00000  Uiso   1.00
C761   C     0.71910   0.82660   0.25883   0.00000  Uiso   1.00
C762   C     0.86792   0.79711   0.45702   0.00000  Uiso   1.00
C763   C     0.89378   0.77993   0.47466   0.00000  Uiso   1.00
C764   C     0.94774   0.84023   0.24118   0.00000  Uiso   1.00
C765   C     0.88351   0.78343   0.01721   0.00000  Uiso   1.00
C766   C     0.84797   0.80607   0.03969   0.00000  Uiso   1.00
C767   C     0.90622   0.76541   0.03874   0.00000  Uiso   1.00
C768   C     0.89835   0.77575   0.08038   0.00000  Uiso   1.00
C769   C     0.84074   0.81523   0.08090   0.00000  Uiso   1.00
C770   C     0.99378   0.84284   0.23755   0.00000  Uiso   1.00
C771   C     0.67369   0.82437   0.26231   0.00000  Uiso   1.00
C772   C     0.75646   0.86793   0.42247   0.00000  Uiso   1.00
C773   C     0.84671   0.98905   0.23986   0.00000  Uiso   1.00
C774   C     0.81587   0.67958   0.26326   0.00000  Uiso   1.00
C775   C     0.82259   0.72306   0.25879   0.00000  Uiso   1.00
C776   C     0.84323   0.94442   0.24164   0.00000  Uiso   1.00
C777   C     0.85479   0.81203   0.14387   0.00000  Uiso   1.00
C778   C     0.81170   0.85431   0.35643   0.00000  Uiso   1.00
C779   C     0.79899   0.85981   0.40042   0.00000  Uiso   1.00
C780   C     0.86559   0.80115   0.10084   0.00000  Uiso   1.00
C781   C     0.74295   0.86569   0.46321   0.00000  Uiso   1.00
C782   C     0.77356   0.99648   0.29235   0.00000  Uiso   1.00
C783   C     0.82843   0.85254   0.42064   0.00000  Uiso   1.00
C784   C     0.74182   0.69556   0.31296   0.00000  Uiso   1.00
C785   C     0.70089   0.67568   0.34098   0.00000  Uiso   1.00
C786   C     0.92532   0.76025   0.10292   0.00000  Uiso   1.00
C787   C     0.96961   0.78632   0.09701   0.00000  Uiso   1.00
C788   C     0.99628   0.77246   0.12078   0.00000  Uiso   1.00
C789   C     0.93342   0.76202   0.44567   0.00000  Uiso   1.00
C790   C     0.97569   0.78896   0.44829   0.00000  Uiso   1.00
C791   C     0.68186   0.76899   0.42122   0.00000  Uiso   1.00
C792   C     0.87678   0.86644   0.40292   0.00000  Uiso   1.00
C793   C     0.89591   0.89770   0.43189   0.00000  Uiso   1.00
C794   C     0.81137   0.84107   0.46008   0.00000  Uiso   1.00
C795   C     0.94205   0.91539   0.41160   0.00000  Uiso   1.00
C796   C     0.76943   0.85142   0.48194   0.00000  Uiso   1.00
C797   C     0.83438   0.82056   0.47896   0.00000  Uiso   1.00
C798   C     0.82104   0.82068   0.02059   0.00000  Uiso   1.00
C799   C     0.77992   0.83343   0.04174   0.00000  Uiso   1.00
C800   C     0.75407   0.84722   0.02239   0.00000  Uiso   1.00
Cl801  Cl    0.94018   0.72552   0.01689   0.00000  Uiso   1.00
Cl802  Cl    0.89342   0.67764   0.20546   0.00000  Uiso   1.00
Cl803  Cl    0.71804   0.88024   0.40090   0.00000  Uiso   1.00
H804   H     0.72199   0.85505   0.03934   0.00000  Uiso   1.00
H805   H     0.67761   0.69904   0.35403   0.00000  Uiso   1.00
H806   H     0.75750   0.72086   0.33038   0.00000  Uiso   1.00
H807   H     0.73221   0.70917   0.29033   0.00000  Uiso   1.00
H808   H     0.75611   0.97183   0.27581   0.00000  Uiso   1.00
H809   H     0.78166   0.98325   0.31606   0.00000  Uiso   1.00
H810   H     0.97916   0.77617   0.15302   0.00000  Uiso   1.00
H811   H     0.66870   0.73944   0.11115   0.00000  Uiso   1.00
H812   H     0.69476   0.79181   0.11581   0.00000  Uiso   1.00
H813   H     0.98802   0.78351   0.06506   0.00000  Uiso   1.00
H814   H     0.96487   0.81957   0.10688   0.00000  Uiso   1.00
H815   H     0.68364   0.85976   0.21466   0.00000  Uiso   1.00
H816   H     0.90871   0.76155   0.13521   0.00000  Uiso   1.00
H817   H     0.92942   0.72689   0.09349   0.00000  Uiso   1.00
H818   H     0.68106   0.73680   0.42799   0.00000  Uiso   1.00
H819   H     0.68265   0.76850   0.38964   0.00000  Uiso   1.00
H820   H     0.71195   0.78708   0.42584   0.00000  Uiso   1.00
H821   H     0.97576   0.82000   0.43916   0.00000  Uiso   1.00
H822   H     0.97843   0.79397   0.47911   0.00000  Uiso   1.00
H823   H     0.93346   0.72898   0.44880   0.00000  Uiso   1.00
H824   H     0.93228   0.76088   0.41447   0.00000  Uiso   1.00
H825   H     0.96287   0.88986   0.39927   0.00000  Uiso   1.00
H826   H     0.98450   0.80742   0.28550   0.00000  Uiso   1.00
H827   H     0.94223   0.93316   0.38719   0.00000  Uiso   1.00
H828   H     0.95566   0.93661   0.43350   0.00000  Uiso   1.00
H829   H     0.87544   0.92369   0.44324   0.00000  Uiso   1.00
H830   H     0.89685   0.88260   0.45757   0.00000  Uiso   1.00
H831   H     0.89639   0.84009   0.39167   0.00000  Uiso   1.00
H832   H     0.88125   0.88271   0.37641   0.00000  Uiso   1.00
H833   H     0.81694   0.83548   0.09832   0.00000  Uiso   1.00
H834   H     0.71058   0.87288   0.47992   0.00000  Uiso   1.00
H835   H     0.76557   0.83036   0.07291   0.00000  Uiso   1.00
H836   H     0.87283   0.79021   0.42546   0.00000  Uiso   1.00
H837   H     0.68500   0.98292   0.32458   0.00000  Uiso   1.00
H838   H     0.70901   0.99722   0.36541   0.00000  Uiso   1.00
O839   O     0.83333   0.83333   0.25000   0.00000  Uiso   1.00
O840   O     0.82360   0.79060   0.16625   0.00000  Uiso   1.00
O841   O     0.79354   0.87313   0.33749   0.00000  Uiso   1.00
O842   O     0.87755   0.84159   0.15877   0.00000  Uiso   1.00
O843   O     0.83865   0.82802   0.33749   0.00000  Uiso   1.00
O844   O     0.84515   0.74768   0.27821   0.00000  Uiso   1.00
O845   O     0.81247   0.92803   0.26767   0.00000  Uiso   1.00
O846   O     0.74119   0.79917   0.23607   0.00000  Uiso   1.00
O847   O     0.93452   0.85845   0.21806   0.00000  Uiso   1.00
O848   O     0.73656   0.85627   0.27820   0.00000  Uiso   1.00
O849   O     0.92106   0.81944   0.26768   0.00000  Uiso   1.00
O850   O     0.80467   0.73570   0.23607   0.00000  Uiso   1.00
O851   O     0.87104   0.92193   0.21806   0.00000  Uiso   1.00
Zn852  Zn    0.85910   0.80756   0.28278   0.00000  Uiso   1.00
Zn853  Zn    0.80125   0.79044   0.22258   0.00000  Uiso   1.00
Zn854  Zn    0.87833   0.86331   0.21188   0.00000  Uiso   1.00
Zn855  Zn    0.79465   0.87202   0.28277   0.00000  Uiso   1.00
C856   C     0.05243   0.15993   0.75883   0.00000  Uiso   1.00
C857   C     0.20125   0.13045   0.95702   0.00000  Uiso   1.00
C858   C     0.22711   0.11326   0.97466   0.00000  Uiso   1.00
C859   C     0.28107   0.17356   0.74118   0.00000  Uiso   1.00
C860   C     0.21685   0.11677   0.51721   0.00000  Uiso   1.00
C861   C     0.18130   0.13941   0.53969   0.00000  Uiso   1.00
C862   C     0.23956   0.09874   0.53874   0.00000  Uiso   1.00
C863   C     0.23168   0.10908   0.58038   0.00000  Uiso   1.00
C864   C     0.17407   0.14856   0.58090   0.00000  Uiso   1.00
C865   C     0.32711   0.17617   0.73755   0.00000  Uiso   1.00
C866   C     0.00702   0.15771   0.76231   0.00000  Uiso   1.00
C867   C     0.08979   0.20126   0.92247   0.00000  Uiso   1.00
C868   C     0.18004   0.32238   0.73986   0.00000  Uiso   1.00
C869   C     0.14921   0.01291   0.76326   0.00000  Uiso   1.00
C870   C     0.15592   0.05639   0.75879   0.00000  Uiso   1.00
C871   C     0.17656   0.27775   0.74164   0.00000  Uiso   1.00
C872   C     0.18812   0.14536   0.64387   0.00000  Uiso   1.00
C873   C     0.14503   0.18764   0.85643   0.00000  Uiso   1.00
C874   C     0.13233   0.19315   0.90042   0.00000  Uiso   1.00
C875   C     0.19893   0.13448   0.60084   0.00000  Uiso   1.00
C876   C     0.07629   0.19903   0.96321   0.00000  Uiso   1.00
C877   C     0.10689   0.32981   0.79235   0.00000  Uiso   1.00
C878   C     0.16176   0.18587   0.92064   0.00000  Uiso   1.00
C879   C     0.07515   0.02889   0.81296   0.00000  Uiso   1.00
C880   C     0.03422   0.00902   0.84098   0.00000  Uiso   1.00
C881   C     0.25865   0.09358   0.60292   0.00000  Uiso   1.00
C882   C     0.30294   0.11966   0.59701   0.00000  Uiso   1.00
C883   C     0.32962   0.10579   0.62078   0.00000  Uiso   1.00
C884   C     0.26675   0.09536   0.94567   0.00000  Uiso   1.00
C885   C     0.30902   0.12229   0.94829   0.00000  Uiso   1.00
C886   C     0.01519   0.10233   0.92122   0.00000  Uiso   1.00
C887   C     0.21011   0.19977   0.90292   0.00000  Uiso   1.00
C888   C     0.22924   0.23104   0.93189   0.00000  Uiso   1.00
C889   C     0.14470   0.17441   0.96008   0.00000  Uiso   1.00
C890   C     0.27539   0.24873   0.91160   0.00000  Uiso   1.00
C891   C     0.10276   0.18476   0.98194   0.00000  Uiso   1.00
C892   C     0.16771   0.15390   0.97896   0.00000  Uiso   1.00
C893   C     0.15438   0.15401   0.52059   0.00000  Uiso   1.00
C894   C     0.11325   0.16676   0.54174   0.00000  Uiso   1.00
C895   C     0.08740   0.18056   0.52239   0.00000  Uiso   1.00
Cl896  Cl    0.27352   0.05885   0.51689   0.00000  Uiso   1.00
Cl897  Cl    0.22675   0.01098   0.70546   0.00000  Uiso   1.00
Cl898  Cl    0.05138   0.21357   0.90090   0.00000  Uiso   1.00
H899   H     0.05533   0.18838   0.53934   0.00000  Uiso   1.00
H900   H     0.01095   0.03237   0.85403   0.00000  Uiso   1.00
H901   H     0.09083   0.05419   0.83038   0.00000  Uiso   1.00
H902   H     0.06555   0.04250   0.79033   0.00000  Uiso   1.00
H903   H     0.08945   0.30516   0.77581   0.00000  Uiso   1.00
H904   H     0.11500   0.31658   0.81606   0.00000  Uiso   1.00
H905   H     0.31249   0.10950   0.65302   0.00000  Uiso   1.00
H906   H     0.00203   0.07277   0.61115   0.00000  Uiso   1.00
H907   H     0.02810   0.12514   0.61581   0.00000  Uiso   1.00
H908   H     0.32136   0.11684   0.56506   0.00000  Uiso   1.00
H909   H     0.29820   0.15290   0.60688   0.00000  Uiso   1.00
H910   H     0.01697   0.19309   0.71466   0.00000  Uiso   1.00
H911   H     0.24204   0.09489   0.63521   0.00000  Uiso   1.00
H912   H     0.26275   0.06022   0.59349   0.00000  Uiso   1.00
H913   H     0.01439   0.07014   0.92799   0.00000  Uiso   1.00
H914   H     0.01598   0.10183   0.88964   0.00000  Uiso   1.00
H915   H     0.04529   0.12041   0.92584   0.00000  Uiso   1.00
H916   H     0.30909   0.15333   0.93916   0.00000  Uiso   1.00
H917   H     0.31177   0.12731   0.97911   0.00000  Uiso   1.00
H918   H     0.26679   0.06231   0.94880   0.00000  Uiso   1.00
H919   H     0.26561   0.09421   0.91447   0.00000  Uiso   1.00
H920   H     0.29620   0.22319   0.89927   0.00000  Uiso   1.00
H921   H     0.31783   0.14075   0.78550   0.00000  Uiso   1.00
H922   H     0.27556   0.26650   0.88719   0.00000  Uiso   1.00
H923   H     0.28899   0.26994   0.93350   0.00000  Uiso   1.00
H924   H     0.20877   0.25703   0.94324   0.00000  Uiso   1.00
H925   H     0.23018   0.21593   0.95757   0.00000  Uiso   1.00
H926   H     0.22972   0.17342   0.89167   0.00000  Uiso   1.00
H927   H     0.21458   0.21604   0.87641   0.00000  Uiso   1.00
H928   H     0.15027   0.16881   0.59832   0.00000  Uiso   1.00
H929   H     0.04391   0.20621   0.97992   0.00000  Uiso   1.00
H930   H     0.09891   0.16370   0.57291   0.00000  Uiso   1.00
H931   H     0.20617   0.12354   0.92546   0.00000  Uiso   1.00
H932   H     0.01833   0.31625   0.82458   0.00000  Uiso   1.00
H933   H     0.04234   0.33055   0.86541   0.00000  Uiso   1.00
O934   O     0.16667   0.16667   0.75000   0.00000  Uiso   1.00
O935   O     0.15693   0.12393   0.66625   0.00000  Uiso   1.00
O936   O     0.12687   0.20646   0.83749   0.00000  Uiso   1.00
O937   O     0.21088   0.17493   0.65877   0.00000  Uiso   1.00
O938   O     0.17198   0.16135   0.83749   0.00000  Uiso   1.00
O939   O     0.17849   0.08101   0.77821   0.00000  Uiso   1.00
O940   O     0.14581   0.26136   0.76767   0.00000  Uiso   1.00
O941   O     0.07452   0.13251   0.73607   0.00000  Uiso   1.00
O942   O     0.26785   0.19179   0.71806   0.00000  Uiso   1.00
O943   O     0.06990   0.18960   0.77820   0.00000  Uiso   1.00
O944   O     0.25440   0.15277   0.76768   0.00000  Uiso   1.00
O945   O     0.13800   0.06903   0.73607   0.00000  Uiso   1.00
O946   O     0.20437   0.25527   0.71806   0.00000  Uiso   1.00
Zn947  Zn    0.19244   0.14090   0.78278   0.00000  Uiso   1.00
Zn948  Zn    0.13459   0.12378   0.72258   0.00000  Uiso   1.00
Zn949  Zn    0.21166   0.19664   0.71188   0.00000  Uiso   1.00
Zn950  Zn    0.12798   0.20535   0.78277   0.00000  Uiso   1.00
C951   C     0.38577   0.15993   0.75883   0.00000  Uiso   1.00
C952   C     0.53459   0.13045   0.95702   0.00000  Uiso   1.00
C953   C     0.56044   0.11326   0.97466   0.00000  Uiso   1.00
C954   C     0.61440   0.17356   0.74118   0.00000  Uiso   1.00
C955   C     0.55018   0.11677   0.51721   0.00000  Uiso   1.00
C956   C     0.51463   0.13941   0.53969   0.00000  Uiso   1.00
C957   C     0.57289   0.09874   0.53874   0.00000  Uiso   1.00
C958   C     0.56501   0.10908   0.58038   0.00000  Uiso   1.00
C959   C     0.50740   0.14856   0.58090   0.00000  Uiso   1.00
C960   C     0.66044   0.17617   0.73755   0.00000  Uiso   1.00
C961   C     0.34036   0.15771   0.76231   0.00000  Uiso   1.00
C962   C     0.42312   0.20126   0.92247   0.00000  Uiso   1.00
C963   C     0.51337   0.32238   0.73986   0.00000  Uiso   1.00
C964   C     0.48254   0.01291   0.76326   0.00000  Uiso   1.00
C965   C     0.48925   0.05639   0.75879   0.00000  Uiso   1.00
C966   C     0.50990   0.27775   0.74164   0.00000  Uiso   1.00
C967   C     0.52145   0.14536   0.64387   0.00000  Uiso   1.00
C968   C     0.47837   0.18764   0.85643   0.00000  Uiso   1.00
C969   C     0.46566   0.19315   0.90042   0.00000  Uiso   1.00
C970   C     0.53226   0.13448   0.60084   0.00000  Uiso   1.00
C971   C     0.40962   0.19903   0.96321   0.00000  Uiso   1.00
C972   C     0.44022   0.32981   0.79235   0.00000  Uiso   1.00
C973   C     0.49510   0.18587   0.92064   0.00000  Uiso   1.00
C974   C     0.40848   0.02889   0.81296   0.00000  Uiso   1.00
C975   C     0.36756   0.00902   0.84098   0.00000  Uiso   1.00
C976   C     0.59199   0.09358   0.60292   0.00000  Uiso   1.00
C977   C     0.63628   0.11966   0.59701   0.00000  Uiso   1.00
C978   C     0.66295   0.10579   0.62078   0.00000  Uiso   1.00
C979   C     0.60008   0.09536   0.94567   0.00000  Uiso   1.00
C980   C     0.64235   0.12229   0.94829   0.00000  Uiso   1.00
C981   C     0.34853   0.10233   0.92122   0.00000  Uiso   1.00
C982   C     0.54344   0.19977   0.90292   0.00000  Uiso   1.00
C983   C     0.56258   0.23104   0.93189   0.00000  Uiso   1.00
C984   C     0.47804   0.17441   0.96008   0.00000  Uiso   1.00
C985   C     0.60872   0.24873   0.91160   0.00000  Uiso   1.00
C986   C     0.43610   0.18476   0.98194   0.00000  Uiso   1.00
C987   C     0.50104   0.15390   0.97896   0.00000  Uiso   1.00
C988   C     0.48771   0.15401   0.52059   0.00000  Uiso   1.00
C989   C     0.44658   0.16676   0.54174   0.00000  Uiso   1.00
C990   C     0.42074   0.18056   0.52239   0.00000  Uiso   1.00
Cl991  Cl    0.60685   0.05885   0.51689   0.00000  Uiso   1.00
Cl992  Cl    0.56009   0.01098   0.70546   0.00000  Uiso   1.00
Cl993  Cl    0.38471   0.21357   0.90090   0.00000  Uiso   1.00
H994   H     0.38866   0.18838   0.53934   0.00000  Uiso   1.00
H995   H     0.34428   0.03237   0.85403   0.00000  Uiso   1.00
H996   H     0.42417   0.05419   0.83038   0.00000  Uiso   1.00
H997   H     0.39888   0.04250   0.79033   0.00000  Uiso   1.00
H998   H     0.42278   0.30516   0.77581   0.00000  Uiso   1.00
H999   H     0.44833   0.31658   0.81606   0.00000  Uiso   1.00
H1000  H     0.64582   0.10950   0.65302   0.00000  Uiso   1.00
H1001  H     0.33536   0.07277   0.61115   0.00000  Uiso   1.00
H1002  H     0.36143   0.12514   0.61581   0.00000  Uiso   1.00
H1003  H     0.65469   0.11684   0.56506   0.00000  Uiso   1.00
H1004  H     0.63153   0.15290   0.60688   0.00000  Uiso   1.00
H1005  H     0.35030   0.19309   0.71466   0.00000  Uiso   1.00
H1006  H     0.57538   0.09489   0.63521   0.00000  Uiso   1.00
H1007  H     0.59609   0.06022   0.59349   0.00000  Uiso   1.00
H1008  H     0.34773   0.07014   0.92799   0.00000  Uiso   1.00
H1009  H     0.34931   0.10183   0.88964   0.00000  Uiso   1.00
H1010  H     0.37862   0.12041   0.92584   0.00000  Uiso   1.00
H1011  H     0.64242   0.15333   0.93916   0.00000  Uiso   1.00
H1012  H     0.64510   0.12731   0.97911   0.00000  Uiso   1.00
H1013  H     0.60013   0.06231   0.94880   0.00000  Uiso   1.00
H1014  H     0.59895   0.09421   0.91447   0.00000  Uiso   1.00
H1015  H     0.62954   0.22319   0.89927   0.00000  Uiso   1.00
H1016  H     0.65117   0.14075   0.78550   0.00000  Uiso   1.00
H1017  H     0.60890   0.26650   0.88719   0.00000  Uiso   1.00
H1018  H     0.62232   0.26994   0.93350   0.00000  Uiso   1.00
H1019  H     0.54211   0.25703   0.94324   0.00000  Uiso   1.00
H1020  H     0.56351   0.21593   0.95757   0.00000  Uiso   1.00
H1021  H     0.56305   0.17342   0.89167   0.00000  Uiso   1.00
H1022  H     0.54792   0.21604   0.87641   0.00000  Uiso   1.00
H1023  H     0.48360   0.16881   0.59832   0.00000  Uiso   1.00
H1024  H     0.37724   0.20621   0.97992   0.00000  Uiso   1.00
H1025  H     0.43224   0.16370   0.57291   0.00000  Uiso   1.00
H1026  H     0.53950   0.12354   0.92546   0.00000  Uiso   1.00
H1027  H     0.35166   0.31625   0.82458   0.00000  Uiso   1.00
H1028  H     0.37567   0.33055   0.86541   0.00000  Uiso   1.00
O1029  O     0.50000   0.16667   0.75000   0.00000  Uiso   1.00
O1030  O     0.49027   0.12393   0.66625   0.00000  Uiso   1.00
O1031  O     0.46020   0.20646   0.83749   0.00000  Uiso   1.00
O1032  O     0.54421   0.17493   0.65877   0.00000  Uiso   1.00
O1033  O     0.50532   0.16135   0.83749   0.00000  Uiso   1.00
O1034  O     0.51182   0.08101   0.77821   0.00000  Uiso   1.00
O1035  O     0.47914   0.26136   0.76767   0.00000  Uiso   1.00
O1036  O     0.40785   0.13251   0.73607   0.00000  Uiso   1.00
O1037  O     0.60119   0.19179   0.71806   0.00000  Uiso   1.00
O1038  O     0.40323   0.18960   0.77820   0.00000  Uiso   1.00
O1039  O     0.58773   0.15277   0.76768   0.00000  Uiso   1.00
O1040  O     0.47133   0.06903   0.73607   0.00000  Uiso   1.00
O1041  O     0.53771   0.25527   0.71806   0.00000  Uiso   1.00
Zn1042 Zn    0.52577   0.14090   0.78278   0.00000  Uiso   1.00
Zn1043 Zn    0.46792   0.12378   0.72258   0.00000  Uiso   1.00
Zn1044 Zn    0.54500   0.19664   0.71188   0.00000  Uiso   1.00
Zn1045 Zn    0.46131   0.20535   0.78277   0.00000  Uiso   1.00
C1046  C     0.71910   0.15993   0.75883   0.00000  Uiso   1.00
C1047  C     0.86792   0.13045   0.95702   0.00000  Uiso   1.00
C1048  C     0.89378   0.11326   0.97466   0.00000  Uiso   1.00
C1049  C     0.94774   0.17356   0.74118   0.00000  Uiso   1.00
C1050  C     0.88351   0.11677   0.51721   0.00000  Uiso   1.00
C1051  C     0.84797   0.13941   0.53969   0.00000  Uiso   1.00
C1052  C     0.90622   0.09874   0.53874   0.00000  Uiso   1.00
C1053  C     0.89835   0.10908   0.58038   0.00000  Uiso   1.00
C1054  C     0.84074   0.14856   0.58090   0.00000  Uiso   1.00
C1055  C     0.99378   0.17617   0.73755   0.00000  Uiso   1.00
C1056  C     0.67369   0.15771   0.76231   0.00000  Uiso   1.00
C1057  C     0.75646   0.20126   0.92247   0.00000  Uiso   1.00
C1058  C     0.84671   0.32238   0.73986   0.00000  Uiso   1.00
C1059  C     0.81587   0.01291   0.76326   0.00000  Uiso   1.00
C1060  C     0.82259   0.05639   0.75879   0.00000  Uiso   1.00
C1061  C     0.84323   0.27775   0.74164   0.00000  Uiso   1.00
C1062  C     0.85479   0.14536   0.64387   0.00000  Uiso   1.00
C1063  C     0.81170   0.18764   0.85643   0.00000  Uiso   1.00
C1064  C     0.79899   0.19315   0.90042   0.00000  Uiso   1.00
C1065  C     0.86559   0.13448   0.60084   0.00000  Uiso   1.00
C1066  C     0.74295   0.19903   0.96321   0.00000  Uiso   1.00
C1067  C     0.77356   0.32981   0.79235   0.00000  Uiso   1.00
C1068  C     0.82843   0.18587   0.92064   0.00000  Uiso   1.00
C1069  C     0.74182   0.02889   0.81296   0.00000  Uiso   1.00
C1070  C     0.70089   0.00902   0.84098   0.00000  Uiso   1.00
C1071  C     0.92532   0.09358   0.60292   0.00000  Uiso   1.00
C1072  C     0.96961   0.11966   0.59701   0.00000  Uiso   1.00
C1073  C     0.99628   0.10579   0.62078   0.00000  Uiso   1.00
C1074  C     0.93342   0.09536   0.94567   0.00000  Uiso   1.00
C1075  C     0.97569   0.12229   0.94829   0.00000  Uiso   1.00
C1076  C     0.68186   0.10233   0.92122   0.00000  Uiso   1.00
C1077  C     0.87678   0.19977   0.90292   0.00000  Uiso   1.00
C1078  C     0.89591   0.23104   0.93189   0.00000  Uiso   1.00
C1079  C     0.81137   0.17441   0.96008   0.00000  Uiso   1.00
C1080  C     0.94205   0.24873   0.91160   0.00000  Uiso   1.00
C1081  C     0.76943   0.18476   0.98194   0.00000  Uiso   1.00
C1082  C     0.83438   0.15390   0.97896   0.00000  Uiso   1.00
C1083  C     0.82104   0.15401   0.52059   0.00000  Uiso   1.00
C1084  C     0.77992   0.16676   0.54174   0.00000  Uiso   1.00
C1085  C     0.75407   0.18056   0.52239   0.00000  Uiso   1.00
Cl1086 Cl    0.94018   0.05885   0.51689   0.00000  Uiso   1.00
Cl1087 Cl    0.89342   0.01098   0.70546   0.00000  Uiso   1.00
Cl1088 Cl    0.71804   0.21357   0.90090   0.00000  Uiso   1.00
H1089  H     0.72199   0.18838   0.53934   0.00000  Uiso   1.00
H1090  H     0.67761   0.03237   0.85403   0.00000  Uiso   1.00
H1091  H     0.75750   0.05419   0.83038   0.00000  Uiso   1.00
H1092  H     0.73221   0.04250   0.79033   0.00000  Uiso   1.00
H1093  H     0.75611   0.30516   0.77581   0.00000  Uiso   1.00
H1094  H     0.78166   0.31658   0.81606   0.00000  Uiso   1.00
H1095  H     0.97916   0.10950   0.65302   0.00000  Uiso   1.00
H1096  H     0.66870   0.07277   0.61115   0.00000  Uiso   1.00
H1097  H     0.69476   0.12514   0.61581   0.00000  Uiso   1.00
H1098  H     0.98802   0.11684   0.56506   0.00000  Uiso   1.00
H1099  H     0.96487   0.15290   0.60688   0.00000  Uiso   1.00
H1100  H     0.68364   0.19309   0.71466   0.00000  Uiso   1.00
H1101  H     0.90871   0.09489   0.63521   0.00000  Uiso   1.00
H1102  H     0.92942   0.06022   0.59349   0.00000  Uiso   1.00
H1103  H     0.68106   0.07014   0.92799   0.00000  Uiso   1.00
H1104  H     0.68265   0.10183   0.88964   0.00000  Uiso   1.00
H1105  H     0.71195   0.12041   0.92584   0.00000  Uiso   1.00
H1106  H     0.97576   0.15333   0.93916   0.00000  Uiso   1.00
H1107  H     0.97843   0.12731   0.97911   0.00000  Uiso   1.00
H1108  H     0.93346   0.06231   0.94880   0.00000  Uiso   1.00
H1109  H     0.93228   0.09421   0.91447   0.00000  Uiso   1.00
H1110  H     0.96287   0.22319   0.89927   0.00000  Uiso   1.00
H1111  H     0.98450   0.14075   0.78550   0.00000  Uiso   1.00
H1112  H     0.94223   0.26650   0.88719   0.00000  Uiso   1.00
H1113  H     0.95566   0.26994   0.93350   0.00000  Uiso   1.00
H1114  H     0.87544   0.25703   0.94324   0.00000  Uiso   1.00
H1115  H     0.89685   0.21593   0.95757   0.00000  Uiso   1.00
H1116  H     0.89639   0.17342   0.89167   0.00000  Uiso   1.00
H1117  H     0.88125   0.21604   0.87641   0.00000  Uiso   1.00
H1118  H     0.81694   0.16881   0.59832   0.00000  Uiso   1.00
H1119  H     0.71058   0.20621   0.97992   0.00000  Uiso   1.00
H1120  H     0.76557   0.16370   0.57291   0.00000  Uiso   1.00
H1121  H     0.87283   0.12354   0.92546   0.00000  Uiso   1.00
H1122  H     0.68500   0.31625   0.82458   0.00000  Uiso   1.00
H1123  H     0.70901   0.33055   0.86541   0.00000  Uiso   1.00
O1124  O     0.83333   0.16667   0.75000   0.00000  Uiso   1.00
O1125  O     0.82360   0.12393   0.66625   0.00000  Uiso   1.00
O1126  O     0.79354   0.20646   0.83749   0.00000  Uiso   1.00
O1127  O     0.87755   0.17493   0.65877   0.00000  Uiso   1.00
O1128  O     0.83865   0.16135   0.83749   0.00000  Uiso   1.00
O1129  O     0.84515   0.08101   0.77821   0.00000  Uiso   1.00
O1130  O     0.81247   0.26136   0.76767   0.00000  Uiso   1.00
O1131  O     0.74119   0.13251   0.73607   0.00000  Uiso   1.00
O1132  O     0.93452   0.19179   0.71806   0.00000  Uiso   1.00
O1133  O     0.73656   0.18960   0.77820   0.00000  Uiso   1.00
O1134  O     0.92106   0.15277   0.76768   0.00000  Uiso   1.00
O1135  O     0.80467   0.06903   0.73607   0.00000  Uiso   1.00
O1136  O     0.87104   0.25527   0.71806   0.00000  Uiso   1.00
Zn1137 Zn    0.85910   0.14090   0.78278   0.00000  Uiso   1.00
Zn1138 Zn    0.80125   0.12378   0.72258   0.00000  Uiso   1.00
Zn1139 Zn    0.87833   0.19664   0.71188   0.00000  Uiso   1.00
Zn1140 Zn    0.79465   0.20535   0.78277   0.00000  Uiso   1.00
C1141  C     0.05243   0.49327   0.75883   0.00000  Uiso   1.00
C1142  C     0.20125   0.46378   0.95702   0.00000  Uiso   1.00
C1143  C     0.22711   0.44660   0.97466   0.00000  Uiso   1.00
C1144  C     0.28107   0.50689   0.74118   0.00000  Uiso   1.00
C1145  C     0.21685   0.45010   0.51721   0.00000  Uiso   1.00
C1146  C     0.18130   0.47274   0.53969   0.00000  Uiso   1.00
C1147  C     0.23956   0.43207   0.53874   0.00000  Uiso   1.00
C1148  C     0.23168   0.44242   0.58038   0.00000  Uiso   1.00
C1149  C     0.17407   0.48189   0.58090   0.00000  Uiso   1.00
C1150  C     0.32711   0.50950   0.73755   0.00000  Uiso   1.00
C1151  C     0.00702   0.49104   0.76231   0.00000  Uiso   1.00
C1152  C     0.08979   0.53459   0.92247   0.00000  Uiso   1.00
C1153  C     0.18004   0.65571   0.73986   0.00000  Uiso   1.00
C1154  C     0.14921   0.34624   0.76326   0.00000  Uiso   1.00
C1155  C     0.15592   0.38972   0.75879   0.00000  Uiso   1.00
C1156  C     0.17656   0.61108   0.74164   0.00000  Uiso   1.00
C1157  C     0.18812   0.47869   0.64387   0.00000  Uiso   1.00
C1158  C     0.14503   0.52098   0.85643   0.00000  Uiso   1.00
C1159  C     0.13233   0.52648   0.90042   0.00000  Uiso   1.00
C1160  C     0.19893   0.46782   0.60084   0.00000  Uiso   1.00
C1161  C     0.07629   0.53236   0.96321   0.00000  Uiso   1.00
C1162  C     0.10689   0.66314   0.79235   0.00000  Uiso   1.00
C1163  C     0.16176   0.51921   0.92064   0.00000  Uiso   1.00
C1164  C     0.07515   0.36222   0.81296   0.00000  Uiso   1.00
C1165  C     0.03422   0.34235   0.84098   0.00000  Uiso   1.00
C1166  C     0.25865   0.42691   0.60292   0.00000  Uiso   1.00
C1167  C     0.30294   0.45299   0.59701   0.00000  Uiso   1.00
C1168  C     0.32962   0.43912   0.62078   0.00000  Uiso   1.00
C1169  C     0.26675   0.42869   0.94567   0.00000  Uiso   1.00
C1170  C     0.30902   0.45563   0.94829   0.00000  Uiso   1.00
C1171  C     0.01519   0.43566   0.92122   0.00000  Uiso   1.00
C1172  C     0.21011   0.53311   0.90292   0.00000  Uiso   1.00
C1173  C     0.22924   0.56437   0.93189   0.00000  Uiso   1.00
C1174  C     0.14470   0.50774   0.96008   0.00000  Uiso   1.00
C1175  C     0.27539   0.58206   0.91160   0.00000  Uiso   1.00
C1176  C     0.10276   0.51809   0.98194   0.00000  Uiso   1.00
C1177  C     0.16771   0.48723   0.97896   0.00000  Uiso   1.00
C1178  C     0.15438   0.48735   0.52059   0.00000  Uiso   1.00
C1179  C     0.11325   0.50010   0.54174   0.00000  Uiso   1.00
C1180  C     0.08740   0.51389   0.52239   0.00000  Uiso   1.00
Cl1181 Cl    0.27352   0.39219   0.51689   0.00000  Uiso   1.00
Cl1182 Cl    0.22675   0.34431   0.70546   0.00000  Uiso   1.00
Cl1183 Cl    0.05138   0.54690   0.90090   0.00000  Uiso   1.00
H1184  H     0.05533   0.52172   0.53934   0.00000  Uiso   1.00
H1185  H     0.01095   0.36570   0.85403   0.00000  Uiso   1.00
H1186  H     0.09083   0.38753   0.83038   0.00000  Uiso   1.00
H1187  H     0.06555   0.37584   0.79033   0.00000  Uiso   1.00
H1188  H     0.08945   0.63850   0.77581   0.00000  Uiso   1.00
H1189  H     0.11500   0.64992   0.81606   0.00000  Uiso   1.00
H1190  H     0.31249   0.44283   0.65302   0.00000  Uiso   1.00
H1191  H     0.00203   0.40610   0.61115   0.00000  Uiso   1.00
H1192  H     0.02810   0.45848   0.61581   0.00000  Uiso   1.00
H1193  H     0.32136   0.45017   0.56506   0.00000  Uiso   1.00
H1194  H     0.29820   0.48623   0.60688   0.00000  Uiso   1.00
H1195  H     0.01697   0.52643   0.71466   0.00000  Uiso   1.00
H1196  H     0.24204   0.42822   0.63521   0.00000  Uiso   1.00
H1197  H     0.26275   0.39356   0.59349   0.00000  Uiso   1.00
H1198  H     0.01439   0.40347   0.92799   0.00000  Uiso   1.00
H1199  H     0.01598   0.43517   0.88964   0.00000  Uiso   1.00
H1200  H     0.04529   0.45375   0.92584   0.00000  Uiso   1.00
H1201  H     0.30909   0.48666   0.93916   0.00000  Uiso   1.00
H1202  H     0.31177   0.46064   0.97911   0.00000  Uiso   1.00
H1203  H     0.26679   0.39564   0.94880   0.00000  Uiso   1.00
H1204  H     0.26561   0.42755   0.91447   0.00000  Uiso   1.00
H1205  H     0.29620   0.55652   0.89927   0.00000  Uiso   1.00
H1206  H     0.31783   0.47408   0.78550   0.00000  Uiso   1.00
H1207  H     0.27556   0.59983   0.88719   0.00000  Uiso   1.00
H1208  H     0.28899   0.60328   0.93350   0.00000  Uiso   1.00
H1209  H     0.20877   0.59036   0.94324   0.00000  Uiso   1.00
H1210  H     0.23018   0.54926   0.95757   0.00000  Uiso   1.00
H1211  H     0.22972   0.50675   0.89167   0.00000  Uiso   1.00
H1212  H     0.21458   0.54937   0.87641   0.00000  Uiso   1.00
H1213  H     0.15027   0.50215   0.59832   0.00000  Uiso   1.00
H1214  H     0.04391   0.53955   0.97992   0.00000  Uiso   1.00
H1215  H     0.09891   0.49703   0.57291   0.00000  Uiso   1.00
H1216  H     0.20617   0.45687   0.92546   0.00000  Uiso   1.00
H1217  H     0.01833   0.64959   0.82458   0.00000  Uiso   1.00
H1218  H     0.04234   0.66389   0.86541   0.00000  Uiso   1.00
O1219  O     0.16667   0.50000   0.75000   0.00000  Uiso   1.00
O1220  O     0.15693   0.45726   0.66625   0.00000  Uiso   1.00
O1221  O     0.12687   0.53979   0.83749   0.00000  Uiso   1.00
O1222  O     0.21088   0.50826   0.65877   0.00000  Uiso   1.00
O1223  O     0.17198   0.49468   0.83749   0.00000  Uiso   1.00
O1224  O     0.17849   0.41434   0.77821   0.00000  Uiso   1.00
O1225  O     0.14581   0.59469   0.76767   0.00000  Uiso   1.00
O1226  O     0.07452   0.46584   0.73607   0.00000  Uiso   1.00
O1227  O     0.26785   0.52512   0.71806   0.00000  Uiso   1.00
O1228  O     0.06990   0.52293   0.77820   0.00000  Uiso   1.00
O1229  O     0.25440   0.48610   0.76768   0.00000  Uiso   1.00
O1230  O     0.13800   0.40236   0.73607   0.00000  Uiso   1.00
O1231  O     0.20437   0.58860   0.71806   0.00000  Uiso   1.00
Zn1232 Zn    0.19244   0.47423   0.78278   0.00000  Uiso   1.00
Zn1233 Zn    0.13459   0.45711   0.72258   0.00000  Uiso   1.00
Zn1234 Zn    0.21166   0.52997   0.71188   0.00000  Uiso   1.00
Zn1235 Zn    0.12798   0.53868   0.78277   0.00000  Uiso   1.00
C1236  C     0.38577   0.49327   0.75883   0.00000  Uiso   1.00
C1237  C     0.53459   0.46378   0.95702   0.00000  Uiso   1.00
C1238  C     0.56044   0.44660   0.97466   0.00000  Uiso   1.00
C1239  C     0.61440   0.50689   0.74118   0.00000  Uiso   1.00
C1240  C     0.55018   0.45010   0.51721   0.00000  Uiso   1.00
C1241  C     0.51463   0.47274   0.53969   0.00000  Uiso   1.00
C1242  C     0.57289   0.43207   0.53874   0.00000  Uiso   1.00
C1243  C     0.56501   0.44242   0.58038   0.00000  Uiso   1.00
C1244  C     0.50740   0.48189   0.58090   0.00000  Uiso   1.00
C1245  C     0.66044   0.50950   0.73755   0.00000  Uiso   1.00
C1246  C     0.34036   0.49104   0.76231   0.00000  Uiso   1.00
C1247  C     0.42312   0.53459   0.92247   0.00000  Uiso   1.00
C1248  C     0.51337   0.65571   0.73986   0.00000  Uiso   1.00
C1249  C     0.48254   0.34624   0.76326   0.00000  Uiso   1.00
C1250  C     0.48925   0.38972   0.75879   0.00000  Uiso   1.00
C1251  C     0.50990   0.61108   0.74164   0.00000  Uiso   1.00
C1252  C     0.52145   0.47869   0.64387   0.00000  Uiso   1.00
C1253  C     0.47837   0.52098   0.85643   0.00000  Uiso   1.00
C1254  C     0.46566   0.52648   0.90042   0.00000  Uiso   1.00
C1255  C     0.53226   0.46782   0.60084   0.00000  Uiso   1.00
C1256  C     0.40962   0.53236   0.96321   0.00000  Uiso   1.00
C1257  C     0.44022   0.66314   0.79235   0.00000  Uiso   1.00
C1258  C     0.49510   0.51921   0.92064   0.00000  Uiso   1.00
C1259  C     0.40848   0.36222   0.81296   0.00000  Uiso   1.00
C1260  C     0.36756   0.34235   0.84098   0.00000  Uiso   1.00
C1261  C     0.59199   0.42691   0.60292   0.00000  Uiso   1.00
C1262  C     0.63628   0.45299   0.59701   0.00000  Uiso   1.00
C1263  C     0.66295   0.43912   0.62078   0.00000  Uiso   1.00
C1264  C     0.60008   0.42869   0.94567   0.00000  Uiso   1.00
C1265  C     0.64235   0.45563   0.94829   0.00000  Uiso   1.00
C1266  C     0.34853   0.43566   0.92122   0.00000  Uiso   1.00
C1267  C     0.54344   0.53311   0.90292   0.00000  Uiso   1.00
C1268  C     0.56258   0.56437   0.93189   0.00000  Uiso   1.00
C1269  C     0.47804   0.50774   0.96008   0.00000  Uiso   1.00
C1270  C     0.60872   0.58206   0.91160   0.00000  Uiso   1.00
C1271  C     0.43610   0.51809   0.98194   0.00000  Uiso   1.00
C1272  C     0.50104   0.48723   0.97896   0.00000  Uiso   1.00
C1273  C     0.48771   0.48735   0.52059   0.00000  Uiso   1.00
C1274  C     0.44658   0.50010   0.54174   0.00000  Uiso   1.00
C1275  C     0.42074   0.51389   0.52239   0.00000  Uiso   1.00
Cl1276 Cl    0.60685   0.39219   0.51689   0.00000  Uiso   1.00
Cl1277 Cl    0.56009   0.34431   0.70546   0.00000  Uiso   1.00
Cl1278 Cl    0.38471   0.54690   0.90090   0.00000  Uiso   1.00
H1279  H     0.38866   0.52172   0.53934   0.00000  Uiso   1.00
H1280  H     0.34428   0.36570   0.85403   0.00000  Uiso   1.00
H1281  H     0.42417   0.38753   0.83038   0.00000  Uiso   1.00
H1282  H     0.39888   0.37584   0.79033   0.00000  Uiso   1.00
H1283  H     0.42278   0.63850   0.77581   0.00000  Uiso   1.00
H1284  H     0.44833   0.64992   0.81606   0.00000  Uiso   1.00
H1285  H     0.64582   0.44283   0.65302   0.00000  Uiso   1.00
H1286  H     0.33536   0.40610   0.61115   0.00000  Uiso   1.00
H1287  H     0.36143   0.45848   0.61581   0.00000  Uiso   1.00
H1288  H     0.65469   0.45017   0.56506   0.00000  Uiso   1.00
H1289  H     0.63153   0.48623   0.60688   0.00000  Uiso   1.00
H1290  H     0.35030   0.52643   0.71466   0.00000  Uiso   1.00
H1291  H     0.57538   0.42822   0.63521   0.00000  Uiso   1.00
H1292  H     0.59609   0.39356   0.59349   0.00000  Uiso   1.00
H1293  H     0.34773   0.40347   0.92799   0.00000  Uiso   1.00
H1294  H     0.34931   0.43517   0.88964   0.00000  Uiso   1.00
H1295  H     0.37862   0.45375   0.92584   0.00000  Uiso   1.00
H1296  H     0.64242   0.48666   0.93916   0.00000  Uiso   1.00
H1297  H     0.64510   0.46064   0.97911   0.00000  Uiso   1.00
H1298  H     0.60013   0.39564   0.94880   0.00000  Uiso   1.00
H1299  H     0.59895   0.42755   0.91447   0.00000  Uiso   1.00
H1300  H     0.62954   0.55652   0.89927   0.00000  Uiso   1.00
H1301  H     0.65117   0.47408   0.78550   0.00000  Uiso   1.00
H1302  H     0.60890   0.59983   0.88719   0.00000  Uiso   1.00
H1303  H     0.62232   0.60328   0.93350   0.00000  Uiso   1.00
H1304  H     0.54211   0.59036   0.94324   0.00000  Uiso   1.00
H1305  H     0.56351   0.54926   0.95757   0.00000  Uiso   1.00
H1306  H     0.56305   0.50675   0.89167   0.00000  Uiso   1.00
H1307  H     0.54792   0.54937   0.87641   0.00000  Uiso   1.00
H1308  H     0.48360   0.50215   0.59832   0.00000  Uiso   1.00
H1309  H     0.37724   0.53955   0.97992   0.00000  Uiso   1.00
H1310  H     0.43224   0.49703   0.57291   0.00000  Uiso   1.00
H1311  H     0.53950   0.45687   0.92546   0.00000  Uiso   1.00
H1312  H     0.35166   0.64959   0.82458   0.00000  Uiso   1.00
H1313  H     0.37567   0.66389   0.86541   0.00000  Uiso   1.00
O1314  O     0.50000   0.50000   0.75000   0.00000  Uiso   1.00
O1315  O     0.49027   0.45726   0.66625   0.00000  Uiso   1.00
O1316  O     0.46020   0.53979   0.83749   0.00000  Uiso   1.00
O1317  O     0.54421   0.50826   0.65877   0.00000  Uiso   1.00
O1318  O     0.50532   0.49468   0.83749   0.00000  Uiso   1.00
O1319  O     0.51182   0.41434   0.77821   0.00000  Uiso   1.00
O1320  O     0.47914   0.59469   0.76767   0.00000  Uiso   1.00
O1321  O     0.40785   0.46584   0.73607   0.00000  Uiso   1.00
O1322  O     0.60119   0.52512   0.71806   0.00000  Uiso   1.00
O1323  O     0.40323   0.52293   0.77820   0.00000  Uiso   1.00
O1324  O     0.58773   0.48610   0.76768   0.00000  Uiso   1.00
O1325  O     0.47133   0.40236   0.73607   0.00000  Uiso   1.00
O1326  O     0.53771   0.58860   0.71806   0.00000  Uiso   1.00
Zn1327 Zn    0.52577   0.47423   0.78278   0.00000  Uiso   1.00
Zn1328 Zn    0.46792   0.45711   0.72258   0.00000  Uiso   1.00
Zn1329 Zn    0.54500   0.52997   0.71188   0.00000  Uiso   1.00
Zn1330 Zn    0.46131   0.53868   0.78277   0.00000  Uiso   1.00
C1331  C     0.71910   0.49327   0.75883   0.00000  Uiso   1.00
C1332  C     0.86792   0.46378   0.95702   0.00000  Uiso   1.00
C1333  C     0.89378   0.44660   0.97466   0.00000  Uiso   1.00
C1334  C     0.94774   0.50689   0.74118   0.00000  Uiso   1.00
C1335  C     0.88351   0.45010   0.51721   0.00000  Uiso   1.00
C1336  C     0.84797   0.47274   0.53969   0.00000  Uiso   1.00
C1337  C     0.90622   0.43207   0.53874   0.00000  Uiso   1.00
C1338  C     0.89835   0.44242   0.58038   0.00000  Uiso   1.00
C1339  C     0.84074   0.48189   0.58090   0.00000  Uiso   1.00
C1340  C     0.99378   0.50950   0.73755   0.00000  Uiso   1.00
C1341  C     0.67369   0.49104   0.76231   0.00000  Uiso   1.00
C1342  C     0.75646   0.53459   0.92247   0.00000  Uiso   1.00
C1343  C     0.84671   0.65571   0.73986   0.00000  Uiso   1.00
C1344  C     0.81587   0.34624   0.76326   0.00000  Uiso   1.00
C1345  C     0.82259   0.38972   0.75879   0.00000  Uiso   1.00
C1346  C     0.84323   0.61108   0.74164   0.00000  Uiso   1.00
C1347  C     0.85479   0.47869   0.64387   0.00000  Uiso   1.00
C1348  C     0.81170   0.52098   0.85643   0.00000  Uiso   1.00
C1349  C     0.79899   0.52648   0.90042   0.00000  Uiso   1.00
C1350  C     0.86559   0.46782   0.60084   0.00000  Uiso   1.00
C1351  C     0.74295   0.53236   0.96321   0.00000  Uiso   1.00
C1352  C     0.77356   0.66314   0.79235   0.00000  Uiso   1.00
C1353  C     0.82843   0.51921   0.92064   0.00000  Uiso   1.00
C1354  C     0.74182   0.36222   0.81296   0.00000  Uiso   1.00
C1355  C     0.70089   0.34235   0.84098   0.00000  Uiso   1.00
C1356  C     0.92532   0.42691   0.60292   0.00000  Uiso   1.00
C1357  C     0.96961   0.45299   0.59701   0.00000  Uiso   1.00
C1358  C     0.99628   0.43912   0.62078   0.00000  Uiso   1.00
C1359  C     0.93342   0.42869   0.94567   0.00000  Uiso   1.00
C1360  C     0.97569   0.45563   0.94829   0.00000  Uiso   1.00
C1361  C     0.68186   0.43566   0.92122   0.00000  Uiso   1.00
C1362  C     0.87678   0.53311   0.90292   0.00000  Uiso   1.00
C1363  C     0.89591   0.56437   0.93189   0.00000  Uiso   1.00
C1364  C     0.81137   0.50774   0.96008   0.00000  Uiso   1.00
C1365  C     0.94205   0.58206   0.91160   0.00000  Uiso   1.00
C1366  C     0.76943   0.51809   0.98194   0.00000  Uiso   1.00
C1367  C     0.83438   0.48723   0.97896   0.00000  Uiso   1.00
C1368  C     0.82104   0.48735   0.52059   0.00000  Uiso   1.00
C1369  C     0.77992   0.50010   0.54174   0.00000  Uiso   1.00
C1370  C     0.75407   0.51389   0.52239   0.00000  Uiso   1.00
Cl1371 Cl    0.94018   0.39219   0.51689   0.00000  Uiso   1.00
Cl1372 Cl    0.89342   0.34431   0.70546   0.00000  Uiso   1.00
Cl1373 Cl    0.71804   0.54690   0.90090   0.00000  Uiso   1.00
H1374  H     0.72199   0.52172   0.53934   0.00000  Uiso   1.00
H1375  H     0.67761   0.36570   0.85403   0.00000  Uiso   1.00
H1376  H     0.75750   0.38753   0.83038   0.00000  Uiso   1.00
H1377  H     0.73221   0.37584   0.79033   0.00000  Uiso   1.00
H1378  H     0.75611   0.63850   0.77581   0.00000  Uiso   1.00
H1379  H     0.78166   0.64992   0.81606   0.00000  Uiso   1.00
H1380  H     0.97916   0.44283   0.65302   0.00000  Uiso   1.00
H1381  H     0.66870   0.40610   0.61115   0.00000  Uiso   1.00
H1382  H     0.69476   0.45848   0.61581   0.00000  Uiso   1.00
H1383  H     0.98802   0.45017   0.56506   0.00000  Uiso   1.00
H1384  H     0.96487   0.48623   0.60688   0.00000  Uiso   1.00
H1385  H     0.68364   0.52643   0.71466   0.00000  Uiso   1.00
H1386  H     0.90871   0.42822   0.63521   0.00000  Uiso   1.00
H1387  H     0.92942   0.39356   0.59349   0.00000  Uiso   1.00
H1388  H     0.68106   0.40347   0.92799   0.00000  Uiso   1.00
H1389  H     0.68265   0.43517   0.88964   0.00000  Uiso   1.00
H1390  H     0.71195   0.45375   0.92584   0.00000  Uiso   1.00
H1391  H     0.97576   0.48666   0.93916   0.00000  Uiso   1.00
H1392  H     0.97843   0.46064   0.97911   0.00000  Uiso   1.00
H1393  H     0.93346   0.39564   0.94880   0.00000  Uiso   1.00
H1394  H     0.93228   0.42755   0.91447   0.00000  Uiso   1.00
H1395  H     0.96287   0.55652   0.89927   0.00000  Uiso   1.00
H1396  H     0.98450   0.47408   0.78550   0.00000  Uiso   1.00
H1397  H     0.94223   0.59983   0.88719   0.00000  Uiso   1.00
H1398  H     0.95566   0.60328   0.93350   0.00000  Uiso   1.00
H1399  H     0.87544   0.59036   0.94324   0.00000  Uiso   1.00
H1400  H     0.89685   0.54926   0.95757   0.00000  Uiso   1.00
H1401  H     0.89639   0.50675   0.89167   0.00000  Uiso   1.00
H1402  H     0.88125   0.54937   0.87641   0.00000  Uiso   1.00
H1403  H     0.81694   0.50215   0.59832   0.00000  Uiso   1.00
H1404  H     0.71058   0.53955   0.97992   0.00000  Uiso   1.00
H1405  H     0.76557   0.49703   0.57291   0.00000  Uiso   1.00
H1406  H     0.87283   0.45687   0.92546   0.00000  Uiso   1.00
H1407  H     0.68500   0.64959   0.82458   0.00000  Uiso   1.00
H1408  H     0.70901   0.66389   0.86541   0.00000  Uiso   1.00
O1409  O     0.83333   0.50000   0.75000   0.00000  Uiso   1.00
O1410  O     0.82360   0.45726   0.66625   0.00000  Uiso   1.00
O1411  O     0.79354   0.53979   0.83749   0.00000  Uiso   1.00
O1412  O     0.87755   0.50826   0.65877   0.00000  Uiso   1.00
O1413  O     0.83865   0.49468   0.83749   0.00000  Uiso   1.00
O1414  O     0.84515   0.41434   0.77821   0.00000  Uiso   1.00
O1415  O     0.81247   0.59469   0.76767   0.00000  Uiso   1.00
O1416  O     0.74119   0.46584   0.73607   0.00000  Uiso   1.00
O1417  O     0.93452   0.52512   0.71806   0.00000  Uiso   1.00
O1418  O     0.73656   0.52293   0.77820   0.00000  Uiso   1.00
O1419  O     0.92106   0.48610   0.76768   0.00000  Uiso   1.00
O1420  O     0.80467   0.40236   0.73607   0.00000  Uiso   1.00
O1421  O     0.87104   0.58860   0.71806   0.00000  Uiso   1.00
Zn1422 Zn    0.85910   0.47423   0.78278   0.00000  Uiso   1.00
Zn1423 Zn    0.80125   0.45711   0.72258   0.00000  Uiso   1.00
Zn1424 Zn    0.87833   0.52997   0.71188   0.00000  Uiso   1.00
Zn1425 Zn    0.79465   0.53868   0.78277   0.00000  Uiso   1.00
C1426  C     0.05243   0.82660   0.75883   0.00000  Uiso   1.00
C1427  C     0.20125   0.79711   0.95702   0.00000  Uiso   1.00
C1428  C     0.22711   0.77993   0.97466   0.00000  Uiso   1.00
C1429  C     0.28107   0.84023   0.74118   0.00000  Uiso   1.00
C1430  C     0.21685   0.78343   0.51721   0.00000  Uiso   1.00
C1431  C     0.18130   0.80607   0.53969   0.00000  Uiso   1.00
C1432  C     0.23956   0.76541   0.53874   0.00000  Uiso   1.00
C1433  C     0.23168   0.77575   0.58038   0.00000  Uiso   1.00
C1434  C     0.17407   0.81523   0.58090   0.00000  Uiso   1.00
C1435  C     0.32711   0.84284   0.73755   0.00000  Uiso   1.00
C1436  C     0.00702   0.82437   0.76231   0.00000  Uiso   1.00
C1437  C     0.08979   0.86793   0.92247   0.00000  Uiso   1.00
C1438  C     0.18004   0.98905   0.73986   0.00000  Uiso   1.00
C1439  C     0.14921   0.67958   0.76326   0.00000  Uiso   1.00
C1440  C     0.15592   0.72306   0.75879   0.00000  Uiso   1.00
C1441  C     0.17656   0.94442   0.74164   0.00000  Uiso   1.00
C1442  C     0.18812   0.81203   0.64387   0.00000  Uiso   1.00
C1443  C     0.14503   0.85431   0.85643   0.00000  Uiso   1.00
C1444  C     0.13233   0.85981   0.90042   0.00000  Uiso   1.00
C1445  C     0.19893   0.80115   0.60084   0.00000  Uiso   1.00
C1446  C     0.07629   0.86569   0.96321   0.00000  Uiso   1.00
C1447  C     0.10689   0.99648   0.79235   0.00000  Uiso   1.00
C1448  C     0.16176   0.85254   0.92064   0.00000  Uiso   1.00
C1449  C     0.07515   0.69556   0.81296   0.00000  Uiso   1.00
C1450  C     0.03422   0.67568   0.84098   0.00000  Uiso   1.00
C1451  C     0.25865   0.76025   0.60292   0.00000  Uiso   1.00
C1452  C     0.30294   0.78632   0.59701   0.00000  Uiso   1.00
C1453  C     0.32962   0.77246   0.62078   0.00000  Uiso   1.00
C1454  C     0.26675   0.76202   0.94567   0.00000  Uiso   1.00
C1455  C     0.30902   0.78896   0.94829   0.00000  Uiso   1.00
C1456  C     0.01519   0.76899   0.92122   0.00000  Uiso   1.00
C1457  C     0.21011   0.86644   0.90292   0.00000  Uiso   1.00
C1458  C     0.22924   0.89770   0.93189   0.00000  Uiso   1.00
C1459  C     0.14470   0.84107   0.96008   0.00000  Uiso   1.00
C1460  C     0.27539   0.91539   0.91160   0.00000  Uiso   1.00
C1461  C     0.10276   0.85142   0.98194   0.00000  Uiso   1.00
C1462  C     0.16771   0.82056   0.97896   0.00000  Uiso   1.00
C1463  C     0.15438   0.82068   0.52059   0.00000  Uiso   1.00
C1464  C     0.11325   0.83343   0.54174   0.00000  Uiso   1.00
C1465  C     0.08740   0.84722   0.52239   0.00000  Uiso   1.00
Cl1466 Cl    0.27352   0.72552   0.51689   0.00000  Uiso   1.00
Cl1467 Cl    0.22675   0.67764   0.70546   0.00000  Uiso   1.00
Cl1468 Cl    0.05138   0.88024   0.90090   0.00000  Uiso   1.00
H1469  H     0.05533   0.85505   0.53934   0.00000  Uiso   1.00
H1470  H     0.01095   0.69904   0.85403   0.00000  Uiso   1.00
H1471  H     0.09083   0.72086   0.83038   0.00000  Uiso   1.00
H1472  H     0.06555   0.70917   0.79033   0.00000  Uiso   1.00
H1473  H     0.08945   0.97183   0.77581   0.00000  Uiso   1.00
H1474  H     0.11500   0.98325   0.81606   0.00000  Uiso   1.00
H1475  H     0.31249   0.77617   0.65302   0.00000  Uiso   1.00
H1476  H     0.00203   0.73944   0.61115   0.00000  Uiso   1.00
H1477  H     0.02810   0.79181   0.61581   0.00000  Uiso   1.00
H1478  H     0.32136   0.78351   0.56506   0.00000  Uiso   1.00
H1479  H     0.29820   0.81957   0.60688   0.00000  Uiso   1.00
H1480  H     0.01697   0.85976   0.71466   0.00000  Uiso   1.00
H1481  H     0.24204   0.76155   0.63521   0.00000  Uiso   1.00
H1482  H     0.26275   0.72689   0.59349   0.00000  Uiso   1.00
H1483  H     0.01439   0.73680   0.92799   0.00000  Uiso   1.00
H1484  H     0.01598   0.76850   0.88964   0.00000  Uiso   1.00
H1485  H     0.04529   0.78708   0.92584   0.00000  Uiso   1.00
H1486  H     0.30909   0.82000   0.93916   0.00000  Uiso   1.00
H1487  H     0.31177   0.79397   0.97911   0.00000  Uiso   1.00
H1488  H     0.26679   0.72898   0.94880   0.00000  Uiso   1.00
H1489  H     0.26561   0.76088   0.91447   0.00000  Uiso   1.00
H1490  H     0.29620   0.88986   0.89927   0.00000  Uiso   1.00
H1491  H     0.31783   0.80742   0.78550   0.00000  Uiso   1.00
H1492  H     0.27556   0.93316   0.88719   0.00000  Uiso   1.00
H1493  H     0.28899   0.93661   0.93350   0.00000  Uiso   1.00
H1494  H     0.20877   0.92369   0.94324   0.00000  Uiso   1.00
H1495  H     0.23018   0.88260   0.95757   0.00000  Uiso   1.00
H1496  H     0.22972   0.84009   0.89167   0.00000  Uiso   1.00
H1497  H     0.21458   0.88271   0.87641   0.00000  Uiso   1.00
H1498  H     0.15027   0.83548   0.59832   0.00000  Uiso   1.00
H1499  H     0.04391   0.87288   0.97992   0.00000  Uiso   1.00
H1500  H     0.09891   0.83036   0.57291   0.00000  Uiso   1.00
H1501  H     0.20617   0.79021   0.92546   0.00000  Uiso   1.00
H1502  H     0.01833   0.98292   0.82458   0.00000  Uiso   1.00
H1503  H     0.04234   0.99722   0.86541   0.00000  Uiso   1.00
O1504  O     0.16667   0.83333   0.75000   0.00000  Uiso   1.00
O1505  O     0.15693   0.79060   0.66625   0.00000  Uiso   1.00
O1506  O     0.12687   0.87313   0.83749   0.00000  Uiso   1.00
O1507  O     0.21088   0.84159   0.65877   0.00000  Uiso   1.00
O1508  O     0.17198   0.82802   0.83749   0.00000  Uiso   1.00
O1509  O     0.17849   0.74768   0.77821   0.00000  Uiso   1.00
O1510  O     0.14581   0.92803   0.76767   0.00000  Uiso   1.00
O1511  O     0.07452   0.79917   0.73607   0.00000  Uiso   1.00
O1512  O     0.26785   0.85845   0.71806   0.00000  Uiso   1.00
O1513  O     0.06990   0.85627   0.77820   0.00000  Uiso   1.00
O1514  O     0.25440   0.81944   0.76768   0.00000  Uiso   1.00
O1515  O     0.13800   0.73570   0.73607   0.00000  Uiso   1.00
O1516  O     0.20437   0.92193   0.71806   0.00000  Uiso   1.00
Zn1517 Zn    0.19244   0.80756   0.78278   0.00000  Uiso   1.00
Zn1518 Zn    0.13459   0.79044   0.72258   0.00000  Uiso   1.00
Zn1519 Zn    0.21166   0.86331   0.71188   0.00000  Uiso   1.00
Zn1520 Zn    0.12798   0.87202   0.78277   0.00000  Uiso   1.00
C1521  C     0.38577   0.82660   0.75883   0.00000  Uiso   1.00
C1522  C     0.53459   0.79711   0.95702   0.00000  Uiso   1.00
C1523  C     0.56044   0.77993   0.97466   0.00000  Uiso   1.00
C1524  C     0.61440   0.84023   0.74118   0.00000  Uiso   1.00
C1525  C     0.55018   0.78343   0.51721   0.00000  Uiso   1.00
C1526  C     0.51463   0.80607   0.53969   0.00000  Uiso   1.00
C1527  C     0.57289   0.76541   0.53874   0.00000  Uiso   1.00
C1528  C     0.56501   0.77575   0.58038   0.00000  Uiso   1.00
C1529  C     0.50740   0.81523   0.58090   0.00000  Uiso   1.00
C1530  C     0.66044   0.84284   0.73755   0.00000  Uiso   1.00
C1531  C     0.34036   0.82437   0.76231   0.00000  Uiso   1.00
C1532  C     0.42312   0.86793   0.92247   0.00000  Uiso   1.00
C1533  C     0.51337   0.98905   0.73986   0.00000  Uiso   1.00
C1534  C     0.48254   0.67958   0.76326   0.00000  Uiso   1.00
C1535  C     0.48925   0.72306   0.75879   0.00000  Uiso   1.00
C1536  C     0.50990   0.94442   0.74164   0.00000  Uiso   1.00
C1537  C     0.52145   0.81203   0.64387   0.00000  Uiso   1.00
C1538  C     0.47837   0.85431   0.85643   0.00000  Uiso   1.00
C1539  C     0.46566   0.85981   0.90042   0.00000  Uiso   1.00
C1540  C     0.53226   0.80115   0.60084   0.00000  Uiso   1.00
C1541  C     0.40962   0.86569   0.96321   0.00000  Uiso   1.00
C1542  C     0.44022   0.99648   0.79235   0.00000  Uiso   1.00
C1543  C     0.49510   0.85254   0.92064   0.00000  Uiso   1.00
C1544  C     0.40848   0.69556   0.81296   0.00000  Uiso   1.00
C1545  C     0.36756   0.67568   0.84098   0.00000  Uiso   1.00
C1546  C     0.59199   0.76025   0.60292   0.00000  Uiso   1.00
C1547  C     0.63628   0.78632   0.59701   0.00000  Uiso   1.00
C1548  C     0.66295   0.77246   0.62078   0.00000  Uiso   1.00
C1549  C     0.60008   0.76202   0.94567   0.00000  Uiso   1.00
C1550  C     0.64235   0.78896   0.94829   0.00000  Uiso   1.00
C1551  C     0.34853   0.76899   0.92122   0.00000  Uiso   1.00
C1552  C     0.54344   0.86644   0.90292   0.00000  Uiso   1.00
C1553  C     0.56258   0.89770   0.93189   0.00000  Uiso   1.00
C1554  C     0.47804   0.84107   0.96008   0.00000  Uiso   1.00
C1555  C     0.60872   0.91539   0.91160   0.00000  Uiso   1.00
C1556  C     0.43610   0.85142   0.98194   0.00000  Uiso   1.00
C1557  C     0.50104   0.82056   0.97896   0.00000  Uiso   1.00
C1558  C     0.48771   0.82068   0.52059   0.00000  Uiso   1.00
C1559  C     0.44658   0.83343   0.54174   0.00000  Uiso   1.00
C1560  C     0.42074   0.84722   0.52239   0.00000  Uiso   1.00
Cl1561 Cl    0.60685   0.72552   0.51689   0.00000  Uiso   1.00
Cl1562 Cl    0.56009   0.67764   0.70546   0.00000  Uiso   1.00
Cl1563 Cl    0.38471   0.88024   0.90090   0.00000  Uiso   1.00
H1564  H     0.38866   0.85505   0.53934   0.00000  Uiso   1.00
H1565  H     0.34428   0.69904   0.85403   0.00000  Uiso   1.00
H1566  H     0.42417   0.72086   0.83038   0.00000  Uiso   1.00
H1567  H     0.39888   0.70917   0.79033   0.00000  Uiso   1.00
H1568  H     0.42278   0.97183   0.77581   0.00000  Uiso   1.00
H1569  H     0.44833   0.98325   0.81606   0.00000  Uiso   1.00
H1570  H     0.64582   0.77617   0.65302   0.00000  Uiso   1.00
H1571  H     0.33536   0.73944   0.61115   0.00000  Uiso   1.00
H1572  H     0.36143   0.79181   0.61581   0.00000  Uiso   1.00
H1573  H     0.65469   0.78351   0.56506   0.00000  Uiso   1.00
H1574  H     0.63153   0.81957   0.60688   0.00000  Uiso   1.00
H1575  H     0.35030   0.85976   0.71466   0.00000  Uiso   1.00
H1576  H     0.57538   0.76155   0.63521   0.00000  Uiso   1.00
H1577  H     0.59609   0.72689   0.59349   0.00000  Uiso   1.00
H1578  H     0.34773   0.73680   0.92799   0.00000  Uiso   1.00
H1579  H     0.34931   0.76850   0.88964   0.00000  Uiso   1.00
H1580  H     0.37862   0.78708   0.92584   0.00000  Uiso   1.00
H1581  H     0.64242   0.82000   0.93916   0.00000  Uiso   1.00
H1582  H     0.64510   0.79397   0.97911   0.00000  Uiso   1.00
H1583  H     0.60013   0.72898   0.94880   0.00000  Uiso   1.00
H1584  H     0.59895   0.76088   0.91447   0.00000  Uiso   1.00
H1585  H     0.62954   0.88986   0.89927   0.00000  Uiso   1.00
H1586  H     0.65117   0.80742   0.78550   0.00000  Uiso   1.00
H1587  H     0.60890   0.93316   0.88719   0.00000  Uiso   1.00
H1588  H     0.62232   0.93661   0.93350   0.00000  Uiso   1.00
H1589  H     0.54211   0.92369   0.94324   0.00000  Uiso   1.00
H1590  H     0.56351   0.88260   0.95757   0.00000  Uiso   1.00
H1591  H     0.56305   0.84009   0.89167   0.00000  Uiso   1.00
H1592  H     0.54792   0.88271   0.87641   0.00000  Uiso   1.00
H1593  H     0.48360   0.83548   0.59832   0.00000  Uiso   1.00
H1594  H     0.37724   0.87288   0.97992   0.00000  Uiso   1.00
H1595  H     0.43224   0.83036   0.57291   0.00000  Uiso   1.00
H1596  H     0.53950   0.79021   0.92546   0.00000  Uiso   1.00
H1597  H     0.35166   0.98292   0.82458   0.00000  Uiso   1.00
H1598  H     0.37567   0.99722   0.86541   0.00000  Uiso   1.00
O1599  O     0.50000   0.83333   0.75000   0.00000  Uiso   1.00
O1600  O     0.49027   0.79060   0.66625   0.00000  Uiso   1.00
O1601  O     0.46020   0.87313   0.83749   0.00000  Uiso   1.00
O1602  O     0.54421   0.84159   0.65877   0.00000  Uiso   1.00
O1603  O     0.50532   0.82802   0.83749   0.00000  Uiso   1.00
O1604  O     0.51182   0.74768   0.77821   0.00000  Uiso   1.00
O1605  O     0.47914   0.92803   0.76767   0.00000  Uiso   1.00
O1606  O     0.40785   0.79917   0.73607   0.00000  Uiso   1.00
O1607  O     0.60119   0.85845   0.71806   0.00000  Uiso   1.00
O1608  O     0.40323   0.85627   0.77820   0.00000  Uiso   1.00
O1609  O     0.58773   0.81944   0.76768   0.00000  Uiso   1.00
O1610  O     0.47133   0.73570   0.73607   0.00000  Uiso   1.00
O1611  O     0.53771   0.92193   0.71806   0.00000  Uiso   1.00
Zn1612 Zn    0.52577   0.80756   0.78278   0.00000  Uiso   1.00
Zn1613 Zn    0.46792   0.79044   0.72258   0.00000  Uiso   1.00
Zn1614 Zn    0.54500   0.86331   0.71188   0.00000  Uiso   1.00
Zn1615 Zn    0.46131   0.87202   0.78277   0.00000  Uiso   1.00
C1616  C     0.71910   0.82660   0.75883   0.00000  Uiso   1.00
C1617  C     0.86792   0.79711   0.95702   0.00000  Uiso   1.00
C1618  C     0.89378   0.77993   0.97466   0.00000  Uiso   1.00
C1619  C     0.94774   0.84023   0.74118   0.00000  Uiso   1.00
C1620  C     0.88351   0.78343   0.51721   0.00000  Uiso   1.00
C1621  C     0.84797   0.80607   0.53969   0.00000  Uiso   1.00
C1622  C     0.90622   0.76541   0.53874   0.00000  Uiso   1.00
C1623  C     0.89835   0.77575   0.58038   0.00000  Uiso   1.00
C1624  C     0.84074   0.81523   0.58090   0.00000  Uiso   1.00
C1625  C     0.99378   0.84284   0.73755   0.00000  Uiso   1.00
C1626  C     0.67369   0.82437   0.76231   0.00000  Uiso   1.00
C1627  C     0.75646   0.86793   0.92247   0.00000  Uiso   1.00
C1628  C     0.84671   0.98905   0.73986   0.00000  Uiso   1.00
C1629  C     0.81587   0.67958   0.76326   0.00000  Uiso   1.00
C1630  C     0.82259   0.72306   0.75879   0.00000  Uiso   1.00
C1631  C     0.84323   0.94442   0.74164   0.00000  Uiso   1.00
C1632  C     0.85479   0.81203   0.64387   0.00000  Uiso   1.00
C1633  C     0.81170   0.85431   0.85643   0.00000  Uiso   1.00
C1634  C     0.79899   0.85981   0.90042   0.00000  Uiso   1.00
C1635  C     0.86559   0.80115   0.60084   0.00000  Uiso   1.00
C1636  C     0.74295   0.86569   0.96321   0.00000  Uiso   1.00
C1637  C     0.77356   0.99648   0.79235   0.00000  Uiso   1.00
C1638  C     0.82843   0.85254   0.92064   0.00000  Uiso   1.00
C1639  C     0.74182   0.69556   0.81296   0.00000  Uiso   1.00
C1640  C     0.70089   0.67568   0.84098   0.00000  Uiso   1.00
C1641  C     0.92532   0.76025   0.60292   0.00000  Uiso   1.00
C1642  C     0.96961   0.78632   0.59701   0.00000  Uiso   1.00
C1643  C     0.99628   0.77246   0.62078   0.00000  Uiso   1.00
C1644  C     0.93342   0.76202   0.94567   0.00000  Uiso   1.00
C1645  C     0.97569   0.78896   0.94829   0.00000  Uiso   1.00
C1646  C     0.68186   0.76899   0.92122   0.00000  Uiso   1.00
C1647  C     0.87678   0.86644   0.90292   0.00000  Uiso   1.00
C1648  C     0.89591   0.89770   0.93189   0.00000  Uiso   1.00
C1649  C     0.81137   0.84107   0.96008   0.00000  Uiso   1.00
C1650  C     0.94205   0.91539   0.91160   0.00000  Uiso   1.00
C1651  C     0.76943   0.85142   0.98194   0.00000  Uiso   1.00
C1652  C     0.83438   0.82056   0.97896   0.00000  Uiso   1.00
C1653  C     0.82104   0.82068   0.52059   0.00000  Uiso   1.00
C1654  C     0.77992   0.83343   0.54174   0.00000  Uiso   1.00
C1655  C     0.75407   0.84722   0.52239   0.00000  Uiso   1.00
Cl1656 Cl    0.94018   0.72552   0.51689   0.00000  Uiso   1.00
Cl1657 Cl    0.89342   0.67764   0.70546   0.00000  Uiso   1.00
Cl1658 Cl    0.71804   0.88024   0.90090   0.00000  Uiso   1.00
H1659  H     0.72199   0.85505   0.53934   0.00000  Uiso   1.00
H1660  H     0.67761   0.69904   0.85403   0.00000  Uiso   1.00
H1661  H     0.75750   0.72086   0.83038   0.00000  Uiso   1.00
H1662  H     0.73221   0.70917   0.79033   0.00000  Uiso   1.00
H1663  H     0.75611   0.97183   0.77581   0.00000  Uiso   1.00
H1664  H     0.78166   0.98325   0.81606   0.00000  Uiso   1.00
H1665  H     0.97916   0.77617   0.65302   0.00000  Uiso   1.00
H1666  H     0.66870   0.73944   0.61115   0.00000  Uiso   1.00
H1667  H     0.69476   0.79181   0.61581   0.00000  Uiso   1.00
H1668  H     0.98802   0.78351   0.56506   0.00000  Uiso   1.00
H1669  H     0.96487   0.81957   0.60688   0.00000  Uiso   1.00
H1670  H     0.68364   0.85976   0.71466   0.00000  Uiso   1.00
H1671  H     0.90871   0.76155   0.63521   0.00000  Uiso   1.00
H1672  H     0.92942   0.72689   0.59349   0.00000  Uiso   1.00
H1673  H     0.68106   0.73680   0.92799   0.00000  Uiso   1.00
H1674  H     0.68265   0.76850   0.88964   0.00000  Uiso   1.00
H1675  H     0.71195   0.78708   0.92584   0.00000  Uiso   1.00
H1676  H     0.97576   0.82000   0.93916   0.00000  Uiso   1.00
H1677  H     0.97843   0.79397   0.97911   0.00000  Uiso   1.00
H1678  H     0.93346   0.72898   0.94880   0.00000  Uiso   1.00
H1679  H     0.93228   0.76088   0.91447   0.00000  Uiso   1.00
H1680  H     0.96287   0.88986   0.89927   0.00000  Uiso   1.00
H1681  H     0.98450   0.80742   0.78550   0.00000  Uiso   1.00
H1682  H     0.94223   0.93316   0.88719   0.00000  Uiso   1.00
H1683  H     0.95566   0.93661   0.93350   0.00000  Uiso   1.00
H1684  H     0.87544   0.92369   0.94324   0.00000  Uiso   1.00
H1685  H     0.89685   0.88260   0.95757   0.00000  Uiso   1.00
H1686  H     0.89639   0.84009   0.89167   0.00000  Uiso   1.00
H1687  H     0.88125   0.88271   0.87641   0.00000  Uiso   1.00
H1688  H     0.81694   0.83548   0.59832   0.00000  Uiso   1.00
H1689  H     0.71058   0.87288   0.97992   0.00000  Uiso   1.00
H1690  H     0.76557   0.83036   0.57291   0.00000  Uiso   1.00
H1691  H     0.87283   0.79021   0.92546   0.00000  Uiso   1.00
H1692  H     0.68500   0.98292   0.82458   0.00000  Uiso   1.00
H1693  H     0.70901   0.99722   0.86541   0.00000  Uiso   1.00
O1694  O     0.83333   0.83333   0.75000   0.00000  Uiso   1.00
O1695  O     0.82360   0.79060   0.66625   0.00000  Uiso   1.00
O1696  O     0.79354   0.87313   0.83749   0.00000  Uiso   1.00
O1697  O     0.87755   0.84159   0.65877   0.00000  Uiso   1.00
O1698  O     0.83865   0.82802   0.83749   0.00000  Uiso   1.00
O1699  O     0.84515   0.74768   0.77821   0.00000  Uiso   1.00
O1700  O     0.81247   0.92803   0.76767   0.00000  Uiso   1.00
O1701  O     0.74119   0.79917   0.73607   0.00000  Uiso   1.00
O1702  O     0.93452   0.85845   0.71806   0.00000  Uiso   1.00
O1703  O     0.73656   0.85627   0.77820   0.00000  Uiso   1.00
O1704  O     0.92106   0.81944   0.76768   0.00000  Uiso   1.00
O1705  O     0.80467   0.73570   0.73607   0.00000  Uiso   1.00
O1706  O     0.87104   0.92193   0.71806   0.00000  Uiso   1.00
Zn1707 Zn    0.85910   0.80756   0.78278   0.00000  Uiso   1.00
Zn1708 Zn    0.80125   0.79044   0.72258   0.00000  Uiso   1.00
Zn1709 Zn    0.87833   0.86331   0.71188   0.00000  Uiso   1.00
Zn1710 Zn    0.79465   0.87202   0.78277   0.00000  Uiso   1.00
loop_
_geom_bond_atom_site_label_1
_geom_bond_atom_site_label_2
_geom_bond_distance
_geom_bond_site_symmetry_2
_ccdc_geom_bond_type
C1     C11     1.435   .     S
C1     O88     1.267   .     A
C1     O86     1.268   .     A
C2     H76     1.077   .     S
C2     C3      1.403   .     A
C2     C37     1.397   .     A
C3     C29     1.524   .     S
C3     C860    1.437   .     S
C4     O87     1.282   .     A
C4     C10     1.453   .     S
C4     O89     1.278   .     A
C5     C6      1.433   .     A
C5     C7      1.439   .     A
C5     C858    1.437   1_554 S
C6     C9      1.403   .     A
C6     C38     1.422   .     A
C7     C8      1.419   .     A
C7     Cl41    1.773   .     S
C8     C26     1.527   .     S
C8     C20     1.406   .     A
C9     H73     1.080   .     S
C9     C20     1.381   .     A
C10    C106    1.334   .     S
C10    H150    1.088   .     S
C11    C200    1.334   1_455 S
C11    H256    1.086   1_455 S
C12    Cl43    1.763   .     S
C12    C21     1.390   .     A
C12    C19     1.414   .     A
C13    C16     1.459   .     S
C13    C299    1.360   .     S
C13    Cl327   1.775   .     S
C14    C15     1.434   .     S
C14    C583    1.360   1_545 S
C14    C592    1.534   1_545 S
C15    O84     1.273   .     A
C15    O90     1.268   .     A
C16    O85     1.258   .     A
C16    O91     1.275   .     A
C17    C20     1.462   .     S
C17    O82     1.277   .     A
C17    O80     1.277   .     A
C18    O81     1.282   .     A
C18    C19     1.481   .     S
C18    O83     1.290   .     A
C19    C23     1.417   .     A
C21    C36     1.396   .     A
C21    H74     1.085   .     S
C22    H48     1.112   .     S
C22    H49     1.112   .     S
C22    C299    1.534   .     S
C22    C309    1.540   .     S
C23    C34     1.429   .     A
C23    C32     1.536   .     S
C24    C25     1.528   .     S
C24    H47     1.112   .     S
C24    H46     1.112   .     S
C24    C592    1.540   1_545 S
C25    H45     1.109   .     S
C25    H647    1.111   1_545 S
C25    H648    1.111   1_545 S
C26    C27     1.535   .     S
C26    H56     1.110   .     S
C26    H57     1.110   .     S
C27    H54     1.112   .     S
C27    H53     1.111   .     S
C27    C28     1.526   .     S
C28    H50     1.111   .     S
C28    H146    1.111   .     S
C28    H147    1.110   .     S
C29    H63     1.105   .     S
C29    C30     1.538   .     S
C29    H64     1.113   .     S
C30    H62     1.109   .     S
C30    H61     1.112   .     S
C30    C126    1.527   .     S
C31    H58     1.111   .     S
C31    H59     1.110   .     S
C31    H60     1.108   .     S
C31    C220    1.527   1_455 S
C32    H72     1.111   .     S
C32    H71     1.105   .     S
C32    C33     1.538   .     S
C33    H69     1.112   .     S
C33    H70     1.109   .     S
C33    C35     1.527   .     S
C34    C37     1.427   .     A
C34    C36     1.417   .     A
C35    H65     1.110   .     S
C35    H67     1.111   .     S
C35    H68     1.110   .     S
C36    C895    1.394   .     S
C37    C893    1.410   .     S
C38    C39     1.415   .     A
C38    C892    1.410   1_554 S
C39    H75     1.079   .     S
C39    C40     1.387   .     A
C40    H44     1.084   .     S
C40    C891    1.394   1_554 S
Cl42   C583    1.775   1_545 S
H51    C218    1.111   1_455 S
H52    C218    1.110   1_455 S
H55    C200    1.088   1_455 S
H66    C106    1.086   .     S
H77    C310    1.111   .     S
H78    C310    1.111   .     S
O79    Zn93    1.940   .     S
O79    Zn94    1.932   .     S
O79    Zn95    1.925   .     S
O79    Zn92    1.959   .     S
O80    Zn93    1.914   .     S
O81    Zn95    1.925   .     S
O82    Zn94    1.918   .     S
O83    Zn92    1.908   .     S
O84    Zn92    1.941   .     S
O85    Zn95    1.945   .     S
O86    Zn93    1.921   .     S
O87    Zn94    1.933   .     S
O88    Zn95    1.929   .     S
O89    Zn92    1.919   .     S
O90    Zn93    1.950   .     S
O91    Zn94    1.942   .     S
C96    C106    1.435   .     S
C96    O183    1.267   .     A
C96    O181    1.268   .     A
C97    H171    1.077   .     S
C97    C98     1.403   .     A
C97    C132    1.397   .     A
C98    C124    1.524   .     S
C98    C955    1.437   .     S
C99    O182    1.282   .     A
C99    C105    1.453   .     S
C99    O184    1.278   .     A
C100   C101    1.433   .     A
C100   C102    1.439   .     A
C100   C953    1.437   1_554 S
C101   C104    1.403   .     A
C101   C133    1.422   .     A
C102   C103    1.419   .     A
C102   Cl136   1.773   .     S
C103   C121    1.527   .     S
C103   C115    1.406   .     A
C104   H168    1.080   .     S
C104   C115    1.381   .     A
C105   C201    1.334   .     S
C105   H245    1.088   .     S
C107   Cl138   1.763   .     S
C107   C116    1.390   .     A
C107   C114    1.414   .     A
C108   C111    1.459   .     S
C108   C394    1.360   .     S
C108   Cl422   1.775   .     S
C109   C110    1.434   .     S
C109   C678    1.360   1_545 S
C109   C687    1.534   1_545 S
C110   O179    1.273   .     A
C110   O185    1.268   .     A
C111   O180    1.258   .     A
C111   O186    1.275   .     A
C112   C115    1.462   .     S
C112   O177    1.277   .     A
C112   O175    1.277   .     A
C113   O176    1.282   .     A
C113   C114    1.481   .     S
C113   O178    1.290   .     A
C114   C118    1.417   .     A
C116   C131    1.396   .     A
C116   H169    1.085   .     S
C117   H143    1.112   .     S
C117   H144    1.112   .     S
C117   C394    1.534   .     S
C117   C404    1.540   .     S
C118   C129    1.429   .     A
C118   C127    1.536   .     S
C119   C120    1.528   .     S
C119   H142    1.112   .     S
C119   H141    1.112   .     S
C119   C687    1.540   1_545 S
C120   H140    1.109   .     S
C120   H742    1.111   1_545 S
C120   H743    1.111   1_545 S
C121   C122    1.535   .     S
C121   H151    1.110   .     S
C121   H152    1.110   .     S
C122   H149    1.112   .     S
C122   H148    1.111   .     S
C122   C123    1.526   .     S
C123   H145    1.111   .     S
C123   H241    1.111   .     S
C123   H242    1.110   .     S
C124   H158    1.105   .     S
C124   C125    1.538   .     S
C124   H159    1.113   .     S
C125   H157    1.109   .     S
C125   H156    1.112   .     S
C125   C221    1.527   .     S
C126   H153    1.111   .     S
C126   H154    1.110   .     S
C126   H155    1.108   .     S
C127   H167    1.111   .     S
C127   H166    1.105   .     S
C127   C128    1.538   .     S
C128   H164    1.112   .     S
C128   H165    1.109   .     S
C128   C130    1.527   .     S
C129   C132    1.427   .     A
C129   C131    1.417   .     A
C130   H160    1.110   .     S
C130   H162    1.111   .     S
C130   H163    1.110   .     S
C131   C990    1.394   .     S
C132   C988    1.410   .     S
C133   C134    1.415   .     A
C133   C987    1.410   1_554 S
C134   H170    1.079   .     S
C134   C135    1.387   .     A
C135   H139    1.084   .     S
C135   C986    1.394   1_554 S
Cl137  C678    1.775   1_545 S
H161   C201    1.086   .     S
H172   C405    1.111   .     S
H173   C405    1.111   .     S
O174   Zn188   1.940   .     S
O174   Zn189   1.932   .     S
O174   Zn190   1.925   .     S
O174   Zn187   1.959   .     S
O175   Zn188   1.914   .     S
O176   Zn190   1.925   .     S
O177   Zn189   1.918   .     S
O178   Zn187   1.908   .     S
O179   Zn187   1.941   .     S
O180   Zn190   1.945   .     S
O181   Zn188   1.921   .     S
O182   Zn189   1.933   .     S
O183   Zn190   1.929   .     S
O184   Zn187   1.919   .     S
O185   Zn188   1.950   .     S
O186   Zn189   1.942   .     S
C191   C201    1.435   .     S
C191   O278    1.267   .     A
C191   O276    1.268   .     A
C192   H266    1.077   .     S
C192   C193    1.403   .     A
C192   C227    1.397   .     A
C193   C219    1.524   .     S
C193   C1050   1.437   .     S
C194   O277    1.282   .     A
C194   C200    1.453   .     S
C194   O279    1.278   .     A
C195   C196    1.433   .     A
C195   C197    1.439   .     A
C195   C1048   1.437   1_554 S
C196   C199    1.403   .     A
C196   C228    1.422   .     A
C197   C198    1.419   .     A
C197   Cl231   1.773   .     S
C198   C216    1.527   .     S
C198   C210    1.406   .     A
C199   H263    1.080   .     S
C199   C210    1.381   .     A
C200   C11     1.334   1_655 S
C200   H55     1.088   1_655 S
C202   Cl233   1.763   .     S
C202   C211    1.390   .     A
C202   C209    1.414   .     A
C203   C206    1.459   .     S
C203   C489    1.360   .     S
C203   Cl517   1.775   .     S
C204   C205    1.434   .     S
C204   C773    1.360   1_545 S
C204   C782    1.534   1_545 S
C205   O274    1.273   .     A
C205   O280    1.268   .     A
C206   O275    1.258   .     A
C206   O281    1.275   .     A
C207   C210    1.462   .     S
C207   O272    1.277   .     A
C207   O270    1.277   .     A
C208   O271    1.282   .     A
C208   C209    1.481   .     S
C208   O273    1.290   .     A
C209   C213    1.417   .     A
C211   C226    1.396   .     A
C211   H264    1.085   .     S
C212   H238    1.112   .     S
C212   H239    1.112   .     S
C212   C489    1.534   .     S
C212   C499    1.540   .     S
C213   C224    1.429   .     A
C213   C222    1.536   .     S
C214   C215    1.528   .     S
C214   H237    1.112   .     S
C214   H236    1.112   .     S
C214   C782    1.540   1_545 S
C215   H235    1.109   .     S
C215   H837    1.111   1_545 S
C215   H838    1.111   1_545 S
C216   C217    1.535   .     S
C216   H246    1.110   .     S
C216   H247    1.110   .     S
C217   H244    1.112   .     S
C217   H243    1.111   .     S
C217   C218    1.526   .     S
C218   H240    1.111   .     S
C218   H51     1.111   1_655 S
C218   H52     1.110   1_655 S
C219   H253    1.105   .     S
C219   C220    1.538   .     S
C219   H254    1.113   .     S
C220   H252    1.109   .     S
C220   H251    1.112   .     S
C220   C31     1.527   1_655 S
C221   H248    1.111   .     S
C221   H249    1.110   .     S
C221   H250    1.108   .     S
C222   H262    1.111   .     S
C222   H261    1.105   .     S
C222   C223    1.538   .     S
C223   H259    1.112   .     S
C223   H260    1.109   .     S
C223   C225    1.527   .     S
C224   C227    1.427   .     A
C224   C226    1.417   .     A
C225   H255    1.110   .     S
C225   H257    1.111   .     S
C225   H258    1.110   .     S
C226   C1085   1.394   .     S
C227   C1083   1.410   .     S
C228   C229    1.415   .     A
C228   C1082   1.410   1_554 S
C229   H265    1.079   .     S
C229   C230    1.387   .     A
C230   H234    1.084   .     S
C230   C1081   1.394   1_554 S
Cl232  C773    1.775   1_545 S
H256   C11     1.086   1_655 S
H267   C500    1.111   .     S
H268   C500    1.111   .     S
O269   Zn283   1.940   .     S
O269   Zn284   1.932   .     S
O269   Zn285   1.925   .     S
O269   Zn282   1.959   .     S
O270   Zn283   1.914   .     S
O271   Zn285   1.925   .     S
O272   Zn284   1.918   .     S
O273   Zn282   1.908   .     S
O274   Zn282   1.941   .     S
O275   Zn285   1.945   .     S
O276   Zn283   1.921   .     S
O277   Zn284   1.933   .     S
O278   Zn285   1.929   .     S
O279   Zn282   1.919   .     S
O280   Zn283   1.950   .     S
O281   Zn284   1.942   .     S
C286   C296    1.435   .     S
C286   O373    1.267   .     A
C286   O371    1.268   .     A
C287   H361    1.077   .     S
C287   C288    1.403   .     A
C287   C322    1.397   .     A
C288   C314    1.524   .     S
C288   C1145   1.437   .     S
C289   O372    1.282   .     A
C289   C295    1.453   .     S
C289   O374    1.278   .     A
C290   C291    1.433   .     A
C290   C292    1.439   .     A
C290   C1143   1.437   1_554 S
C291   C294    1.403   .     A
C291   C323    1.422   .     A
C292   C293    1.419   .     A
C292   Cl326   1.773   .     S
C293   C311    1.527   .     S
C293   C305    1.406   .     A
C294   H358    1.080   .     S
C294   C305    1.381   .     A
C295   C391    1.334   .     S
C295   H435    1.088   .     S
C296   C485    1.334   1_455 S
C296   H541    1.086   1_455 S
C297   Cl328   1.763   .     S
C297   C306    1.390   .     A
C297   C304    1.414   .     A
C298   C301    1.459   .     S
C298   C584    1.360   .     S
C298   Cl612   1.775   .     S
C299   C300    1.434   .     S
C300   O369    1.273   .     A
C300   O375    1.268   .     A
C301   O370    1.258   .     A
C301   O376    1.275   .     A
C302   C305    1.462   .     S
C302   O367    1.277   .     A
C302   O365    1.277   .     A
C303   O366    1.282   .     A
C303   C304    1.481   .     S
C303   O368    1.290   .     A
C304   C308    1.417   .     A
C306   C321    1.396   .     A
C306   H359    1.085   .     S
C307   H333    1.112   .     S
C307   H334    1.112   .     S
C307   C584    1.534   .     S
C307   C594    1.540   .     S
C308   C319    1.429   .     A
C308   C317    1.536   .     S
C309   C310    1.528   .     S
C309   H332    1.112   .     S
C309   H331    1.112   .     S
C310   H330    1.109   .     S
C311   C312    1.535   .     S
C311   H341    1.110   .     S
C311   H342    1.110   .     S
C312   H339    1.112   .     S
C312   H338    1.111   .     S
C312   C313    1.526   .     S
C313   H335    1.111   .     S
C313   H431    1.111   .     S
C313   H432    1.110   .     S
C314   H348    1.105   .     S
C314   C315    1.538   .     S
C314   H349    1.113   .     S
C315   H347    1.109   .     S
C315   H346    1.112   .     S
C315   C411    1.527   .     S
C316   H343    1.111   .     S
C316   H344    1.110   .     S
C316   H345    1.108   .     S
C316   C505    1.527   1_455 S
C317   H357    1.111   .     S
C317   H356    1.105   .     S
C317   C318    1.538   .     S
C318   H354    1.112   .     S
C318   H355    1.109   .     S
C318   C320    1.527   .     S
C319   C322    1.427   .     A
C319   C321    1.417   .     A
C320   H350    1.110   .     S
C320   H352    1.111   .     S
C320   H353    1.110   .     S
C321   C1180   1.394   .     S
C322   C1178   1.410   .     S
C323   C324    1.415   .     A
C323   C1177   1.410   1_554 S
C324   H360    1.079   .     S
C324   C325    1.387   .     A
C325   H329    1.084   .     S
C325   C1176   1.394   1_554 S
H336   C503    1.111   1_455 S
H337   C503    1.110   1_455 S
H340   C485    1.088   1_455 S
H351   C391    1.086   .     S
H362   C595    1.111   .     S
H363   C595    1.111   .     S
O364   Zn378   1.940   .     S
O364   Zn379   1.932   .     S
O364   Zn380   1.925   .     S
O364   Zn377   1.959   .     S
O365   Zn378   1.914   .     S
O366   Zn380   1.925   .     S
O367   Zn379   1.918   .     S
O368   Zn377   1.908   .     S
O369   Zn377   1.941   .     S
O370   Zn380   1.945   .     S
O371   Zn378   1.921   .     S
O372   Zn379   1.933   .     S
O373   Zn380   1.929   .     S
O374   Zn377   1.919   .     S
O375   Zn378   1.950   .     S
O376   Zn379   1.942   .     S
C381   C391    1.435   .     S
C381   O468    1.267   .     A
C381   O466    1.268   .     A
C382   H456    1.077   .     S
C382   C383    1.403   .     A
C382   C417    1.397   .     A
C383   C409    1.524   .     S
C383   C1240   1.437   .     S
C384   O467    1.282   .     A
C384   C390    1.453   .     S
C384   O469    1.278   .     A
C385   C386    1.433   .     A
C385   C387    1.439   .     A
C385   C1238   1.437   1_554 S
C386   C389    1.403   .     A
C386   C418    1.422   .     A
C387   C388    1.419   .     A
C387   Cl421   1.773   .     S
C388   C406    1.527   .     S
C388   C400    1.406   .     A
C389   H453    1.080   .     S
C389   C400    1.381   .     A
C390   C486    1.334   .     S
C390   H530    1.088   .     S
C392   Cl423   1.763   .     S
C392   C401    1.390   .     A
C392   C399    1.414   .     A
C393   C396    1.459   .     S
C393   C679    1.360   .     S
C393   Cl707   1.775   .     S
C394   C395    1.434   .     S
C395   O464    1.273   .     A
C395   O470    1.268   .     A
C396   O465    1.258   .     A
C396   O471    1.275   .     A
C397   C400    1.462   .     S
C397   O462    1.277   .     A
C397   O460    1.277   .     A
C398   O461    1.282   .     A
C398   C399    1.481   .     S
C398   O463    1.290   .     A
C399   C403    1.417   .     A
C401   C416    1.396   .     A
C401   H454    1.085   .     S
C402   H428    1.112   .     S
C402   H429    1.112   .     S
C402   C679    1.534   .     S
C402   C689    1.540   .     S
C403   C414    1.429   .     A
C403   C412    1.536   .     S
C404   C405    1.528   .     S
C404   H427    1.112   .     S
C404   H426    1.112   .     S
C405   H425    1.109   .     S
C406   C407    1.535   .     S
C406   H436    1.110   .     S
C406   H437    1.110   .     S
C407   H434    1.112   .     S
C407   H433    1.111   .     S
C407   C408    1.526   .     S
C408   H430    1.111   .     S
C408   H526    1.111   .     S
C408   H527    1.110   .     S
C409   H443    1.105   .     S
C409   C410    1.538   .     S
C409   H444    1.113   .     S
C410   H442    1.109   .     S
C410   H441    1.112   .     S
C410   C506    1.527   .     S
C411   H438    1.111   .     S
C411   H439    1.110   .     S
C411   H440    1.108   .     S
C412   H452    1.111   .     S
C412   H451    1.105   .     S
C412   C413    1.538   .     S
C413   H449    1.112   .     S
C413   H450    1.109   .     S
C413   C415    1.527   .     S
C414   C417    1.427   .     A
C414   C416    1.417   .     A
C415   H445    1.110   .     S
C415   H447    1.111   .     S
C415   H448    1.110   .     S
C416   C1275   1.394   .     S
C417   C1273   1.410   .     S
C418   C419    1.415   .     A
C418   C1272   1.410   1_554 S
C419   H455    1.079   .     S
C419   C420    1.387   .     A
C420   H424    1.084   .     S
C420   C1271   1.394   1_554 S
H446   C486    1.086   .     S
H457   C690    1.111   .     S
H458   C690    1.111   .     S
O459   Zn473   1.940   .     S
O459   Zn474   1.932   .     S
O459   Zn475   1.925   .     S
O459   Zn472   1.959   .     S
O460   Zn473   1.914   .     S
O461   Zn475   1.925   .     S
O462   Zn474   1.918   .     S
O463   Zn472   1.908   .     S
O464   Zn472   1.941   .     S
O465   Zn475   1.945   .     S
O466   Zn473   1.921   .     S
O467   Zn474   1.933   .     S
O468   Zn475   1.929   .     S
O469   Zn472   1.919   .     S
O470   Zn473   1.950   .     S
O471   Zn474   1.942   .     S
C476   C486    1.435   .     S
C476   O563    1.267   .     A
C476   O561    1.268   .     A
C477   H551    1.077   .     S
C477   C478    1.403   .     A
C477   C512    1.397   .     A
C478   C504    1.524   .     S
C478   C1335   1.437   .     S
C479   O562    1.282   .     A
C479   C485    1.453   .     S
C479   O564    1.278   .     A
C480   C481    1.433   .     A
C480   C482    1.439   .     A
C480   C1333   1.437   1_554 S
C481   C484    1.403   .     A
C481   C513    1.422   .     A
C482   C483    1.419   .     A
C482   Cl516   1.773   .     S
C483   C501    1.527   .     S
C483   C495    1.406   .     A
C484   H548    1.080   .     S
C484   C495    1.381   .     A
C485   C296    1.334   1_655 S
C485   H340    1.088   1_655 S
C487   Cl518   1.763   .     S
C487   C496    1.390   .     A
C487   C494    1.414   .     A
C488   C491    1.459   .     S
C488   C774    1.360   .     S
C488   Cl802   1.775   .     S
C489   C490    1.434   .     S
C490   O559    1.273   .     A
C490   O565    1.268   .     A
C491   O560    1.258   .     A
C491   O566    1.275   .     A
C492   C495    1.462   .     S
C492   O557    1.277   .     A
C492   O555    1.277   .     A
C493   O556    1.282   .     A
C493   C494    1.481   .     S
C493   O558    1.290   .     A
C494   C498    1.417   .     A
C496   C511    1.396   .     A
C496   H549    1.085   .     S
C497   H523    1.112   .     S
C497   H524    1.112   .     S
C497   C774    1.534   .     S
C497   C784    1.540   .     S
C498   C509    1.429   .     A
C498   C507    1.536   .     S
C499   C500    1.528   .     S
C499   H522    1.112   .     S
C499   H521    1.112   .     S
C500   H520    1.109   .     S
C501   C502    1.535   .     S
C501   H531    1.110   .     S
C501   H532    1.110   .     S
C502   H529    1.112   .     S
C502   H528    1.111   .     S
C502   C503    1.526   .     S
C503   H525    1.111   .     S
C503   H336    1.111   1_655 S
C503   H337    1.110   1_655 S
C504   H538    1.105   .     S
C504   C505    1.538   .     S
C504   H539    1.113   .     S
C505   H537    1.109   .     S
C505   H536    1.112   .     S
C505   C316    1.527   1_655 S
C506   H533    1.111   .     S
C506   H534    1.110   .     S
C506   H535    1.108   .     S
C507   H547    1.111   .     S
C507   H546    1.105   .     S
C507   C508    1.538   .     S
C508   H544    1.112   .     S
C508   H545    1.109   .     S
C508   C510    1.527   .     S
C509   C512    1.427   .     A
C509   C511    1.417   .     A
C510   H540    1.110   .     S
C510   H542    1.111   .     S
C510   H543    1.110   .     S
C511   C1370   1.394   .     S
C512   C1368   1.410   .     S
C513   C514    1.415   .     A
C513   C1367   1.410   1_554 S
C514   H550    1.079   .     S
C514   C515    1.387   .     A
C515   H519    1.084   .     S
C515   C1366   1.394   1_554 S
H541   C296    1.086   1_655 S
H552   C785    1.111   .     S
H553   C785    1.111   .     S
O554   Zn568   1.940   .     S
O554   Zn569   1.932   .     S
O554   Zn570   1.925   .     S
O554   Zn567   1.959   .     S
O555   Zn568   1.914   .     S
O556   Zn570   1.925   .     S
O557   Zn569   1.918   .     S
O558   Zn567   1.908   .     S
O559   Zn567   1.941   .     S
O560   Zn570   1.945   .     S
O561   Zn568   1.921   .     S
O562   Zn569   1.933   .     S
O563   Zn570   1.929   .     S
O564   Zn567   1.919   .     S
O565   Zn568   1.950   .     S
O566   Zn569   1.942   .     S
C571   C581    1.435   .     S
C571   O658    1.267   .     A
C571   O656    1.268   .     A
C572   H646    1.077   .     S
C572   C573    1.403   .     A
C572   C607    1.397   .     A
C573   C599    1.524   .     S
C573   C1430   1.437   .     S
C574   O657    1.282   .     A
C574   C580    1.453   .     S
C574   O659    1.278   .     A
C575   C576    1.433   .     A
C575   C577    1.439   .     A
C575   C1428   1.437   1_554 S
C576   C579    1.403   .     A
C576   C608    1.422   .     A
C577   C578    1.419   .     A
C577   Cl611   1.773   .     S
C578   C596    1.527   .     S
C578   C590    1.406   .     A
C579   H643    1.080   .     S
C579   C590    1.381   .     A
C580   C676    1.334   .     S
C580   H720    1.088   .     S
C581   C770    1.334   1_455 S
C581   H826    1.086   1_455 S
C582   Cl613   1.763   .     S
C582   C591    1.390   .     A
C582   C589    1.414   .     A
C583   C586    1.459   .     S
C583   C14     1.360   1_565 S
C583   Cl42    1.775   1_565 S
C584   C585    1.434   .     S
C585   O654    1.273   .     A
C585   O660    1.268   .     A
C586   O655    1.258   .     A
C586   O661    1.275   .     A
C587   C590    1.462   .     S
C587   O652    1.277   .     A
C587   O650    1.277   .     A
C588   O651    1.282   .     A
C588   C589    1.481   .     S
C588   O653    1.290   .     A
C589   C593    1.417   .     A
C591   C606    1.396   .     A
C591   H644    1.085   .     S
C592   H618    1.112   .     S
C592   H619    1.112   .     S
C592   C14     1.534   1_565 S
C592   C24     1.540   1_565 S
C593   C604    1.429   .     A
C593   C602    1.536   .     S
C594   C595    1.528   .     S
C594   H617    1.112   .     S
C594   H616    1.112   .     S
C595   H615    1.109   .     S
C596   C597    1.535   .     S
C596   H626    1.110   .     S
C596   H627    1.110   .     S
C597   H624    1.112   .     S
C597   H623    1.111   .     S
C597   C598    1.526   .     S
C598   H620    1.111   .     S
C598   H716    1.111   .     S
C598   H717    1.110   .     S
C599   H633    1.105   .     S
C599   C600    1.538   .     S
C599   H634    1.113   .     S
C600   H632    1.109   .     S
C600   H631    1.112   .     S
C600   C696    1.527   .     S
C601   H628    1.111   .     S
C601   H629    1.110   .     S
C601   H630    1.108   .     S
C601   C790    1.527   1_455 S
C602   H642    1.111   .     S
C602   H641    1.105   .     S
C602   C603    1.538   .     S
C603   H639    1.112   .     S
C603   H640    1.109   .     S
C603   C605    1.527   .     S
C604   C607    1.427   .     A
C604   C606    1.417   .     A
C605   H635    1.110   .     S
C605   H637    1.111   .     S
C605   H638    1.110   .     S
C606   C1465   1.394   .     S
C607   C1463   1.410   .     S
C608   C609    1.415   .     A
C608   C1462   1.410   1_554 S
C609   H645    1.079   .     S
C609   C610    1.387   .     A
C610   H614    1.084   .     S
C610   C1461   1.394   1_554 S
H621   C788    1.111   1_455 S
H622   C788    1.110   1_455 S
H625   C770    1.088   1_455 S
H636   C676    1.086   .     S
H647   C25     1.111   1_565 S
H648   C25     1.111   1_565 S
O649   Zn663   1.940   .     S
O649   Zn664   1.932   .     S
O649   Zn665   1.925   .     S
O649   Zn662   1.959   .     S
O650   Zn663   1.914   .     S
O651   Zn665   1.925   .     S
O652   Zn664   1.918   .     S
O653   Zn662   1.908   .     S
O654   Zn662   1.941   .     S
O655   Zn665   1.945   .     S
O656   Zn663   1.921   .     S
O657   Zn664   1.933   .     S
O658   Zn665   1.929   .     S
O659   Zn662   1.919   .     S
O660   Zn663   1.950   .     S
O661   Zn664   1.942   .     S
C666   C676    1.435   .     S
C666   O753    1.267   .     A
C666   O751    1.268   .     A
C667   H741    1.077   .     S
C667   C668    1.403   .     A
C667   C702    1.397   .     A
C668   C694    1.524   .     S
C668   C1525   1.437   .     S
C669   O752    1.282   .     A
C669   C675    1.453   .     S
C669   O754    1.278   .     A
C670   C671    1.433   .     A
C670   C672    1.439   .     A
C670   C1523   1.437   1_554 S
C671   C674    1.403   .     A
C671   C703    1.422   .     A
C672   C673    1.419   .     A
C672   Cl706   1.773   .     S
C673   C691    1.527   .     S
C673   C685    1.406   .     A
C674   H738    1.080   .     S
C674   C685    1.381   .     A
C675   C771    1.334   .     S
C675   H815    1.088   .     S
C677   Cl708   1.763   .     S
C677   C686    1.390   .     A
C677   C684    1.414   .     A
C678   C681    1.459   .     S
C678   C109    1.360   1_565 S
C678   Cl137   1.775   1_565 S
C679   C680    1.434   .     S
C680   O749    1.273   .     A
C680   O755    1.268   .     A
C681   O750    1.258   .     A
C681   O756    1.275   .     A
C682   C685    1.462   .     S
C682   O747    1.277   .     A
C682   O745    1.277   .     A
C683   O746    1.282   .     A
C683   C684    1.481   .     S
C683   O748    1.290   .     A
C684   C688    1.417   .     A
C686   C701    1.396   .     A
C686   H739    1.085   .     S
C687   H713    1.112   .     S
C687   H714    1.112   .     S
C687   C109    1.534   1_565 S
C687   C119    1.540   1_565 S
C688   C699    1.429   .     A
C688   C697    1.536   .     S
C689   C690    1.528   .     S
C689   H712    1.112   .     S
C689   H711    1.112   .     S
C690   H710    1.109   .     S
C691   C692    1.535   .     S
C691   H721    1.110   .     S
C691   H722    1.110   .     S
C692   H719    1.112   .     S
C692   H718    1.111   .     S
C692   C693    1.526   .     S
C693   H715    1.111   .     S
C693   H811    1.111   .     S
C693   H812    1.110   .     S
C694   H728    1.105   .     S
C694   C695    1.538   .     S
C694   H729    1.113   .     S
C695   H727    1.109   .     S
C695   H726    1.112   .     S
C695   C791    1.527   .     S
C696   H723    1.111   .     S
C696   H724    1.110   .     S
C696   H725    1.108   .     S
C697   H737    1.111   .     S
C697   H736    1.105   .     S
C697   C698    1.538   .     S
C698   H734    1.112   .     S
C698   H735    1.109   .     S
C698   C700    1.527   .     S
C699   C702    1.427   .     A
C699   C701    1.417   .     A
C700   H730    1.110   .     S
C700   H732    1.111   .     S
C700   H733    1.110   .     S
C701   C1560   1.394   .     S
C702   C1558   1.410   .     S
C703   C704    1.415   .     A
C703   C1557   1.410   1_554 S
C704   H740    1.079   .     S
C704   C705    1.387   .     A
C705   H709    1.084   .     S
C705   C1556   1.394   1_554 S
H731   C771    1.086   .     S
H742   C120    1.111   1_565 S
H743   C120    1.111   1_565 S
O744   Zn758   1.940   .     S
O744   Zn759   1.932   .     S
O744   Zn760   1.925   .     S
O744   Zn757   1.959   .     S
O745   Zn758   1.914   .     S
O746   Zn760   1.925   .     S
O747   Zn759   1.918   .     S
O748   Zn757   1.908   .     S
O749   Zn757   1.941   .     S
O750   Zn760   1.945   .     S
O751   Zn758   1.921   .     S
O752   Zn759   1.933   .     S
O753   Zn760   1.929   .     S
O754   Zn757   1.919   .     S
O755   Zn758   1.950   .     S
O756   Zn759   1.942   .     S
C761   C771    1.435   .     S
C761   O848    1.267   .     A
C761   O846    1.268   .     A
C762   H836    1.077   .     S
C762   C763    1.403   .     A
C762   C797    1.397   .     A
C763   C789    1.524   .     S
C763   C1620   1.437   .     S
C764   O847    1.282   .     A
C764   C770    1.453   .     S
C764   O849    1.278   .     A
C765   C766    1.433   .     A
C765   C767    1.439   .     A
C765   C1618   1.437   1_554 S
C766   C769    1.403   .     A
C766   C798    1.422   .     A
C767   C768    1.419   .     A
C767   Cl801   1.773   .     S
C768   C786    1.527   .     S
C768   C780    1.406   .     A
C769   H833    1.080   .     S
C769   C780    1.381   .     A
C770   C581    1.334   1_655 S
C770   H625    1.088   1_655 S
C772   Cl803   1.763   .     S
C772   C781    1.390   .     A
C772   C779    1.414   .     A
C773   C776    1.459   .     S
C773   C204    1.360   1_565 S
C773   Cl232   1.775   1_565 S
C774   C775    1.434   .     S
C775   O844    1.273   .     A
C775   O850    1.268   .     A
C776   O845    1.258   .     A
C776   O851    1.275   .     A
C777   C780    1.462   .     S
C777   O842    1.277   .     A
C777   O840    1.277   .     A
C778   O841    1.282   .     A
C778   C779    1.481   .     S
C778   O843    1.290   .     A
C779   C783    1.417   .     A
C781   C796    1.396   .     A
C781   H834    1.085   .     S
C782   H808    1.112   .     S
C782   H809    1.112   .     S
C782   C204    1.534   1_565 S
C782   C214    1.540   1_565 S
C783   C794    1.429   .     A
C783   C792    1.536   .     S
C784   C785    1.528   .     S
C784   H807    1.112   .     S
C784   H806    1.112   .     S
C785   H805    1.109   .     S
C786   C787    1.535   .     S
C786   H816    1.110   .     S
C786   H817    1.110   .     S
C787   H814    1.112   .     S
C787   H813    1.111   .     S
C787   C788    1.526   .     S
C788   H810    1.111   .     S
C788   H621    1.111   1_655 S
C788   H622    1.110   1_655 S
C789   H823    1.105   .     S
C789   C790    1.538   .     S
C789   H824    1.113   .     S
C790   H822    1.109   .     S
C790   H821    1.112   .     S
C790   C601    1.527   1_655 S
C791   H818    1.111   .     S
C791   H819    1.110   .     S
C791   H820    1.108   .     S
C792   H832    1.111   .     S
C792   H831    1.105   .     S
C792   C793    1.538   .     S
C793   H829    1.112   .     S
C793   H830    1.109   .     S
C793   C795    1.527   .     S
C794   C797    1.427   .     A
C794   C796    1.417   .     A
C795   H825    1.110   .     S
C795   H827    1.111   .     S
C795   H828    1.110   .     S
C796   C1655   1.394   .     S
C797   C1653   1.410   .     S
C798   C799    1.415   .     A
C798   C1652   1.410   1_554 S
C799   H835    1.079   .     S
C799   C800    1.387   .     A
C800   H804    1.084   .     S
C800   C1651   1.394   1_554 S
H826   C581    1.086   1_655 S
H837   C215    1.111   1_565 S
H838   C215    1.111   1_565 S
O839   Zn853   1.940   .     S
O839   Zn854   1.932   .     S
O839   Zn855   1.925   .     S
O839   Zn852   1.959   .     S
O840   Zn853   1.914   .     S
O841   Zn855   1.925   .     S
O842   Zn854   1.918   .     S
O843   Zn852   1.908   .     S
O844   Zn852   1.941   .     S
O845   Zn855   1.945   .     S
O846   Zn853   1.921   .     S
O847   Zn854   1.933   .     S
O848   Zn855   1.929   .     S
O849   Zn852   1.919   .     S
O850   Zn853   1.950   .     S
O851   Zn854   1.942   .     S
C856   C866    1.435   .     S
C856   O943    1.267   .     A
C856   O941    1.268   .     A
C857   H931    1.077   .     S
C857   C858    1.403   .     A
C857   C892    1.397   .     A
C858   C884    1.524   .     S
C858   C5      1.437   1_556 S
C859   O942    1.282   .     A
C859   C865    1.453   .     S
C859   O944    1.278   .     A
C860   C861    1.433   .     A
C860   C862    1.439   .     A
C861   C864    1.403   .     A
C861   C893    1.422   .     A
C862   C863    1.419   .     A
C862   Cl896   1.773   .     S
C863   C881    1.527   .     S
C863   C875    1.406   .     A
C864   H928    1.080   .     S
C864   C875    1.381   .     A
C865   C961    1.334   .     S
C865   H1005   1.088   .     S
C866   C1055   1.334   1_455 S
C866   H1111   1.086   1_455 S
C867   Cl898   1.763   .     S
C867   C876    1.390   .     A
C867   C874    1.414   .     A
C868   C871    1.459   .     S
C868   C1154   1.360   .     S
C868   Cl1182  1.775   .     S
C869   C870    1.434   .     S
C869   C1438   1.360   1_545 S
C869   C1447   1.534   1_545 S
C870   O939    1.273   .     A
C870   O945    1.268   .     A
C871   O940    1.258   .     A
C871   O946    1.275   .     A
C872   C875    1.462   .     S
C872   O937    1.277   .     A
C872   O935    1.277   .     A
C873   O936    1.282   .     A
C873   C874    1.481   .     S
C873   O938    1.290   .     A
C874   C878    1.417   .     A
C876   C891    1.396   .     A
C876   H929    1.085   .     S
C877   H903    1.112   .     S
C877   H904    1.112   .     S
C877   C1154   1.534   .     S
C877   C1164   1.540   .     S
C878   C889    1.429   .     A
C878   C887    1.536   .     S
C879   C880    1.528   .     S
C879   H902    1.112   .     S
C879   H901    1.112   .     S
C879   C1447   1.540   1_545 S
C880   H900    1.109   .     S
C880   H1502   1.111   1_545 S
C880   H1503   1.111   1_545 S
C881   C882    1.535   .     S
C881   H911    1.110   .     S
C881   H912    1.110   .     S
C882   H909    1.112   .     S
C882   H908    1.111   .     S
C882   C883    1.526   .     S
C883   H905    1.111   .     S
C883   H1001   1.111   .     S
C883   H1002   1.110   .     S
C884   H918    1.105   .     S
C884   C885    1.538   .     S
C884   H919    1.113   .     S
C885   H917    1.109   .     S
C885   H916    1.112   .     S
C885   C981    1.527   .     S
C886   H913    1.111   .     S
C886   H914    1.110   .     S
C886   H915    1.108   .     S
C886   C1075   1.527   1_455 S
C887   H927    1.111   .     S
C887   H926    1.105   .     S
C887   C888    1.538   .     S
C888   H924    1.112   .     S
C888   H925    1.109   .     S
C888   C890    1.527   .     S
C889   C892    1.427   .     A
C889   C891    1.417   .     A
C890   H920    1.110   .     S
C890   H922    1.111   .     S
C890   H923    1.110   .     S
C891   C40     1.394   1_556 S
C892   C38     1.410   1_556 S
C893   C894    1.415   .     A
C894   H930    1.079   .     S
C894   C895    1.387   .     A
C895   H899    1.084   .     S
Cl897  C1438   1.775   1_545 S
H906   C1073   1.111   1_455 S
H907   C1073   1.110   1_455 S
H910   C1055   1.088   1_455 S
H921   C961    1.086   .     S
H932   C1165   1.111   .     S
H933   C1165   1.111   .     S
O934   Zn948   1.940   .     S
O934   Zn949   1.932   .     S
O934   Zn950   1.925   .     S
O934   Zn947   1.959   .     S
O935   Zn948   1.914   .     S
O936   Zn950   1.925   .     S
O937   Zn949   1.918   .     S
O938   Zn947   1.908   .     S
O939   Zn947   1.941   .     S
O940   Zn950   1.945   .     S
O941   Zn948   1.921   .     S
O942   Zn949   1.933   .     S
O943   Zn950   1.929   .     S
O944   Zn947   1.919   .     S
O945   Zn948   1.950   .     S
O946   Zn949   1.942   .     S
C951   C961    1.435   .     S
C951   O1038   1.267   .     A
C951   O1036   1.268   .     A
C952   H1026   1.077   .     S
C952   C953    1.403   .     A
C952   C987    1.397   .     A
C953   C979    1.524   .     S
C953   C100    1.437   1_556 S
C954   O1037   1.282   .     A
C954   C960    1.453   .     S
C954   O1039   1.278   .     A
C955   C956    1.433   .     A
C955   C957    1.439   .     A
C956   C959    1.403   .     A
C956   C988    1.422   .     A
C957   C958    1.419   .     A
C957   Cl991   1.773   .     S
C958   C976    1.527   .     S
C958   C970    1.406   .     A
C959   H1023   1.080   .     S
C959   C970    1.381   .     A
C960   C1056   1.334   .     S
C960   H1100   1.088   .     S
C962   Cl993   1.763   .     S
C962   C971    1.390   .     A
C962   C969    1.414   .     A
C963   C966    1.459   .     S
C963   C1249   1.360   .     S
C963   Cl1277  1.775   .     S
C964   C965    1.434   .     S
C964   C1533   1.360   1_545 S
C964   C1542   1.534   1_545 S
C965   O1034   1.273   .     A
C965   O1040   1.268   .     A
C966   O1035   1.258   .     A
C966   O1041   1.275   .     A
C967   C970    1.462   .     S
C967   O1032   1.277   .     A
C967   O1030   1.277   .     A
C968   O1031   1.282   .     A
C968   C969    1.481   .     S
C968   O1033   1.290   .     A
C969   C973    1.417   .     A
C971   C986    1.396   .     A
C971   H1024   1.085   .     S
C972   H998    1.112   .     S
C972   H999    1.112   .     S
C972   C1249   1.534   .     S
C972   C1259   1.540   .     S
C973   C984    1.429   .     A
C973   C982    1.536   .     S
C974   C975    1.528   .     S
C974   H997    1.112   .     S
C974   H996    1.112   .     S
C974   C1542   1.540   1_545 S
C975   H995    1.109   .     S
C975   H1597   1.111   1_545 S
C975   H1598   1.111   1_545 S
C976   C977    1.535   .     S
C976   H1006   1.110   .     S
C976   H1007   1.110   .     S
C977   H1004   1.112   .     S
C977   H1003   1.111   .     S
C977   C978    1.526   .     S
C978   H1000   1.111   .     S
C978   H1096   1.111   .     S
C978   H1097   1.110   .     S
C979   H1013   1.105   .     S
C979   C980    1.538   .     S
C979   H1014   1.113   .     S
C980   H1012   1.109   .     S
C980   H1011   1.112   .     S
C980   C1076   1.527   .     S
C981   H1008   1.111   .     S
C981   H1009   1.110   .     S
C981   H1010   1.108   .     S
C982   H1022   1.111   .     S
C982   H1021   1.105   .     S
C982   C983    1.538   .     S
C983   H1019   1.112   .     S
C983   H1020   1.109   .     S
C983   C985    1.527   .     S
C984   C987    1.427   .     A
C984   C986    1.417   .     A
C985   H1015   1.110   .     S
C985   H1017   1.111   .     S
C985   H1018   1.110   .     S
C986   C135    1.394   1_556 S
C987   C133    1.410   1_556 S
C988   C989    1.415   .     A
C989   H1025   1.079   .     S
C989   C990    1.387   .     A
C990   H994    1.084   .     S
Cl992  C1533   1.775   1_545 S
H1016  C1056   1.086   .     S
H1027  C1260   1.111   .     S
H1028  C1260   1.111   .     S
O1029  Zn1043  1.940   .     S
O1029  Zn1044  1.932   .     S
O1029  Zn1045  1.925   .     S
O1029  Zn1042  1.959   .     S
O1030  Zn1043  1.914   .     S
O1031  Zn1045  1.925   .     S
O1032  Zn1044  1.918   .     S
O1033  Zn1042  1.908   .     S
O1034  Zn1042  1.941   .     S
O1035  Zn1045  1.945   .     S
O1036  Zn1043  1.921   .     S
O1037  Zn1044  1.933   .     S
O1038  Zn1045  1.929   .     S
O1039  Zn1042  1.919   .     S
O1040  Zn1043  1.950   .     S
O1041  Zn1044  1.942   .     S
C1046  C1056   1.435   .     S
C1046  O1133   1.267   .     A
C1046  O1131   1.268   .     A
C1047  H1121   1.077   .     S
C1047  C1048   1.403   .     A
C1047  C1082   1.397   .     A
C1048  C1074   1.524   .     S
C1048  C195    1.437   1_556 S
C1049  O1132   1.282   .     A
C1049  C1055   1.453   .     S
C1049  O1134   1.278   .     A
C1050  C1051   1.433   .     A
C1050  C1052   1.439   .     A
C1051  C1054   1.403   .     A
C1051  C1083   1.422   .     A
C1052  C1053   1.419   .     A
C1052  Cl1086  1.773   .     S
C1053  C1071   1.527   .     S
C1053  C1065   1.406   .     A
C1054  H1118   1.080   .     S
C1054  C1065   1.381   .     A
C1055  C866    1.334   1_655 S
C1055  H910    1.088   1_655 S
C1057  Cl1088  1.763   .     S
C1057  C1066   1.390   .     A
C1057  C1064   1.414   .     A
C1058  C1061   1.459   .     S
C1058  C1344   1.360   .     S
C1058  Cl1372  1.775   .     S
C1059  C1060   1.434   .     S
C1059  C1628   1.360   1_545 S
C1059  C1637   1.534   1_545 S
C1060  O1129   1.273   .     A
C1060  O1135   1.268   .     A
C1061  O1130   1.258   .     A
C1061  O1136   1.275   .     A
C1062  C1065   1.462   .     S
C1062  O1127   1.277   .     A
C1062  O1125   1.277   .     A
C1063  O1126   1.282   .     A
C1063  C1064   1.481   .     S
C1063  O1128   1.290   .     A
C1064  C1068   1.417   .     A
C1066  C1081   1.396   .     A
C1066  H1119   1.085   .     S
C1067  H1093   1.112   .     S
C1067  H1094   1.112   .     S
C1067  C1344   1.534   .     S
C1067  C1354   1.540   .     S
C1068  C1079   1.429   .     A
C1068  C1077   1.536   .     S
C1069  C1070   1.528   .     S
C1069  H1092   1.112   .     S
C1069  H1091   1.112   .     S
C1069  C1637   1.540   1_545 S
C1070  H1090   1.109   .     S
C1070  H1692   1.111   1_545 S
C1070  H1693   1.111   1_545 S
C1071  C1072   1.535   .     S
C1071  H1101   1.110   .     S
C1071  H1102   1.110   .     S
C1072  H1099   1.112   .     S
C1072  H1098   1.111   .     S
C1072  C1073   1.526   .     S
C1073  H1095   1.111   .     S
C1073  H906    1.111   1_655 S
C1073  H907    1.110   1_655 S
C1074  H1108   1.105   .     S
C1074  C1075   1.538   .     S
C1074  H1109   1.113   .     S
C1075  H1107   1.109   .     S
C1075  H1106   1.112   .     S
C1075  C886    1.527   1_655 S
C1076  H1103   1.111   .     S
C1076  H1104   1.110   .     S
C1076  H1105   1.108   .     S
C1077  H1117   1.111   .     S
C1077  H1116   1.105   .     S
C1077  C1078   1.538   .     S
C1078  H1114   1.112   .     S
C1078  H1115   1.109   .     S
C1078  C1080   1.527   .     S
C1079  C1082   1.427   .     A
C1079  C1081   1.417   .     A
C1080  H1110   1.110   .     S
C1080  H1112   1.111   .     S
C1080  H1113   1.110   .     S
C1081  C230    1.394   1_556 S
C1082  C228    1.410   1_556 S
C1083  C1084   1.415   .     A
C1084  H1120   1.079   .     S
C1084  C1085   1.387   .     A
C1085  H1089   1.084   .     S
Cl1087 C1628   1.775   1_545 S
H1111  C866    1.086   1_655 S
H1122  C1355   1.111   .     S
H1123  C1355   1.111   .     S
O1124  Zn1138  1.940   .     S
O1124  Zn1139  1.932   .     S
O1124  Zn1140  1.925   .     S
O1124  Zn1137  1.959   .     S
O1125  Zn1138  1.914   .     S
O1126  Zn1140  1.925   .     S
O1127  Zn1139  1.918   .     S
O1128  Zn1137  1.908   .     S
O1129  Zn1137  1.941   .     S
O1130  Zn1140  1.945   .     S
O1131  Zn1138  1.921   .     S
O1132  Zn1139  1.933   .     S
O1133  Zn1140  1.929   .     S
O1134  Zn1137  1.919   .     S
O1135  Zn1138  1.950   .     S
O1136  Zn1139  1.942   .     S
C1141  C1151   1.435   .     S
C1141  O1228   1.267   .     A
C1141  O1226   1.268   .     A
C1142  H1216   1.077   .     S
C1142  C1143   1.403   .     A
C1142  C1177   1.397   .     A
C1143  C1169   1.524   .     S
C1143  C290    1.437   1_556 S
C1144  O1227   1.282   .     A
C1144  C1150   1.453   .     S
C1144  O1229   1.278   .     A
C1145  C1146   1.433   .     A
C1145  C1147   1.439   .     A
C1146  C1149   1.403   .     A
C1146  C1178   1.422   .     A
C1147  C1148   1.419   .     A
C1147  Cl1181  1.773   .     S
C1148  C1166   1.527   .     S
C1148  C1160   1.406   .     A
C1149  H1213   1.080   .     S
C1149  C1160   1.381   .     A
C1150  C1246   1.334   .     S
C1150  H1290   1.088   .     S
C1151  C1340   1.334   1_455 S
C1151  H1396   1.086   1_455 S
C1152  Cl1183  1.763   .     S
C1152  C1161   1.390   .     A
C1152  C1159   1.414   .     A
C1153  C1156   1.459   .     S
C1153  C1439   1.360   .     S
C1153  Cl1467  1.775   .     S
C1154  C1155   1.434   .     S
C1155  O1224   1.273   .     A
C1155  O1230   1.268   .     A
C1156  O1225   1.258   .     A
C1156  O1231   1.275   .     A
C1157  C1160   1.462   .     S
C1157  O1222   1.277   .     A
C1157  O1220   1.277   .     A
C1158  O1221   1.282   .     A
C1158  C1159   1.481   .     S
C1158  O1223   1.290   .     A
C1159  C1163   1.417   .     A
C1161  C1176   1.396   .     A
C1161  H1214   1.085   .     S
C1162  H1188   1.112   .     S
C1162  H1189   1.112   .     S
C1162  C1439   1.534   .     S
C1162  C1449   1.540   .     S
C1163  C1174   1.429   .     A
C1163  C1172   1.536   .     S
C1164  C1165   1.528   .     S
C1164  H1187   1.112   .     S
C1164  H1186   1.112   .     S
C1165  H1185   1.109   .     S
C1166  C1167   1.535   .     S
C1166  H1196   1.110   .     S
C1166  H1197   1.110   .     S
C1167  H1194   1.112   .     S
C1167  H1193   1.111   .     S
C1167  C1168   1.526   .     S
C1168  H1190   1.111   .     S
C1168  H1286   1.111   .     S
C1168  H1287   1.110   .     S
C1169  H1203   1.105   .     S
C1169  C1170   1.538   .     S
C1169  H1204   1.113   .     S
C1170  H1202   1.109   .     S
C1170  H1201   1.112   .     S
C1170  C1266   1.527   .     S
C1171  H1198   1.111   .     S
C1171  H1199   1.110   .     S
C1171  H1200   1.108   .     S
C1171  C1360   1.527   1_455 S
C1172  H1212   1.111   .     S
C1172  H1211   1.105   .     S
C1172  C1173   1.538   .     S
C1173  H1209   1.112   .     S
C1173  H1210   1.109   .     S
C1173  C1175   1.527   .     S
C1174  C1177   1.427   .     A
C1174  C1176   1.417   .     A
C1175  H1205   1.110   .     S
C1175  H1207   1.111   .     S
C1175  H1208   1.110   .     S
C1176  C325    1.394   1_556 S
C1177  C323    1.410   1_556 S
C1178  C1179   1.415   .     A
C1179  H1215   1.079   .     S
C1179  C1180   1.387   .     A
C1180  H1184   1.084   .     S
H1191  C1358   1.111   1_455 S
H1192  C1358   1.110   1_455 S
H1195  C1340   1.088   1_455 S
H1206  C1246   1.086   .     S
H1217  C1450   1.111   .     S
H1218  C1450   1.111   .     S
O1219  Zn1233  1.940   .     S
O1219  Zn1234  1.932   .     S
O1219  Zn1235  1.925   .     S
O1219  Zn1232  1.959   .     S
O1220  Zn1233  1.914   .     S
O1221  Zn1235  1.925   .     S
O1222  Zn1234  1.918   .     S
O1223  Zn1232  1.908   .     S
O1224  Zn1232  1.941   .     S
O1225  Zn1235  1.945   .     S
O1226  Zn1233  1.921   .     S
O1227  Zn1234  1.933   .     S
O1228  Zn1235  1.929   .     S
O1229  Zn1232  1.919   .     S
O1230  Zn1233  1.950   .     S
O1231  Zn1234  1.942   .     S
C1236  C1246   1.435   .     S
C1236  O1323   1.267   .     A
C1236  O1321   1.268   .     A
C1237  H1311   1.077   .     S
C1237  C1238   1.403   .     A
C1237  C1272   1.397   .     A
C1238  C1264   1.524   .     S
C1238  C385    1.437   1_556 S
C1239  O1322   1.282   .     A
C1239  C1245   1.453   .     S
C1239  O1324   1.278   .     A
C1240  C1241   1.433   .     A
C1240  C1242   1.439   .     A
C1241  C1244   1.403   .     A
C1241  C1273   1.422   .     A
C1242  C1243   1.419   .     A
C1242  Cl1276  1.773   .     S
C1243  C1261   1.527   .     S
C1243  C1255   1.406   .     A
C1244  H1308   1.080   .     S
C1244  C1255   1.381   .     A
C1245  C1341   1.334   .     S
C1245  H1385   1.088   .     S
C1247  Cl1278  1.763   .     S
C1247  C1256   1.390   .     A
C1247  C1254   1.414   .     A
C1248  C1251   1.459   .     S
C1248  C1534   1.360   .     S
C1248  Cl1562  1.775   .     S
C1249  C1250   1.434   .     S
C1250  O1319   1.273   .     A
C1250  O1325   1.268   .     A
C1251  O1320   1.258   .     A
C1251  O1326   1.275   .     A
C1252  C1255   1.462   .     S
C1252  O1317   1.277   .     A
C1252  O1315   1.277   .     A
C1253  O1316   1.282   .     A
C1253  C1254   1.481   .     S
C1253  O1318   1.290   .     A
C1254  C1258   1.417   .     A
C1256  C1271   1.396   .     A
C1256  H1309   1.085   .     S
C1257  H1283   1.112   .     S
C1257  H1284   1.112   .     S
C1257  C1534   1.534   .     S
C1257  C1544   1.540   .     S
C1258  C1269   1.429   .     A
C1258  C1267   1.536   .     S
C1259  C1260   1.528   .     S
C1259  H1282   1.112   .     S
C1259  H1281   1.112   .     S
C1260  H1280   1.109   .     S
C1261  C1262   1.535   .     S
C1261  H1291   1.110   .     S
C1261  H1292   1.110   .     S
C1262  H1289   1.112   .     S
C1262  H1288   1.111   .     S
C1262  C1263   1.526   .     S
C1263  H1285   1.111   .     S
C1263  H1381   1.111   .     S
C1263  H1382   1.110   .     S
C1264  H1298   1.105   .     S
C1264  C1265   1.538   .     S
C1264  H1299   1.113   .     S
C1265  H1297   1.109   .     S
C1265  H1296   1.112   .     S
C1265  C1361   1.527   .     S
C1266  H1293   1.111   .     S
C1266  H1294   1.110   .     S
C1266  H1295   1.108   .     S
C1267  H1307   1.111   .     S
C1267  H1306   1.105   .     S
C1267  C1268   1.538   .     S
C1268  H1304   1.112   .     S
C1268  H1305   1.109   .     S
C1268  C1270   1.527   .     S
C1269  C1272   1.427   .     A
C1269  C1271   1.417   .     A
C1270  H1300   1.110   .     S
C1270  H1302   1.111   .     S
C1270  H1303   1.110   .     S
C1271  C420    1.394   1_556 S
C1272  C418    1.410   1_556 S
C1273  C1274   1.415   .     A
C1274  H1310   1.079   .     S
C1274  C1275   1.387   .     A
C1275  H1279   1.084   .     S
H1301  C1341   1.086   .     S
H1312  C1545   1.111   .     S
H1313  C1545   1.111   .     S
O1314  Zn1328  1.940   .     S
O1314  Zn1329  1.932   .     S
O1314  Zn1330  1.925   .     S
O1314  Zn1327  1.959   .     S
O1315  Zn1328  1.914   .     S
O1316  Zn1330  1.925   .     S
O1317  Zn1329  1.918   .     S
O1318  Zn1327  1.908   .     S
O1319  Zn1327  1.941   .     S
O1320  Zn1330  1.945   .     S
O1321  Zn1328  1.921   .     S
O1322  Zn1329  1.933   .     S
O1323  Zn1330  1.929   .     S
O1324  Zn1327  1.919   .     S
O1325  Zn1328  1.950   .     S
O1326  Zn1329  1.942   .     S
C1331  C1341   1.435   .     S
C1331  O1418   1.267   .     A
C1331  O1416   1.268   .     A
C1332  H1406   1.077   .     S
C1332  C1333   1.403   .     A
C1332  C1367   1.397   .     A
C1333  C1359   1.524   .     S
C1333  C480    1.437   1_556 S
C1334  O1417   1.282   .     A
C1334  C1340   1.453   .     S
C1334  O1419   1.278   .     A
C1335  C1336   1.433   .     A
C1335  C1337   1.439   .     A
C1336  C1339   1.403   .     A
C1336  C1368   1.422   .     A
C1337  C1338   1.419   .     A
C1337  Cl1371  1.773   .     S
C1338  C1356   1.527   .     S
C1338  C1350   1.406   .     A
C1339  H1403   1.080   .     S
C1339  C1350   1.381   .     A
C1340  C1151   1.334   1_655 S
C1340  H1195   1.088   1_655 S
C1342  Cl1373  1.763   .     S
C1342  C1351   1.390   .     A
C1342  C1349   1.414   .     A
C1343  C1346   1.459   .     S
C1343  C1629   1.360   .     S
C1343  Cl1657  1.775   .     S
C1344  C1345   1.434   .     S
C1345  O1414   1.273   .     A
C1345  O1420   1.268   .     A
C1346  O1415   1.258   .     A
C1346  O1421   1.275   .     A
C1347  C1350   1.462   .     S
C1347  O1412   1.277   .     A
C1347  O1410   1.277   .     A
C1348  O1411   1.282   .     A
C1348  C1349   1.481   .     S
C1348  O1413   1.290   .     A
C1349  C1353   1.417   .     A
C1351  C1366   1.396   .     A
C1351  H1404   1.085   .     S
C1352  H1378   1.112   .     S
C1352  H1379   1.112   .     S
C1352  C1629   1.534   .     S
C1352  C1639   1.540   .     S
C1353  C1364   1.429   .     A
C1353  C1362   1.536   .     S
C1354  C1355   1.528   .     S
C1354  H1377   1.112   .     S
C1354  H1376   1.112   .     S
C1355  H1375   1.109   .     S
C1356  C1357   1.535   .     S
C1356  H1386   1.110   .     S
C1356  H1387   1.110   .     S
C1357  H1384   1.112   .     S
C1357  H1383   1.111   .     S
C1357  C1358   1.526   .     S
C1358  H1380   1.111   .     S
C1358  H1191   1.111   1_655 S
C1358  H1192   1.110   1_655 S
C1359  H1393   1.105   .     S
C1359  C1360   1.538   .     S
C1359  H1394   1.113   .     S
C1360  H1392   1.109   .     S
C1360  H1391   1.112   .     S
C1360  C1171   1.527   1_655 S
C1361  H1388   1.111   .     S
C1361  H1389   1.110   .     S
C1361  H1390   1.108   .     S
C1362  H1402   1.111   .     S
C1362  H1401   1.105   .     S
C1362  C1363   1.538   .     S
C1363  H1399   1.112   .     S
C1363  H1400   1.109   .     S
C1363  C1365   1.527   .     S
C1364  C1367   1.427   .     A
C1364  C1366   1.417   .     A
C1365  H1395   1.110   .     S
C1365  H1397   1.111   .     S
C1365  H1398   1.110   .     S
C1366  C515    1.394   1_556 S
C1367  C513    1.410   1_556 S
C1368  C1369   1.415   .     A
C1369  H1405   1.079   .     S
C1369  C1370   1.387   .     A
C1370  H1374   1.084   .     S
H1396  C1151   1.086   1_655 S
H1407  C1640   1.111   .     S
H1408  C1640   1.111   .     S
O1409  Zn1423  1.940   .     S
O1409  Zn1424  1.932   .     S
O1409  Zn1425  1.925   .     S
O1409  Zn1422  1.959   .     S
O1410  Zn1423  1.914   .     S
O1411  Zn1425  1.925   .     S
O1412  Zn1424  1.918   .     S
O1413  Zn1422  1.908   .     S
O1414  Zn1422  1.941   .     S
O1415  Zn1425  1.945   .     S
O1416  Zn1423  1.921   .     S
O1417  Zn1424  1.933   .     S
O1418  Zn1425  1.929   .     S
O1419  Zn1422  1.919   .     S
O1420  Zn1423  1.950   .     S
O1421  Zn1424  1.942   .     S
C1426  C1436   1.435   .     S
C1426  O1513   1.267   .     A
C1426  O1511   1.268   .     A
C1427  H1501   1.077   .     S
C1427  C1428   1.403   .     A
C1427  C1462   1.397   .     A
C1428  C1454   1.524   .     S
C1428  C575    1.437   1_556 S
C1429  O1512   1.282   .     A
C1429  C1435   1.453   .     S
C1429  O1514   1.278   .     A
C1430  C1431   1.433   .     A
C1430  C1432   1.439   .     A
C1431  C1434   1.403   .     A
C1431  C1463   1.422   .     A
C1432  C1433   1.419   .     A
C1432  Cl1466  1.773   .     S
C1433  C1451   1.527   .     S
C1433  C1445   1.406   .     A
C1434  H1498   1.080   .     S
C1434  C1445   1.381   .     A
C1435  C1531   1.334   .     S
C1435  H1575   1.088   .     S
C1436  C1625   1.334   1_455 S
C1436  H1681   1.086   1_455 S
C1437  Cl1468  1.763   .     S
C1437  C1446   1.390   .     A
C1437  C1444   1.414   .     A
C1438  C1441   1.459   .     S
C1438  C869    1.360   1_565 S
C1438  Cl897   1.775   1_565 S
C1439  C1440   1.434   .     S
C1440  O1509   1.273   .     A
C1440  O1515   1.268   .     A
C1441  O1510   1.258   .     A
C1441  O1516   1.275   .     A
C1442  C1445   1.462   .     S
C1442  O1507   1.277   .     A
C1442  O1505   1.277   .     A
C1443  O1506   1.282   .     A
C1443  C1444   1.481   .     S
C1443  O1508   1.290   .     A
C1444  C1448   1.417   .     A
C1446  C1461   1.396   .     A
C1446  H1499   1.085   .     S
C1447  H1473   1.112   .     S
C1447  H1474   1.112   .     S
C1447  C869    1.534   1_565 S
C1447  C879    1.540   1_565 S
C1448  C1459   1.429   .     A
C1448  C1457   1.536   .     S
C1449  C1450   1.528   .     S
C1449  H1472   1.112   .     S
C1449  H1471   1.112   .     S
C1450  H1470   1.109   .     S
C1451  C1452   1.535   .     S
C1451  H1481   1.110   .     S
C1451  H1482   1.110   .     S
C1452  H1479   1.112   .     S
C1452  H1478   1.111   .     S
C1452  C1453   1.526   .     S
C1453  H1475   1.111   .     S
C1453  H1571   1.111   .     S
C1453  H1572   1.110   .     S
C1454  H1488   1.105   .     S
C1454  C1455   1.538   .     S
C1454  H1489   1.113   .     S
C1455  H1487   1.109   .     S
C1455  H1486   1.112   .     S
C1455  C1551   1.527   .     S
C1456  H1483   1.111   .     S
C1456  H1484   1.110   .     S
C1456  H1485   1.108   .     S
C1456  C1645   1.527   1_455 S
C1457  H1497   1.111   .     S
C1457  H1496   1.105   .     S
C1457  C1458   1.538   .     S
C1458  H1494   1.112   .     S
C1458  H1495   1.109   .     S
C1458  C1460   1.527   .     S
C1459  C1462   1.427   .     A
C1459  C1461   1.417   .     A
C1460  H1490   1.110   .     S
C1460  H1492   1.111   .     S
C1460  H1493   1.110   .     S
C1461  C610    1.394   1_556 S
C1462  C608    1.410   1_556 S
C1463  C1464   1.415   .     A
C1464  H1500   1.079   .     S
C1464  C1465   1.387   .     A
C1465  H1469   1.084   .     S
H1476  C1643   1.111   1_455 S
H1477  C1643   1.110   1_455 S
H1480  C1625   1.088   1_455 S
H1491  C1531   1.086   .     S
H1502  C880    1.111   1_565 S
H1503  C880    1.111   1_565 S
O1504  Zn1518  1.940   .     S
O1504  Zn1519  1.932   .     S
O1504  Zn1520  1.925   .     S
O1504  Zn1517  1.959   .     S
O1505  Zn1518  1.914   .     S
O1506  Zn1520  1.925   .     S
O1507  Zn1519  1.918   .     S
O1508  Zn1517  1.908   .     S
O1509  Zn1517  1.941   .     S
O1510  Zn1520  1.945   .     S
O1511  Zn1518  1.921   .     S
O1512  Zn1519  1.933   .     S
O1513  Zn1520  1.929   .     S
O1514  Zn1517  1.919   .     S
O1515  Zn1518  1.950   .     S
O1516  Zn1519  1.942   .     S
C1521  C1531   1.435   .     S
C1521  O1608   1.267   .     A
C1521  O1606   1.268   .     A
C1522  H1596   1.077   .     S
C1522  C1523   1.403   .     A
C1522  C1557   1.397   .     A
C1523  C1549   1.524   .     S
C1523  C670    1.437   1_556 S
C1524  O1607   1.282   .     A
C1524  C1530   1.453   .     S
C1524  O1609   1.278   .     A
C1525  C1526   1.433   .     A
C1525  C1527   1.439   .     A
C1526  C1529   1.403   .     A
C1526  C1558   1.422   .     A
C1527  C1528   1.419   .     A
C1527  Cl1561  1.773   .     S
C1528  C1546   1.527   .     S
C1528  C1540   1.406   .     A
C1529  H1593   1.080   .     S
C1529  C1540   1.381   .     A
C1530  C1626   1.334   .     S
C1530  H1670   1.088   .     S
C1532  Cl1563  1.763   .     S
C1532  C1541   1.390   .     A
C1532  C1539   1.414   .     A
C1533  C1536   1.459   .     S
C1533  C964    1.360   1_565 S
C1533  Cl992   1.775   1_565 S
C1534  C1535   1.434   .     S
C1535  O1604   1.273   .     A
C1535  O1610   1.268   .     A
C1536  O1605   1.258   .     A
C1536  O1611   1.275   .     A
C1537  C1540   1.462   .     S
C1537  O1602   1.277   .     A
C1537  O1600   1.277   .     A
C1538  O1601   1.282   .     A
C1538  C1539   1.481   .     S
C1538  O1603   1.290   .     A
C1539  C1543   1.417   .     A
C1541  C1556   1.396   .     A
C1541  H1594   1.085   .     S
C1542  H1568   1.112   .     S
C1542  H1569   1.112   .     S
C1542  C964    1.534   1_565 S
C1542  C974    1.540   1_565 S
C1543  C1554   1.429   .     A
C1543  C1552   1.536   .     S
C1544  C1545   1.528   .     S
C1544  H1567   1.112   .     S
C1544  H1566   1.112   .     S
C1545  H1565   1.109   .     S
C1546  C1547   1.535   .     S
C1546  H1576   1.110   .     S
C1546  H1577   1.110   .     S
C1547  H1574   1.112   .     S
C1547  H1573   1.111   .     S
C1547  C1548   1.526   .     S
C1548  H1570   1.111   .     S
C1548  H1666   1.111   .     S
C1548  H1667   1.110   .     S
C1549  H1583   1.105   .     S
C1549  C1550   1.538   .     S
C1549  H1584   1.113   .     S
C1550  H1582   1.109   .     S
C1550  H1581   1.112   .     S
C1550  C1646   1.527   .     S
C1551  H1578   1.111   .     S
C1551  H1579   1.110   .     S
C1551  H1580   1.108   .     S
C1552  H1592   1.111   .     S
C1552  H1591   1.105   .     S
C1552  C1553   1.538   .     S
C1553  H1589   1.112   .     S
C1553  H1590   1.109   .     S
C1553  C1555   1.527   .     S
C1554  C1557   1.427   .     A
C1554  C1556   1.417   .     A
C1555  H1585   1.110   .     S
C1555  H1587   1.111   .     S
C1555  H1588   1.110   .     S
C1556  C705    1.394   1_556 S
C1557  C703    1.410   1_556 S
C1558  C1559   1.415   .     A
C1559  H1595   1.079   .     S
C1559  C1560   1.387   .     A
C1560  H1564   1.084   .     S
H1586  C1626   1.086   .     S
H1597  C975    1.111   1_565 S
H1598  C975    1.111   1_565 S
O1599  Zn1613  1.940   .     S
O1599  Zn1614  1.932   .     S
O1599  Zn1615  1.925   .     S
O1599  Zn1612  1.959   .     S
O1600  Zn1613  1.914   .     S
O1601  Zn1615  1.925   .     S
O1602  Zn1614  1.918   .     S
O1603  Zn1612  1.908   .     S
O1604  Zn1612  1.941   .     S
O1605  Zn1615  1.945   .     S
O1606  Zn1613  1.921   .     S
O1607  Zn1614  1.933   .     S
O1608  Zn1615  1.929   .     S
O1609  Zn1612  1.919   .     S
O1610  Zn1613  1.950   .     S
O1611  Zn1614  1.942   .     S
C1616  C1626   1.435   .     S
C1616  O1703   1.267   .     A
C1616  O1701   1.268   .     A
C1617  H1691   1.077   .     S
C1617  C1618   1.403   .     A
C1617  C1652   1.397   .     A
C1618  C1644   1.524   .     S
C1618  C765    1.437   1_556 S
C1619  O1702   1.282   .     A
C1619  C1625   1.453   .     S
C1619  O1704   1.278   .     A
C1620  C1621   1.433   .     A
C1620  C1622   1.439   .     A
C1621  C1624   1.403   .     A
C1621  C1653   1.422   .     A
C1622  C1623   1.419   .     A
C1622  Cl1656  1.773   .     S
C1623  C1641   1.527   .     S
C1623  C1635   1.406   .     A
C1624  H1688   1.080   .     S
C1624  C1635   1.381   .     A
C1625  C1436   1.334   1_655 S
C1625  H1480   1.088   1_655 S
C1627  Cl1658  1.763   .     S
C1627  C1636   1.390   .     A
C1627  C1634   1.414   .     A
C1628  C1631   1.459   .     S
C1628  C1059   1.360   1_565 S
C1628  Cl1087  1.775   1_565 S
C1629  C1630   1.434   .     S
C1630  O1699   1.273   .     A
C1630  O1705   1.268   .     A
C1631  O1700   1.258   .     A
C1631  O1706   1.275   .     A
C1632  C1635   1.462   .     S
C1632  O1697   1.277   .     A
C1632  O1695   1.277   .     A
C1633  O1696   1.282   .     A
C1633  C1634   1.481   .     S
C1633  O1698   1.290   .     A
C1634  C1638   1.417   .     A
C1636  C1651   1.396   .     A
C1636  H1689   1.085   .     S
C1637  H1663   1.112   .     S
C1637  H1664   1.112   .     S
C1637  C1059   1.534   1_565 S
C1637  C1069   1.540   1_565 S
C1638  C1649   1.429   .     A
C1638  C1647   1.536   .     S
C1639  C1640   1.528   .     S
C1639  H1662   1.112   .     S
C1639  H1661   1.112   .     S
C1640  H1660   1.109   .     S
C1641  C1642   1.535   .     S
C1641  H1671   1.110   .     S
C1641  H1672   1.110   .     S
C1642  H1669   1.112   .     S
C1642  H1668   1.111   .     S
C1642  C1643   1.526   .     S
C1643  H1665   1.111   .     S
C1643  H1476   1.111   1_655 S
C1643  H1477   1.110   1_655 S
C1644  H1678   1.105   .     S
C1644  C1645   1.538   .     S
C1644  H1679   1.113   .     S
C1645  H1677   1.109   .     S
C1645  H1676   1.112   .     S
C1645  C1456   1.527   1_655 S
C1646  H1673   1.111   .     S
C1646  H1674   1.110   .     S
C1646  H1675   1.108   .     S
C1647  H1687   1.111   .     S
C1647  H1686   1.105   .     S
C1647  C1648   1.538   .     S
C1648  H1684   1.112   .     S
C1648  H1685   1.109   .     S
C1648  C1650   1.527   .     S
C1649  C1652   1.427   .     A
C1649  C1651   1.417   .     A
C1650  H1680   1.110   .     S
C1650  H1682   1.111   .     S
C1650  H1683   1.110   .     S
C1651  C800    1.394   1_556 S
C1652  C798    1.410   1_556 S
C1653  C1654   1.415   .     A
C1654  H1690   1.079   .     S
C1654  C1655   1.387   .     A
C1655  H1659   1.084   .     S
H1681  C1436   1.086   1_655 S
H1692  C1070   1.111   1_565 S
H1693  C1070   1.111   1_565 S
O1694  Zn1708  1.940   .     S
O1694  Zn1709  1.932   .     S
O1694  Zn1710  1.925   .     S
O1694  Zn1707  1.959   .     S
O1695  Zn1708  1.914   .     S
O1696  Zn1710  1.925   .     S
O1697  Zn1709  1.918   .     S
O1698  Zn1707  1.908   .     S
O1699  Zn1707  1.941   .     S
O1700  Zn1710  1.945   .     S
O1701  Zn1708  1.921   .     S
O1702  Zn1709  1.933   .     S
O1703  Zn1710  1.929   .     S
O1704  Zn1707  1.919   .     S
O1705  Zn1708  1.950   .     S
O1706  Zn1709  1.942   .     S
