data_str_m1_o10_o18_pcu_sym.94
_audit_creation_date              2020-01-03
_audit_creation_method            'Materials Studio'
_symmetry_space_group_name_H-M    'P1'
_symmetry_Int_Tables_number       1
_symmetry_cell_setting            triclinic
loop_
_symmetry_equiv_pos_as_xyz
  x,y,z
_cell_length_a                    32.6674
_cell_length_b                    32.6280
_cell_length_c                    35.5992
_cell_angle_alpha                 98.3704
_cell_angle_beta                  72.5589
_cell_angle_gamma                 98.4552
loop_
_atom_site_label
_atom_site_type_symbol
_atom_site_fract_x
_atom_site_fract_y
_atom_site_fract_z
_atom_site_U_iso_or_equiv
_atom_site_adp_type
_atom_site_occupancy
C1     C     0.05273   0.16039   0.25877   0.00000  Uiso   1.00
C2     C     0.21975   0.16800   0.46237   0.00000  Uiso   1.00
C3     C     0.24204   0.14505   0.47889   0.00000  Uiso   1.00
C4     C     0.28106   0.17316   0.24098   0.00000  Uiso   1.00
C5     C     0.22421   0.13633   0.01849   0.00000  Uiso   1.00
C6     C     0.18472   0.15162   0.04109   0.00000  Uiso   1.00
C7     C     0.24663   0.11589   0.03722   0.00000  Uiso   1.00
C8     C     0.23375   0.11573   0.07842   0.00000  Uiso   1.00
C9     C     0.17489   0.15508   0.08260   0.00000  Uiso   1.00
C10    C     0.32722   0.17307   0.23596   0.00000  Uiso   1.00
C11    C     0.00714   0.15945   0.26419   0.00000  Uiso   1.00
C12    C     0.09708   0.21563   0.42261   0.00000  Uiso   1.00
C13    C     0.18205   0.32270   0.24049   0.00000  Uiso   1.00
C14    C     0.15003   0.01251   0.26149   0.00000  Uiso   1.00
C15    C     0.15579   0.05637   0.25881   0.00000  Uiso   1.00
C16    C     0.17685   0.27776   0.24167   0.00000  Uiso   1.00
C17    C     0.18872   0.14504   0.14399   0.00000  Uiso   1.00
C18    C     0.14501   0.18772   0.35639   0.00000  Uiso   1.00
C19    C     0.13338   0.19522   0.40013   0.00000  Uiso   1.00
C20    C     0.19869   0.13722   0.10109   0.00000  Uiso   1.00
C21    C     0.08406   0.21625   0.46380   0.00000  Uiso   1.00
C22    C     0.04177   0.22794   0.20131   0.00000  Uiso   1.00
C23    C     0.15793   0.17976   0.41997   0.00000  Uiso   1.00
C24    C     0.32370   0.12677   0.32631   0.00000  Uiso   1.00
C25    C     0.22412   0.01328   0.17768   0.00000  Uiso   1.00
C26    C     0.28423   0.11916   0.11787   0.00000  Uiso   1.00
C27    C     0.08414   0.27638   0.39878   0.00000  Uiso   1.00
C28    C     0.07746   0.10823   0.06941   0.00000  Uiso   1.00
C29    C     0.14808   0.18503   0.46150   0.00000  Uiso   1.00
C30    C     0.10782   0.19898   0.48345   0.00000  Uiso   1.00
C31    C     0.17538   0.17283   0.48136   0.00000  Uiso   1.00
C32    C     0.15781   0.16558   0.02175   0.00000  Uiso   1.00
C33    C     0.11367   0.17149   0.04127   0.00000  Uiso   1.00
C34    C     0.09058   0.19226   0.02358   0.00000  Uiso   1.00
H35    H     0.27507   0.10109   0.02055   0.00000  Uiso   1.00
H36    H     0.29552   0.11911   0.35183   0.00000  Uiso   1.00
H37    H     0.01696   0.14366   0.33786   0.00000  Uiso   1.00
H38    H     0.00056   0.09714   0.30859   0.00000  Uiso   1.00
H39    H     0.24870   0.32910   0.21937   0.00000  Uiso   1.00
H40    H     0.25559   0.03036   0.16310   0.00000  Uiso   1.00
H41    H     0.19806   0.03128   0.17706   0.00000  Uiso   1.00
H42    H     0.22090   0.31547   0.16073   0.00000  Uiso   1.00
H43    H     0.26960   0.06838   0.07932   0.00000  Uiso   1.00
H44    H     0.31758   0.11036   0.10564   0.00000  Uiso   1.00
H45    H     0.27252   0.11360   0.14955   0.00000  Uiso   1.00
H46    H     0.15043   0.17401   0.10123   0.00000  Uiso   1.00
H47    H     0.28546   0.15296   0.11567   0.00000  Uiso   1.00
H48    H     0.03865   0.22683   0.41714   0.00000  Uiso   1.00
H49    H     0.07896   0.29548   0.42801   0.00000  Uiso   1.00
H50    H     0.06437   0.28673   0.38216   0.00000  Uiso   1.00
H51    H     0.11867   0.28144   0.38160   0.00000  Uiso   1.00
H52    H     0.06839   0.16844   0.09723   0.00000  Uiso   1.00
H53    H     0.06236   0.09539   0.09824   0.00000  Uiso   1.00
H54    H     0.10558   0.09104   0.05298   0.00000  Uiso   1.00
H55    H     0.05356   0.10346   0.05215   0.00000  Uiso   1.00
H56    H     0.05470   0.22983   0.47984   0.00000  Uiso   1.00
H57    H     0.18391   0.16182   0.40279   0.00000  Uiso   1.00
H58    H     0.01319   0.17521   0.17534   0.00000  Uiso   1.00
H59    H     0.06650   0.23360   0.17284   0.00000  Uiso   1.00
H60    H     0.05743   0.23627   0.22550   0.00000  Uiso   1.00
H61    H     0.01577   0.24823   0.20600   0.00000  Uiso   1.00
H62    H     0.29766   0.17863   0.31813   0.00000  Uiso   1.00
I63    I     0.02645   0.20659   0.05613   0.00000  Uiso   1.00
I64    I     0.08504   0.32441   0.29229   0.00000  Uiso   1.00
I65    I     0.30515   0.12880   0.44534   0.00000  Uiso   1.00
I66    I     0.25790   0.20676   0.41736   0.00000  Uiso   1.00
N67    N     0.02424   0.18456   0.19987   0.00000  Uiso   1.00
N68    N     0.31149   0.15252   0.30246   0.00000  Uiso   1.00
N69    N     0.22232   0.00880   0.21801   0.00000  Uiso   1.00
N70    N     0.25613   0.09393   0.09665   0.00000  Uiso   1.00
N71    N     0.07140   0.23277   0.40413   0.00000  Uiso   1.00
N72    N     0.09116   0.15217   0.07628   0.00000  Uiso   1.00
O73    O     0.16667   0.16667   0.25000   0.00000  Uiso   1.00
O74    O     0.15693   0.12393   0.16625   0.00000  Uiso   1.00
O75    O     0.12687   0.20646   0.33749   0.00000  Uiso   1.00
O76    O     0.21088   0.17493   0.15877   0.00000  Uiso   1.00
O77    O     0.17198   0.16135   0.33749   0.00000  Uiso   1.00
O78    O     0.17849   0.08101   0.27821   0.00000  Uiso   1.00
O79    O     0.14581   0.26136   0.26767   0.00000  Uiso   1.00
O80    O     0.07452   0.13251   0.23607   0.00000  Uiso   1.00
O81    O     0.26785   0.19179   0.21806   0.00000  Uiso   1.00
O82    O     0.06990   0.18960   0.27820   0.00000  Uiso   1.00
O83    O     0.25440   0.15277   0.26768   0.00000  Uiso   1.00
O84    O     0.13800   0.06903   0.23607   0.00000  Uiso   1.00
O85    O     0.20437   0.25527   0.21806   0.00000  Uiso   1.00
Zn86   Zn    0.19244   0.14090   0.28278   0.00000  Uiso   1.00
Zn87   Zn    0.13459   0.12378   0.22258   0.00000  Uiso   1.00
Zn88   Zn    0.21166   0.19664   0.21188   0.00000  Uiso   1.00
Zn89   Zn    0.12798   0.20535   0.28277   0.00000  Uiso   1.00
C90    C     0.38607   0.16039   0.25877   0.00000  Uiso   1.00
C91    C     0.55309   0.16800   0.46237   0.00000  Uiso   1.00
C92    C     0.57537   0.14505   0.47889   0.00000  Uiso   1.00
C93    C     0.61440   0.17316   0.24098   0.00000  Uiso   1.00
C94    C     0.55754   0.13633   0.01849   0.00000  Uiso   1.00
C95    C     0.51805   0.15162   0.04109   0.00000  Uiso   1.00
C96    C     0.57997   0.11589   0.03722   0.00000  Uiso   1.00
C97    C     0.56709   0.11573   0.07842   0.00000  Uiso   1.00
C98    C     0.50823   0.15508   0.08260   0.00000  Uiso   1.00
C99    C     0.66056   0.17307   0.23596   0.00000  Uiso   1.00
C100   C     0.34047   0.15945   0.26419   0.00000  Uiso   1.00
C101   C     0.43042   0.21563   0.42261   0.00000  Uiso   1.00
C102   C     0.51538   0.32270   0.24049   0.00000  Uiso   1.00
C103   C     0.48336   0.01251   0.26149   0.00000  Uiso   1.00
C104   C     0.48912   0.05637   0.25881   0.00000  Uiso   1.00
C105   C     0.51018   0.27776   0.24167   0.00000  Uiso   1.00
C106   C     0.52206   0.14504   0.14399   0.00000  Uiso   1.00
C107   C     0.47834   0.18772   0.35639   0.00000  Uiso   1.00
C108   C     0.46671   0.19522   0.40013   0.00000  Uiso   1.00
C109   C     0.53202   0.13722   0.10109   0.00000  Uiso   1.00
C110   C     0.41740   0.21625   0.46380   0.00000  Uiso   1.00
C111   C     0.37510   0.22794   0.20131   0.00000  Uiso   1.00
C112   C     0.49126   0.17976   0.41997   0.00000  Uiso   1.00
C113   C     0.65704   0.12677   0.32631   0.00000  Uiso   1.00
C114   C     0.55745   0.01328   0.17768   0.00000  Uiso   1.00
C115   C     0.61757   0.11916   0.11787   0.00000  Uiso   1.00
C116   C     0.41747   0.27638   0.39878   0.00000  Uiso   1.00
C117   C     0.41079   0.10823   0.06941   0.00000  Uiso   1.00
C118   C     0.48142   0.18503   0.46150   0.00000  Uiso   1.00
C119   C     0.44115   0.19898   0.48345   0.00000  Uiso   1.00
C120   C     0.50871   0.17283   0.48136   0.00000  Uiso   1.00
C121   C     0.49114   0.16558   0.02175   0.00000  Uiso   1.00
C122   C     0.44701   0.17149   0.04127   0.00000  Uiso   1.00
C123   C     0.42392   0.19226   0.02358   0.00000  Uiso   1.00
H124   H     0.60840   0.10109   0.02055   0.00000  Uiso   1.00
H125   H     0.62885   0.11911   0.35183   0.00000  Uiso   1.00
H126   H     0.35029   0.14366   0.33786   0.00000  Uiso   1.00
H127   H     0.33390   0.09714   0.30859   0.00000  Uiso   1.00
H128   H     0.58203   0.32910   0.21937   0.00000  Uiso   1.00
H129   H     0.58893   0.03036   0.16310   0.00000  Uiso   1.00
H130   H     0.53140   0.03128   0.17706   0.00000  Uiso   1.00
H131   H     0.55424   0.31547   0.16073   0.00000  Uiso   1.00
H132   H     0.60294   0.06838   0.07932   0.00000  Uiso   1.00
H133   H     0.65091   0.11036   0.10564   0.00000  Uiso   1.00
H134   H     0.60586   0.11360   0.14955   0.00000  Uiso   1.00
H135   H     0.48376   0.17401   0.10123   0.00000  Uiso   1.00
H136   H     0.61879   0.15296   0.11567   0.00000  Uiso   1.00
H137   H     0.37198   0.22683   0.41714   0.00000  Uiso   1.00
H138   H     0.41229   0.29548   0.42801   0.00000  Uiso   1.00
H139   H     0.39770   0.28673   0.38216   0.00000  Uiso   1.00
H140   H     0.45200   0.28144   0.38160   0.00000  Uiso   1.00
H141   H     0.40172   0.16844   0.09723   0.00000  Uiso   1.00
H142   H     0.39570   0.09539   0.09824   0.00000  Uiso   1.00
H143   H     0.43891   0.09104   0.05298   0.00000  Uiso   1.00
H144   H     0.38690   0.10346   0.05215   0.00000  Uiso   1.00
H145   H     0.38803   0.22983   0.47984   0.00000  Uiso   1.00
H146   H     0.51724   0.16182   0.40279   0.00000  Uiso   1.00
H147   H     0.34653   0.17521   0.17534   0.00000  Uiso   1.00
H148   H     0.39984   0.23360   0.17284   0.00000  Uiso   1.00
H149   H     0.39076   0.23627   0.22550   0.00000  Uiso   1.00
H150   H     0.34911   0.24823   0.20600   0.00000  Uiso   1.00
H151   H     0.63099   0.17863   0.31813   0.00000  Uiso   1.00
I152   I     0.35978   0.20659   0.05613   0.00000  Uiso   1.00
I153   I     0.41838   0.32441   0.29229   0.00000  Uiso   1.00
I154   I     0.63848   0.12880   0.44534   0.00000  Uiso   1.00
I155   I     0.59123   0.20676   0.41736   0.00000  Uiso   1.00
N156   N     0.35758   0.18456   0.19987   0.00000  Uiso   1.00
N157   N     0.64482   0.15252   0.30246   0.00000  Uiso   1.00
N158   N     0.55566   0.00880   0.21801   0.00000  Uiso   1.00
N159   N     0.58946   0.09393   0.09665   0.00000  Uiso   1.00
N160   N     0.40474   0.23277   0.40413   0.00000  Uiso   1.00
N161   N     0.42450   0.15217   0.07628   0.00000  Uiso   1.00
O162   O     0.50000   0.16667   0.25000   0.00000  Uiso   1.00
O163   O     0.49027   0.12393   0.16625   0.00000  Uiso   1.00
O164   O     0.46020   0.20646   0.33749   0.00000  Uiso   1.00
O165   O     0.54421   0.17493   0.15877   0.00000  Uiso   1.00
O166   O     0.50532   0.16135   0.33749   0.00000  Uiso   1.00
O167   O     0.51182   0.08101   0.27821   0.00000  Uiso   1.00
O168   O     0.47914   0.26136   0.26767   0.00000  Uiso   1.00
O169   O     0.40785   0.13251   0.23607   0.00000  Uiso   1.00
O170   O     0.60119   0.19179   0.21806   0.00000  Uiso   1.00
O171   O     0.40323   0.18960   0.27820   0.00000  Uiso   1.00
O172   O     0.58773   0.15277   0.26768   0.00000  Uiso   1.00
O173   O     0.47133   0.06903   0.23607   0.00000  Uiso   1.00
O174   O     0.53771   0.25527   0.21806   0.00000  Uiso   1.00
Zn175  Zn    0.52577   0.14090   0.28278   0.00000  Uiso   1.00
Zn176  Zn    0.46792   0.12378   0.22258   0.00000  Uiso   1.00
Zn177  Zn    0.54500   0.19664   0.21188   0.00000  Uiso   1.00
Zn178  Zn    0.46131   0.20535   0.28277   0.00000  Uiso   1.00
C179   C     0.71940   0.16039   0.25877   0.00000  Uiso   1.00
C180   C     0.88642   0.16800   0.46237   0.00000  Uiso   1.00
C181   C     0.90870   0.14505   0.47889   0.00000  Uiso   1.00
C182   C     0.94773   0.17316   0.24098   0.00000  Uiso   1.00
C183   C     0.89087   0.13633   0.01849   0.00000  Uiso   1.00
C184   C     0.85138   0.15162   0.04109   0.00000  Uiso   1.00
C185   C     0.91330   0.11589   0.03722   0.00000  Uiso   1.00
C186   C     0.90042   0.11573   0.07842   0.00000  Uiso   1.00
C187   C     0.84156   0.15508   0.08260   0.00000  Uiso   1.00
C188   C     0.99389   0.17307   0.23596   0.00000  Uiso   1.00
C189   C     0.67381   0.15945   0.26419   0.00000  Uiso   1.00
C190   C     0.76375   0.21563   0.42261   0.00000  Uiso   1.00
C191   C     0.84872   0.32270   0.24049   0.00000  Uiso   1.00
C192   C     0.81669   0.01251   0.26149   0.00000  Uiso   1.00
C193   C     0.82245   0.05637   0.25881   0.00000  Uiso   1.00
C194   C     0.84351   0.27776   0.24167   0.00000  Uiso   1.00
C195   C     0.85539   0.14504   0.14399   0.00000  Uiso   1.00
C196   C     0.81168   0.18772   0.35639   0.00000  Uiso   1.00
C197   C     0.80005   0.19522   0.40013   0.00000  Uiso   1.00
C198   C     0.86536   0.13722   0.10109   0.00000  Uiso   1.00
C199   C     0.75073   0.21625   0.46380   0.00000  Uiso   1.00
C200   C     0.70844   0.22794   0.20131   0.00000  Uiso   1.00
C201   C     0.82460   0.17976   0.41997   0.00000  Uiso   1.00
C202   C     0.99037   0.12677   0.32631   0.00000  Uiso   1.00
C203   C     0.89079   0.01328   0.17768   0.00000  Uiso   1.00
C204   C     0.95090   0.11916   0.11787   0.00000  Uiso   1.00
C205   C     0.75080   0.27638   0.39878   0.00000  Uiso   1.00
C206   C     0.74412   0.10823   0.06941   0.00000  Uiso   1.00
C207   C     0.81475   0.18503   0.46150   0.00000  Uiso   1.00
C208   C     0.77448   0.19898   0.48345   0.00000  Uiso   1.00
C209   C     0.84205   0.17283   0.48136   0.00000  Uiso   1.00
C210   C     0.82447   0.16558   0.02175   0.00000  Uiso   1.00
C211   C     0.78034   0.17149   0.04127   0.00000  Uiso   1.00
C212   C     0.75725   0.19226   0.02358   0.00000  Uiso   1.00
H213   H     0.94173   0.10109   0.02055   0.00000  Uiso   1.00
H214   H     0.96219   0.11911   0.35183   0.00000  Uiso   1.00
H215   H     0.68362   0.14366   0.33786   0.00000  Uiso   1.00
H216   H     0.66723   0.09714   0.30859   0.00000  Uiso   1.00
H217   H     0.91536   0.32910   0.21937   0.00000  Uiso   1.00
H218   H     0.92226   0.03036   0.16310   0.00000  Uiso   1.00
H219   H     0.86473   0.03128   0.17706   0.00000  Uiso   1.00
H220   H     0.88757   0.31547   0.16073   0.00000  Uiso   1.00
H221   H     0.93627   0.06838   0.07932   0.00000  Uiso   1.00
H222   H     0.98424   0.11036   0.10564   0.00000  Uiso   1.00
H223   H     0.93919   0.11360   0.14955   0.00000  Uiso   1.00
H224   H     0.81710   0.17401   0.10123   0.00000  Uiso   1.00
H225   H     0.95213   0.15296   0.11567   0.00000  Uiso   1.00
H226   H     0.70532   0.22683   0.41714   0.00000  Uiso   1.00
H227   H     0.74563   0.29548   0.42801   0.00000  Uiso   1.00
H228   H     0.73103   0.28673   0.38216   0.00000  Uiso   1.00
H229   H     0.78534   0.28144   0.38160   0.00000  Uiso   1.00
H230   H     0.73506   0.16844   0.09723   0.00000  Uiso   1.00
H231   H     0.72903   0.09539   0.09824   0.00000  Uiso   1.00
H232   H     0.77225   0.09104   0.05298   0.00000  Uiso   1.00
H233   H     0.72023   0.10346   0.05215   0.00000  Uiso   1.00
H234   H     0.72136   0.22983   0.47984   0.00000  Uiso   1.00
H235   H     0.85057   0.16182   0.40279   0.00000  Uiso   1.00
H236   H     0.67986   0.17521   0.17534   0.00000  Uiso   1.00
H237   H     0.73317   0.23360   0.17284   0.00000  Uiso   1.00
H238   H     0.72410   0.23627   0.22550   0.00000  Uiso   1.00
H239   H     0.68244   0.24823   0.20600   0.00000  Uiso   1.00
H240   H     0.96433   0.17863   0.31813   0.00000  Uiso   1.00
I241   I     0.69312   0.20659   0.05613   0.00000  Uiso   1.00
I242   I     0.75171   0.32441   0.29229   0.00000  Uiso   1.00
I243   I     0.97181   0.12880   0.44534   0.00000  Uiso   1.00
I244   I     0.92457   0.20676   0.41736   0.00000  Uiso   1.00
N245   N     0.69091   0.18456   0.19987   0.00000  Uiso   1.00
N246   N     0.97815   0.15252   0.30246   0.00000  Uiso   1.00
N247   N     0.88899   0.00880   0.21801   0.00000  Uiso   1.00
N248   N     0.92280   0.09393   0.09665   0.00000  Uiso   1.00
N249   N     0.73807   0.23277   0.40413   0.00000  Uiso   1.00
N250   N     0.75783   0.15217   0.07628   0.00000  Uiso   1.00
O251   O     0.83333   0.16667   0.25000   0.00000  Uiso   1.00
O252   O     0.82360   0.12393   0.16625   0.00000  Uiso   1.00
O253   O     0.79354   0.20646   0.33749   0.00000  Uiso   1.00
O254   O     0.87755   0.17493   0.15877   0.00000  Uiso   1.00
O255   O     0.83865   0.16135   0.33749   0.00000  Uiso   1.00
O256   O     0.84515   0.08101   0.27821   0.00000  Uiso   1.00
O257   O     0.81247   0.26136   0.26767   0.00000  Uiso   1.00
O258   O     0.74119   0.13251   0.23607   0.00000  Uiso   1.00
O259   O     0.93452   0.19179   0.21806   0.00000  Uiso   1.00
O260   O     0.73656   0.18960   0.27820   0.00000  Uiso   1.00
O261   O     0.92106   0.15277   0.26768   0.00000  Uiso   1.00
O262   O     0.80467   0.06903   0.23607   0.00000  Uiso   1.00
O263   O     0.87104   0.25527   0.21806   0.00000  Uiso   1.00
Zn264  Zn    0.85910   0.14090   0.28278   0.00000  Uiso   1.00
Zn265  Zn    0.80125   0.12378   0.22258   0.00000  Uiso   1.00
Zn266  Zn    0.87833   0.19664   0.21188   0.00000  Uiso   1.00
Zn267  Zn    0.79465   0.20535   0.28277   0.00000  Uiso   1.00
C268   C     0.05273   0.49372   0.25877   0.00000  Uiso   1.00
C269   C     0.21975   0.50134   0.46237   0.00000  Uiso   1.00
C270   C     0.24204   0.47838   0.47889   0.00000  Uiso   1.00
C271   C     0.28106   0.50650   0.24098   0.00000  Uiso   1.00
C272   C     0.22421   0.46966   0.01849   0.00000  Uiso   1.00
C273   C     0.18472   0.48495   0.04109   0.00000  Uiso   1.00
C274   C     0.24663   0.44922   0.03722   0.00000  Uiso   1.00
C275   C     0.23375   0.44906   0.07842   0.00000  Uiso   1.00
C276   C     0.17489   0.48841   0.08260   0.00000  Uiso   1.00
C277   C     0.32722   0.50640   0.23596   0.00000  Uiso   1.00
C278   C     0.00714   0.49278   0.26419   0.00000  Uiso   1.00
C279   C     0.09708   0.54896   0.42261   0.00000  Uiso   1.00
C280   C     0.18205   0.65603   0.24049   0.00000  Uiso   1.00
C281   C     0.15003   0.34584   0.26149   0.00000  Uiso   1.00
C282   C     0.15579   0.38970   0.25881   0.00000  Uiso   1.00
C283   C     0.17685   0.61110   0.24167   0.00000  Uiso   1.00
C284   C     0.18872   0.47837   0.14399   0.00000  Uiso   1.00
C285   C     0.14501   0.52106   0.35639   0.00000  Uiso   1.00
C286   C     0.13338   0.52855   0.40013   0.00000  Uiso   1.00
C287   C     0.19869   0.47055   0.10109   0.00000  Uiso   1.00
C288   C     0.08406   0.54958   0.46380   0.00000  Uiso   1.00
C289   C     0.04177   0.56128   0.20131   0.00000  Uiso   1.00
C290   C     0.15793   0.51309   0.41997   0.00000  Uiso   1.00
C291   C     0.32370   0.46010   0.32631   0.00000  Uiso   1.00
C292   C     0.22412   0.34661   0.17768   0.00000  Uiso   1.00
C293   C     0.28423   0.45249   0.11787   0.00000  Uiso   1.00
C294   C     0.08414   0.60972   0.39878   0.00000  Uiso   1.00
C295   C     0.07746   0.44156   0.06941   0.00000  Uiso   1.00
C296   C     0.14808   0.51836   0.46150   0.00000  Uiso   1.00
C297   C     0.10782   0.53231   0.48345   0.00000  Uiso   1.00
C298   C     0.17538   0.50616   0.48136   0.00000  Uiso   1.00
C299   C     0.15781   0.49891   0.02175   0.00000  Uiso   1.00
C300   C     0.11367   0.50482   0.04127   0.00000  Uiso   1.00
C301   C     0.09058   0.52559   0.02358   0.00000  Uiso   1.00
H302   H     0.27507   0.43442   0.02055   0.00000  Uiso   1.00
H303   H     0.29552   0.45244   0.35183   0.00000  Uiso   1.00
H304   H     0.01696   0.47699   0.33786   0.00000  Uiso   1.00
H305   H     0.00056   0.43047   0.30859   0.00000  Uiso   1.00
H306   H     0.24870   0.66244   0.21937   0.00000  Uiso   1.00
H307   H     0.25559   0.36370   0.16310   0.00000  Uiso   1.00
H308   H     0.19806   0.36461   0.17706   0.00000  Uiso   1.00
H309   H     0.22090   0.64881   0.16073   0.00000  Uiso   1.00
H310   H     0.26960   0.40171   0.07932   0.00000  Uiso   1.00
H311   H     0.31758   0.44369   0.10564   0.00000  Uiso   1.00
H312   H     0.27252   0.44694   0.14955   0.00000  Uiso   1.00
H313   H     0.15043   0.50734   0.10123   0.00000  Uiso   1.00
H314   H     0.28546   0.48629   0.11567   0.00000  Uiso   1.00
H315   H     0.03865   0.56016   0.41714   0.00000  Uiso   1.00
H316   H     0.07896   0.62881   0.42801   0.00000  Uiso   1.00
H317   H     0.06437   0.62007   0.38216   0.00000  Uiso   1.00
H318   H     0.11867   0.61477   0.38160   0.00000  Uiso   1.00
H319   H     0.06839   0.50177   0.09723   0.00000  Uiso   1.00
H320   H     0.06236   0.42872   0.09824   0.00000  Uiso   1.00
H321   H     0.10558   0.42438   0.05298   0.00000  Uiso   1.00
H322   H     0.05356   0.43679   0.05215   0.00000  Uiso   1.00
H323   H     0.05470   0.56316   0.47984   0.00000  Uiso   1.00
H324   H     0.18391   0.49516   0.40279   0.00000  Uiso   1.00
H325   H     0.01319   0.50855   0.17534   0.00000  Uiso   1.00
H326   H     0.06650   0.56694   0.17284   0.00000  Uiso   1.00
H327   H     0.05743   0.56961   0.22550   0.00000  Uiso   1.00
H328   H     0.01577   0.58157   0.20600   0.00000  Uiso   1.00
H329   H     0.29766   0.51196   0.31813   0.00000  Uiso   1.00
I330   I     0.02645   0.53993   0.05613   0.00000  Uiso   1.00
I331   I     0.08504   0.65774   0.29229   0.00000  Uiso   1.00
I332   I     0.30515   0.46214   0.44534   0.00000  Uiso   1.00
I333   I     0.25790   0.54009   0.41736   0.00000  Uiso   1.00
N334   N     0.02424   0.51789   0.19987   0.00000  Uiso   1.00
N335   N     0.31149   0.48586   0.30246   0.00000  Uiso   1.00
N336   N     0.22232   0.34213   0.21801   0.00000  Uiso   1.00
N337   N     0.25613   0.42727   0.09665   0.00000  Uiso   1.00
N338   N     0.07140   0.56610   0.40413   0.00000  Uiso   1.00
N339   N     0.09116   0.48551   0.07628   0.00000  Uiso   1.00
O340   O     0.16667   0.50000   0.25000   0.00000  Uiso   1.00
O341   O     0.15693   0.45726   0.16625   0.00000  Uiso   1.00
O342   O     0.12687   0.53979   0.33749   0.00000  Uiso   1.00
O343   O     0.21088   0.50826   0.15877   0.00000  Uiso   1.00
O344   O     0.17198   0.49468   0.33749   0.00000  Uiso   1.00
O345   O     0.17849   0.41434   0.27821   0.00000  Uiso   1.00
O346   O     0.14581   0.59469   0.26767   0.00000  Uiso   1.00
O347   O     0.07452   0.46584   0.23607   0.00000  Uiso   1.00
O348   O     0.26785   0.52512   0.21806   0.00000  Uiso   1.00
O349   O     0.06990   0.52293   0.27820   0.00000  Uiso   1.00
O350   O     0.25440   0.48610   0.26768   0.00000  Uiso   1.00
O351   O     0.13800   0.40236   0.23607   0.00000  Uiso   1.00
O352   O     0.20437   0.58860   0.21806   0.00000  Uiso   1.00
Zn353  Zn    0.19244   0.47423   0.28278   0.00000  Uiso   1.00
Zn354  Zn    0.13459   0.45711   0.22258   0.00000  Uiso   1.00
Zn355  Zn    0.21166   0.52997   0.21188   0.00000  Uiso   1.00
Zn356  Zn    0.12798   0.53868   0.28277   0.00000  Uiso   1.00
C357   C     0.38607   0.49372   0.25877   0.00000  Uiso   1.00
C358   C     0.55309   0.50134   0.46237   0.00000  Uiso   1.00
C359   C     0.57537   0.47838   0.47889   0.00000  Uiso   1.00
C360   C     0.61440   0.50650   0.24098   0.00000  Uiso   1.00
C361   C     0.55754   0.46966   0.01849   0.00000  Uiso   1.00
C362   C     0.51805   0.48495   0.04109   0.00000  Uiso   1.00
C363   C     0.57997   0.44922   0.03722   0.00000  Uiso   1.00
C364   C     0.56709   0.44906   0.07842   0.00000  Uiso   1.00
C365   C     0.50823   0.48841   0.08260   0.00000  Uiso   1.00
C366   C     0.66056   0.50640   0.23596   0.00000  Uiso   1.00
C367   C     0.34047   0.49278   0.26419   0.00000  Uiso   1.00
C368   C     0.43042   0.54896   0.42261   0.00000  Uiso   1.00
C369   C     0.51538   0.65603   0.24049   0.00000  Uiso   1.00
C370   C     0.48336   0.34584   0.26149   0.00000  Uiso   1.00
C371   C     0.48912   0.38970   0.25881   0.00000  Uiso   1.00
C372   C     0.51018   0.61110   0.24167   0.00000  Uiso   1.00
C373   C     0.52206   0.47837   0.14399   0.00000  Uiso   1.00
C374   C     0.47834   0.52106   0.35639   0.00000  Uiso   1.00
C375   C     0.46671   0.52855   0.40013   0.00000  Uiso   1.00
C376   C     0.53202   0.47055   0.10109   0.00000  Uiso   1.00
C377   C     0.41740   0.54958   0.46380   0.00000  Uiso   1.00
C378   C     0.37510   0.56128   0.20131   0.00000  Uiso   1.00
C379   C     0.49126   0.51309   0.41997   0.00000  Uiso   1.00
C380   C     0.65704   0.46010   0.32631   0.00000  Uiso   1.00
C381   C     0.55745   0.34661   0.17768   0.00000  Uiso   1.00
C382   C     0.61757   0.45249   0.11787   0.00000  Uiso   1.00
C383   C     0.41747   0.60972   0.39878   0.00000  Uiso   1.00
C384   C     0.41079   0.44156   0.06941   0.00000  Uiso   1.00
C385   C     0.48142   0.51836   0.46150   0.00000  Uiso   1.00
C386   C     0.44115   0.53231   0.48345   0.00000  Uiso   1.00
C387   C     0.50871   0.50616   0.48136   0.00000  Uiso   1.00
C388   C     0.49114   0.49891   0.02175   0.00000  Uiso   1.00
C389   C     0.44701   0.50482   0.04127   0.00000  Uiso   1.00
C390   C     0.42392   0.52559   0.02358   0.00000  Uiso   1.00
H391   H     0.60840   0.43442   0.02055   0.00000  Uiso   1.00
H392   H     0.62885   0.45244   0.35183   0.00000  Uiso   1.00
H393   H     0.35029   0.47699   0.33786   0.00000  Uiso   1.00
H394   H     0.33390   0.43047   0.30859   0.00000  Uiso   1.00
H395   H     0.58203   0.66244   0.21937   0.00000  Uiso   1.00
H396   H     0.58893   0.36370   0.16310   0.00000  Uiso   1.00
H397   H     0.53140   0.36461   0.17706   0.00000  Uiso   1.00
H398   H     0.55424   0.64881   0.16073   0.00000  Uiso   1.00
H399   H     0.60294   0.40171   0.07932   0.00000  Uiso   1.00
H400   H     0.65091   0.44369   0.10564   0.00000  Uiso   1.00
H401   H     0.60586   0.44694   0.14955   0.00000  Uiso   1.00
H402   H     0.48376   0.50734   0.10123   0.00000  Uiso   1.00
H403   H     0.61879   0.48629   0.11567   0.00000  Uiso   1.00
H404   H     0.37198   0.56016   0.41714   0.00000  Uiso   1.00
H405   H     0.41229   0.62881   0.42801   0.00000  Uiso   1.00
H406   H     0.39770   0.62007   0.38216   0.00000  Uiso   1.00
H407   H     0.45200   0.61477   0.38160   0.00000  Uiso   1.00
H408   H     0.40172   0.50177   0.09723   0.00000  Uiso   1.00
H409   H     0.39570   0.42872   0.09824   0.00000  Uiso   1.00
H410   H     0.43891   0.42438   0.05298   0.00000  Uiso   1.00
H411   H     0.38690   0.43679   0.05215   0.00000  Uiso   1.00
H412   H     0.38803   0.56316   0.47984   0.00000  Uiso   1.00
H413   H     0.51724   0.49516   0.40279   0.00000  Uiso   1.00
H414   H     0.34653   0.50855   0.17534   0.00000  Uiso   1.00
H415   H     0.39984   0.56694   0.17284   0.00000  Uiso   1.00
H416   H     0.39076   0.56961   0.22550   0.00000  Uiso   1.00
H417   H     0.34911   0.58157   0.20600   0.00000  Uiso   1.00
H418   H     0.63099   0.51196   0.31813   0.00000  Uiso   1.00
I419   I     0.35978   0.53993   0.05613   0.00000  Uiso   1.00
I420   I     0.41838   0.65774   0.29229   0.00000  Uiso   1.00
I421   I     0.63848   0.46214   0.44534   0.00000  Uiso   1.00
I422   I     0.59123   0.54009   0.41736   0.00000  Uiso   1.00
N423   N     0.35758   0.51789   0.19987   0.00000  Uiso   1.00
N424   N     0.64482   0.48586   0.30246   0.00000  Uiso   1.00
N425   N     0.55566   0.34213   0.21801   0.00000  Uiso   1.00
N426   N     0.58946   0.42727   0.09665   0.00000  Uiso   1.00
N427   N     0.40474   0.56610   0.40413   0.00000  Uiso   1.00
N428   N     0.42450   0.48551   0.07628   0.00000  Uiso   1.00
O429   O     0.50000   0.50000   0.25000   0.00000  Uiso   1.00
O430   O     0.49027   0.45726   0.16625   0.00000  Uiso   1.00
O431   O     0.46020   0.53979   0.33749   0.00000  Uiso   1.00
O432   O     0.54421   0.50826   0.15877   0.00000  Uiso   1.00
O433   O     0.50532   0.49468   0.33749   0.00000  Uiso   1.00
O434   O     0.51182   0.41434   0.27821   0.00000  Uiso   1.00
O435   O     0.47914   0.59469   0.26767   0.00000  Uiso   1.00
O436   O     0.40785   0.46584   0.23607   0.00000  Uiso   1.00
O437   O     0.60119   0.52512   0.21806   0.00000  Uiso   1.00
O438   O     0.40323   0.52293   0.27820   0.00000  Uiso   1.00
O439   O     0.58773   0.48610   0.26768   0.00000  Uiso   1.00
O440   O     0.47133   0.40236   0.23607   0.00000  Uiso   1.00
O441   O     0.53771   0.58860   0.21806   0.00000  Uiso   1.00
Zn442  Zn    0.52577   0.47423   0.28278   0.00000  Uiso   1.00
Zn443  Zn    0.46792   0.45711   0.22258   0.00000  Uiso   1.00
Zn444  Zn    0.54500   0.52997   0.21188   0.00000  Uiso   1.00
Zn445  Zn    0.46131   0.53868   0.28277   0.00000  Uiso   1.00
C446   C     0.71940   0.49372   0.25877   0.00000  Uiso   1.00
C447   C     0.88642   0.50134   0.46237   0.00000  Uiso   1.00
C448   C     0.90870   0.47838   0.47889   0.00000  Uiso   1.00
C449   C     0.94773   0.50650   0.24098   0.00000  Uiso   1.00
C450   C     0.89087   0.46966   0.01849   0.00000  Uiso   1.00
C451   C     0.85138   0.48495   0.04109   0.00000  Uiso   1.00
C452   C     0.91330   0.44922   0.03722   0.00000  Uiso   1.00
C453   C     0.90042   0.44906   0.07842   0.00000  Uiso   1.00
C454   C     0.84156   0.48841   0.08260   0.00000  Uiso   1.00
C455   C     0.99389   0.50640   0.23596   0.00000  Uiso   1.00
C456   C     0.67381   0.49278   0.26419   0.00000  Uiso   1.00
C457   C     0.76375   0.54896   0.42261   0.00000  Uiso   1.00
C458   C     0.84872   0.65603   0.24049   0.00000  Uiso   1.00
C459   C     0.81669   0.34584   0.26149   0.00000  Uiso   1.00
C460   C     0.82245   0.38970   0.25881   0.00000  Uiso   1.00
C461   C     0.84351   0.61110   0.24167   0.00000  Uiso   1.00
C462   C     0.85539   0.47837   0.14399   0.00000  Uiso   1.00
C463   C     0.81168   0.52106   0.35639   0.00000  Uiso   1.00
C464   C     0.80005   0.52855   0.40013   0.00000  Uiso   1.00
C465   C     0.86536   0.47055   0.10109   0.00000  Uiso   1.00
C466   C     0.75073   0.54958   0.46380   0.00000  Uiso   1.00
C467   C     0.70844   0.56128   0.20131   0.00000  Uiso   1.00
C468   C     0.82460   0.51309   0.41997   0.00000  Uiso   1.00
C469   C     0.99037   0.46010   0.32631   0.00000  Uiso   1.00
C470   C     0.89079   0.34661   0.17768   0.00000  Uiso   1.00
C471   C     0.95090   0.45249   0.11787   0.00000  Uiso   1.00
C472   C     0.75080   0.60972   0.39878   0.00000  Uiso   1.00
C473   C     0.74412   0.44156   0.06941   0.00000  Uiso   1.00
C474   C     0.81475   0.51836   0.46150   0.00000  Uiso   1.00
C475   C     0.77448   0.53231   0.48345   0.00000  Uiso   1.00
C476   C     0.84205   0.50616   0.48136   0.00000  Uiso   1.00
C477   C     0.82447   0.49891   0.02175   0.00000  Uiso   1.00
C478   C     0.78034   0.50482   0.04127   0.00000  Uiso   1.00
C479   C     0.75725   0.52559   0.02358   0.00000  Uiso   1.00
H480   H     0.94173   0.43442   0.02055   0.00000  Uiso   1.00
H481   H     0.96219   0.45244   0.35183   0.00000  Uiso   1.00
H482   H     0.68362   0.47699   0.33786   0.00000  Uiso   1.00
H483   H     0.66723   0.43047   0.30859   0.00000  Uiso   1.00
H484   H     0.91536   0.66244   0.21937   0.00000  Uiso   1.00
H485   H     0.92226   0.36370   0.16310   0.00000  Uiso   1.00
H486   H     0.86473   0.36461   0.17706   0.00000  Uiso   1.00
H487   H     0.88757   0.64881   0.16073   0.00000  Uiso   1.00
H488   H     0.93627   0.40171   0.07932   0.00000  Uiso   1.00
H489   H     0.98424   0.44369   0.10564   0.00000  Uiso   1.00
H490   H     0.93919   0.44694   0.14955   0.00000  Uiso   1.00
H491   H     0.81710   0.50734   0.10123   0.00000  Uiso   1.00
H492   H     0.95213   0.48629   0.11567   0.00000  Uiso   1.00
H493   H     0.70532   0.56016   0.41714   0.00000  Uiso   1.00
H494   H     0.74563   0.62881   0.42801   0.00000  Uiso   1.00
H495   H     0.73103   0.62007   0.38216   0.00000  Uiso   1.00
H496   H     0.78534   0.61477   0.38160   0.00000  Uiso   1.00
H497   H     0.73506   0.50177   0.09723   0.00000  Uiso   1.00
H498   H     0.72903   0.42872   0.09824   0.00000  Uiso   1.00
H499   H     0.77225   0.42438   0.05298   0.00000  Uiso   1.00
H500   H     0.72023   0.43679   0.05215   0.00000  Uiso   1.00
H501   H     0.72136   0.56316   0.47984   0.00000  Uiso   1.00
H502   H     0.85057   0.49516   0.40279   0.00000  Uiso   1.00
H503   H     0.67986   0.50855   0.17534   0.00000  Uiso   1.00
H504   H     0.73317   0.56694   0.17284   0.00000  Uiso   1.00
H505   H     0.72410   0.56961   0.22550   0.00000  Uiso   1.00
H506   H     0.68244   0.58157   0.20600   0.00000  Uiso   1.00
H507   H     0.96433   0.51196   0.31813   0.00000  Uiso   1.00
I508   I     0.69312   0.53993   0.05613   0.00000  Uiso   1.00
I509   I     0.75171   0.65774   0.29229   0.00000  Uiso   1.00
I510   I     0.97181   0.46214   0.44534   0.00000  Uiso   1.00
I511   I     0.92457   0.54009   0.41736   0.00000  Uiso   1.00
N512   N     0.69091   0.51789   0.19987   0.00000  Uiso   1.00
N513   N     0.97815   0.48586   0.30246   0.00000  Uiso   1.00
N514   N     0.88899   0.34213   0.21801   0.00000  Uiso   1.00
N515   N     0.92280   0.42727   0.09665   0.00000  Uiso   1.00
N516   N     0.73807   0.56610   0.40413   0.00000  Uiso   1.00
N517   N     0.75783   0.48551   0.07628   0.00000  Uiso   1.00
O518   O     0.83333   0.50000   0.25000   0.00000  Uiso   1.00
O519   O     0.82360   0.45726   0.16625   0.00000  Uiso   1.00
O520   O     0.79354   0.53979   0.33749   0.00000  Uiso   1.00
O521   O     0.87755   0.50826   0.15877   0.00000  Uiso   1.00
O522   O     0.83865   0.49468   0.33749   0.00000  Uiso   1.00
O523   O     0.84515   0.41434   0.27821   0.00000  Uiso   1.00
O524   O     0.81247   0.59469   0.26767   0.00000  Uiso   1.00
O525   O     0.74119   0.46584   0.23607   0.00000  Uiso   1.00
O526   O     0.93452   0.52512   0.21806   0.00000  Uiso   1.00
O527   O     0.73656   0.52293   0.27820   0.00000  Uiso   1.00
O528   O     0.92106   0.48610   0.26768   0.00000  Uiso   1.00
O529   O     0.80467   0.40236   0.23607   0.00000  Uiso   1.00
O530   O     0.87104   0.58860   0.21806   0.00000  Uiso   1.00
Zn531  Zn    0.85910   0.47423   0.28278   0.00000  Uiso   1.00
Zn532  Zn    0.80125   0.45711   0.22258   0.00000  Uiso   1.00
Zn533  Zn    0.87833   0.52997   0.21188   0.00000  Uiso   1.00
Zn534  Zn    0.79465   0.53868   0.28277   0.00000  Uiso   1.00
C535   C     0.05273   0.82706   0.25877   0.00000  Uiso   1.00
C536   C     0.21975   0.83467   0.46237   0.00000  Uiso   1.00
C537   C     0.24204   0.81171   0.47889   0.00000  Uiso   1.00
C538   C     0.28106   0.83983   0.24098   0.00000  Uiso   1.00
C539   C     0.22421   0.80299   0.01849   0.00000  Uiso   1.00
C540   C     0.18472   0.81829   0.04109   0.00000  Uiso   1.00
C541   C     0.24663   0.78255   0.03722   0.00000  Uiso   1.00
C542   C     0.23375   0.78240   0.07842   0.00000  Uiso   1.00
C543   C     0.17489   0.82174   0.08260   0.00000  Uiso   1.00
C544   C     0.32722   0.83973   0.23596   0.00000  Uiso   1.00
C545   C     0.00714   0.82612   0.26419   0.00000  Uiso   1.00
C546   C     0.09708   0.88229   0.42261   0.00000  Uiso   1.00
C547   C     0.18205   0.98936   0.24049   0.00000  Uiso   1.00
C548   C     0.15003   0.67918   0.26149   0.00000  Uiso   1.00
C549   C     0.15579   0.72304   0.25881   0.00000  Uiso   1.00
C550   C     0.17685   0.94443   0.24167   0.00000  Uiso   1.00
C551   C     0.18872   0.81170   0.14399   0.00000  Uiso   1.00
C552   C     0.14501   0.85439   0.35639   0.00000  Uiso   1.00
C553   C     0.13338   0.86188   0.40013   0.00000  Uiso   1.00
C554   C     0.19869   0.80388   0.10109   0.00000  Uiso   1.00
C555   C     0.08406   0.88292   0.46380   0.00000  Uiso   1.00
C556   C     0.04177   0.89461   0.20131   0.00000  Uiso   1.00
C557   C     0.15793   0.84643   0.41997   0.00000  Uiso   1.00
C558   C     0.32370   0.79343   0.32631   0.00000  Uiso   1.00
C559   C     0.22412   0.67994   0.17768   0.00000  Uiso   1.00
C560   C     0.28423   0.78583   0.11787   0.00000  Uiso   1.00
C561   C     0.08414   0.94305   0.39878   0.00000  Uiso   1.00
C562   C     0.07746   0.77490   0.06941   0.00000  Uiso   1.00
C563   C     0.14808   0.85169   0.46150   0.00000  Uiso   1.00
C564   C     0.10782   0.86565   0.48345   0.00000  Uiso   1.00
C565   C     0.17538   0.83950   0.48136   0.00000  Uiso   1.00
C566   C     0.15781   0.83224   0.02175   0.00000  Uiso   1.00
C567   C     0.11367   0.83816   0.04127   0.00000  Uiso   1.00
C568   C     0.09058   0.85893   0.02358   0.00000  Uiso   1.00
H569   H     0.27507   0.76775   0.02055   0.00000  Uiso   1.00
H570   H     0.29552   0.78578   0.35183   0.00000  Uiso   1.00
H571   H     0.01696   0.81032   0.33786   0.00000  Uiso   1.00
H572   H     0.00056   0.76381   0.30859   0.00000  Uiso   1.00
H573   H     0.24870   0.99577   0.21937   0.00000  Uiso   1.00
H574   H     0.25559   0.69703   0.16310   0.00000  Uiso   1.00
H575   H     0.19806   0.69795   0.17706   0.00000  Uiso   1.00
H576   H     0.22090   0.98214   0.16073   0.00000  Uiso   1.00
H577   H     0.26960   0.73505   0.07932   0.00000  Uiso   1.00
H578   H     0.31758   0.77703   0.10564   0.00000  Uiso   1.00
H579   H     0.27252   0.78027   0.14955   0.00000  Uiso   1.00
H580   H     0.15043   0.84068   0.10123   0.00000  Uiso   1.00
H581   H     0.28546   0.81963   0.11567   0.00000  Uiso   1.00
H582   H     0.03865   0.89350   0.41714   0.00000  Uiso   1.00
H583   H     0.07896   0.96215   0.42801   0.00000  Uiso   1.00
H584   H     0.06437   0.95340   0.38216   0.00000  Uiso   1.00
H585   H     0.11867   0.94810   0.38160   0.00000  Uiso   1.00
H586   H     0.06839   0.83511   0.09723   0.00000  Uiso   1.00
H587   H     0.06236   0.76206   0.09824   0.00000  Uiso   1.00
H588   H     0.10558   0.75771   0.05298   0.00000  Uiso   1.00
H589   H     0.05356   0.77013   0.05215   0.00000  Uiso   1.00
H590   H     0.05470   0.89649   0.47984   0.00000  Uiso   1.00
H591   H     0.18391   0.82849   0.40279   0.00000  Uiso   1.00
H592   H     0.01319   0.84188   0.17534   0.00000  Uiso   1.00
H593   H     0.06650   0.90027   0.17284   0.00000  Uiso   1.00
H594   H     0.05743   0.90294   0.22550   0.00000  Uiso   1.00
H595   H     0.01577   0.91490   0.20600   0.00000  Uiso   1.00
H596   H     0.29766   0.84529   0.31813   0.00000  Uiso   1.00
I597   I     0.02645   0.87326   0.05613   0.00000  Uiso   1.00
I598   I     0.08504   0.99107   0.29229   0.00000  Uiso   1.00
I599   I     0.30515   0.79547   0.44534   0.00000  Uiso   1.00
I600   I     0.25790   0.87343   0.41736   0.00000  Uiso   1.00
N601   N     0.02424   0.85122   0.19987   0.00000  Uiso   1.00
N602   N     0.31149   0.81919   0.30246   0.00000  Uiso   1.00
N603   N     0.22232   0.67547   0.21801   0.00000  Uiso   1.00
N604   N     0.25613   0.76060   0.09665   0.00000  Uiso   1.00
N605   N     0.07140   0.89943   0.40413   0.00000  Uiso   1.00
N606   N     0.09116   0.81884   0.07628   0.00000  Uiso   1.00
O607   O     0.16667   0.83333   0.25000   0.00000  Uiso   1.00
O608   O     0.15693   0.79060   0.16625   0.00000  Uiso   1.00
O609   O     0.12687   0.87313   0.33749   0.00000  Uiso   1.00
O610   O     0.21088   0.84159   0.15877   0.00000  Uiso   1.00
O611   O     0.17198   0.82802   0.33749   0.00000  Uiso   1.00
O612   O     0.17849   0.74768   0.27821   0.00000  Uiso   1.00
O613   O     0.14581   0.92803   0.26767   0.00000  Uiso   1.00
O614   O     0.07452   0.79917   0.23607   0.00000  Uiso   1.00
O615   O     0.26785   0.85845   0.21806   0.00000  Uiso   1.00
O616   O     0.06990   0.85627   0.27820   0.00000  Uiso   1.00
O617   O     0.25440   0.81944   0.26768   0.00000  Uiso   1.00
O618   O     0.13800   0.73570   0.23607   0.00000  Uiso   1.00
O619   O     0.20437   0.92193   0.21806   0.00000  Uiso   1.00
Zn620  Zn    0.19244   0.80756   0.28278   0.00000  Uiso   1.00
Zn621  Zn    0.13459   0.79044   0.22258   0.00000  Uiso   1.00
Zn622  Zn    0.21166   0.86331   0.21188   0.00000  Uiso   1.00
Zn623  Zn    0.12798   0.87202   0.28277   0.00000  Uiso   1.00
C624   C     0.38607   0.82706   0.25877   0.00000  Uiso   1.00
C625   C     0.55309   0.83467   0.46237   0.00000  Uiso   1.00
C626   C     0.57537   0.81171   0.47889   0.00000  Uiso   1.00
C627   C     0.61440   0.83983   0.24098   0.00000  Uiso   1.00
C628   C     0.55754   0.80299   0.01849   0.00000  Uiso   1.00
C629   C     0.51805   0.81829   0.04109   0.00000  Uiso   1.00
C630   C     0.57997   0.78255   0.03722   0.00000  Uiso   1.00
C631   C     0.56709   0.78240   0.07842   0.00000  Uiso   1.00
C632   C     0.50823   0.82174   0.08260   0.00000  Uiso   1.00
C633   C     0.66056   0.83973   0.23596   0.00000  Uiso   1.00
C634   C     0.34047   0.82612   0.26419   0.00000  Uiso   1.00
C635   C     0.43042   0.88229   0.42261   0.00000  Uiso   1.00
C636   C     0.51538   0.98936   0.24049   0.00000  Uiso   1.00
C637   C     0.48336   0.67918   0.26149   0.00000  Uiso   1.00
C638   C     0.48912   0.72304   0.25881   0.00000  Uiso   1.00
C639   C     0.51018   0.94443   0.24167   0.00000  Uiso   1.00
C640   C     0.52206   0.81170   0.14399   0.00000  Uiso   1.00
C641   C     0.47834   0.85439   0.35639   0.00000  Uiso   1.00
C642   C     0.46671   0.86188   0.40013   0.00000  Uiso   1.00
C643   C     0.53202   0.80388   0.10109   0.00000  Uiso   1.00
C644   C     0.41740   0.88292   0.46380   0.00000  Uiso   1.00
C645   C     0.37510   0.89461   0.20131   0.00000  Uiso   1.00
C646   C     0.49126   0.84643   0.41997   0.00000  Uiso   1.00
C647   C     0.65704   0.79343   0.32631   0.00000  Uiso   1.00
C648   C     0.55745   0.67994   0.17768   0.00000  Uiso   1.00
C649   C     0.61757   0.78583   0.11787   0.00000  Uiso   1.00
C650   C     0.41747   0.94305   0.39878   0.00000  Uiso   1.00
C651   C     0.41079   0.77490   0.06941   0.00000  Uiso   1.00
C652   C     0.48142   0.85169   0.46150   0.00000  Uiso   1.00
C653   C     0.44115   0.86565   0.48345   0.00000  Uiso   1.00
C654   C     0.50871   0.83950   0.48136   0.00000  Uiso   1.00
C655   C     0.49114   0.83224   0.02175   0.00000  Uiso   1.00
C656   C     0.44701   0.83816   0.04127   0.00000  Uiso   1.00
C657   C     0.42392   0.85893   0.02358   0.00000  Uiso   1.00
H658   H     0.60840   0.76775   0.02055   0.00000  Uiso   1.00
H659   H     0.62885   0.78578   0.35183   0.00000  Uiso   1.00
H660   H     0.35029   0.81032   0.33786   0.00000  Uiso   1.00
H661   H     0.33390   0.76381   0.30859   0.00000  Uiso   1.00
H662   H     0.58203   0.99577   0.21937   0.00000  Uiso   1.00
H663   H     0.58893   0.69703   0.16310   0.00000  Uiso   1.00
H664   H     0.53140   0.69795   0.17706   0.00000  Uiso   1.00
H665   H     0.55424   0.98214   0.16073   0.00000  Uiso   1.00
H666   H     0.60294   0.73505   0.07932   0.00000  Uiso   1.00
H667   H     0.65091   0.77703   0.10564   0.00000  Uiso   1.00
H668   H     0.60586   0.78027   0.14955   0.00000  Uiso   1.00
H669   H     0.48376   0.84068   0.10123   0.00000  Uiso   1.00
H670   H     0.61879   0.81963   0.11567   0.00000  Uiso   1.00
H671   H     0.37198   0.89350   0.41714   0.00000  Uiso   1.00
H672   H     0.41229   0.96215   0.42801   0.00000  Uiso   1.00
H673   H     0.39770   0.95340   0.38216   0.00000  Uiso   1.00
H674   H     0.45200   0.94810   0.38160   0.00000  Uiso   1.00
H675   H     0.40172   0.83511   0.09723   0.00000  Uiso   1.00
H676   H     0.39570   0.76206   0.09824   0.00000  Uiso   1.00
H677   H     0.43891   0.75771   0.05298   0.00000  Uiso   1.00
H678   H     0.38690   0.77013   0.05215   0.00000  Uiso   1.00
H679   H     0.38803   0.89649   0.47984   0.00000  Uiso   1.00
H680   H     0.51724   0.82849   0.40279   0.00000  Uiso   1.00
H681   H     0.34653   0.84188   0.17534   0.00000  Uiso   1.00
H682   H     0.39984   0.90027   0.17284   0.00000  Uiso   1.00
H683   H     0.39076   0.90294   0.22550   0.00000  Uiso   1.00
H684   H     0.34911   0.91490   0.20600   0.00000  Uiso   1.00
H685   H     0.63099   0.84529   0.31813   0.00000  Uiso   1.00
I686   I     0.35978   0.87326   0.05613   0.00000  Uiso   1.00
I687   I     0.41838   0.99107   0.29229   0.00000  Uiso   1.00
I688   I     0.63848   0.79547   0.44534   0.00000  Uiso   1.00
I689   I     0.59123   0.87343   0.41736   0.00000  Uiso   1.00
N690   N     0.35758   0.85122   0.19987   0.00000  Uiso   1.00
N691   N     0.64482   0.81919   0.30246   0.00000  Uiso   1.00
N692   N     0.55566   0.67547   0.21801   0.00000  Uiso   1.00
N693   N     0.58946   0.76060   0.09665   0.00000  Uiso   1.00
N694   N     0.40474   0.89943   0.40413   0.00000  Uiso   1.00
N695   N     0.42450   0.81884   0.07628   0.00000  Uiso   1.00
O696   O     0.50000   0.83333   0.25000   0.00000  Uiso   1.00
O697   O     0.49027   0.79060   0.16625   0.00000  Uiso   1.00
O698   O     0.46020   0.87313   0.33749   0.00000  Uiso   1.00
O699   O     0.54421   0.84159   0.15877   0.00000  Uiso   1.00
O700   O     0.50532   0.82802   0.33749   0.00000  Uiso   1.00
O701   O     0.51182   0.74768   0.27821   0.00000  Uiso   1.00
O702   O     0.47914   0.92803   0.26767   0.00000  Uiso   1.00
O703   O     0.40785   0.79917   0.23607   0.00000  Uiso   1.00
O704   O     0.60119   0.85845   0.21806   0.00000  Uiso   1.00
O705   O     0.40323   0.85627   0.27820   0.00000  Uiso   1.00
O706   O     0.58773   0.81944   0.26768   0.00000  Uiso   1.00
O707   O     0.47133   0.73570   0.23607   0.00000  Uiso   1.00
O708   O     0.53771   0.92193   0.21806   0.00000  Uiso   1.00
Zn709  Zn    0.52577   0.80756   0.28278   0.00000  Uiso   1.00
Zn710  Zn    0.46792   0.79044   0.22258   0.00000  Uiso   1.00
Zn711  Zn    0.54500   0.86331   0.21188   0.00000  Uiso   1.00
Zn712  Zn    0.46131   0.87202   0.28277   0.00000  Uiso   1.00
C713   C     0.71940   0.82706   0.25877   0.00000  Uiso   1.00
C714   C     0.88642   0.83467   0.46237   0.00000  Uiso   1.00
C715   C     0.90870   0.81171   0.47889   0.00000  Uiso   1.00
C716   C     0.94773   0.83983   0.24098   0.00000  Uiso   1.00
C717   C     0.89087   0.80299   0.01849   0.00000  Uiso   1.00
C718   C     0.85138   0.81829   0.04109   0.00000  Uiso   1.00
C719   C     0.91330   0.78255   0.03722   0.00000  Uiso   1.00
C720   C     0.90042   0.78240   0.07842   0.00000  Uiso   1.00
C721   C     0.84156   0.82174   0.08260   0.00000  Uiso   1.00
C722   C     0.99389   0.83973   0.23596   0.00000  Uiso   1.00
C723   C     0.67381   0.82612   0.26419   0.00000  Uiso   1.00
C724   C     0.76375   0.88229   0.42261   0.00000  Uiso   1.00
C725   C     0.84872   0.98936   0.24049   0.00000  Uiso   1.00
C726   C     0.81669   0.67918   0.26149   0.00000  Uiso   1.00
C727   C     0.82245   0.72304   0.25881   0.00000  Uiso   1.00
C728   C     0.84351   0.94443   0.24167   0.00000  Uiso   1.00
C729   C     0.85539   0.81170   0.14399   0.00000  Uiso   1.00
C730   C     0.81168   0.85439   0.35639   0.00000  Uiso   1.00
C731   C     0.80005   0.86188   0.40013   0.00000  Uiso   1.00
C732   C     0.86536   0.80388   0.10109   0.00000  Uiso   1.00
C733   C     0.75073   0.88292   0.46380   0.00000  Uiso   1.00
C734   C     0.70844   0.89461   0.20131   0.00000  Uiso   1.00
C735   C     0.82460   0.84643   0.41997   0.00000  Uiso   1.00
C736   C     0.99037   0.79343   0.32631   0.00000  Uiso   1.00
C737   C     0.89079   0.67994   0.17768   0.00000  Uiso   1.00
C738   C     0.95090   0.78583   0.11787   0.00000  Uiso   1.00
C739   C     0.75080   0.94305   0.39878   0.00000  Uiso   1.00
C740   C     0.74412   0.77490   0.06941   0.00000  Uiso   1.00
C741   C     0.81475   0.85169   0.46150   0.00000  Uiso   1.00
C742   C     0.77448   0.86565   0.48345   0.00000  Uiso   1.00
C743   C     0.84205   0.83950   0.48136   0.00000  Uiso   1.00
C744   C     0.82447   0.83224   0.02175   0.00000  Uiso   1.00
C745   C     0.78034   0.83816   0.04127   0.00000  Uiso   1.00
C746   C     0.75725   0.85893   0.02358   0.00000  Uiso   1.00
H747   H     0.94173   0.76775   0.02055   0.00000  Uiso   1.00
H748   H     0.96219   0.78578   0.35183   0.00000  Uiso   1.00
H749   H     0.68362   0.81032   0.33786   0.00000  Uiso   1.00
H750   H     0.66723   0.76381   0.30859   0.00000  Uiso   1.00
H751   H     0.91536   0.99577   0.21937   0.00000  Uiso   1.00
H752   H     0.92226   0.69703   0.16310   0.00000  Uiso   1.00
H753   H     0.86473   0.69795   0.17706   0.00000  Uiso   1.00
H754   H     0.88757   0.98214   0.16073   0.00000  Uiso   1.00
H755   H     0.93627   0.73505   0.07932   0.00000  Uiso   1.00
H756   H     0.98424   0.77703   0.10564   0.00000  Uiso   1.00
H757   H     0.93919   0.78027   0.14955   0.00000  Uiso   1.00
H758   H     0.81710   0.84068   0.10123   0.00000  Uiso   1.00
H759   H     0.95213   0.81963   0.11567   0.00000  Uiso   1.00
H760   H     0.70532   0.89350   0.41714   0.00000  Uiso   1.00
H761   H     0.74563   0.96215   0.42801   0.00000  Uiso   1.00
H762   H     0.73103   0.95340   0.38216   0.00000  Uiso   1.00
H763   H     0.78534   0.94810   0.38160   0.00000  Uiso   1.00
H764   H     0.73506   0.83511   0.09723   0.00000  Uiso   1.00
H765   H     0.72903   0.76206   0.09824   0.00000  Uiso   1.00
H766   H     0.77225   0.75771   0.05298   0.00000  Uiso   1.00
H767   H     0.72023   0.77013   0.05215   0.00000  Uiso   1.00
H768   H     0.72136   0.89649   0.47984   0.00000  Uiso   1.00
H769   H     0.85057   0.82849   0.40279   0.00000  Uiso   1.00
H770   H     0.67986   0.84188   0.17534   0.00000  Uiso   1.00
H771   H     0.73317   0.90027   0.17284   0.00000  Uiso   1.00
H772   H     0.72410   0.90294   0.22550   0.00000  Uiso   1.00
H773   H     0.68244   0.91490   0.20600   0.00000  Uiso   1.00
H774   H     0.96433   0.84529   0.31813   0.00000  Uiso   1.00
I775   I     0.69312   0.87326   0.05613   0.00000  Uiso   1.00
I776   I     0.75171   0.99107   0.29229   0.00000  Uiso   1.00
I777   I     0.97181   0.79547   0.44534   0.00000  Uiso   1.00
I778   I     0.92457   0.87343   0.41736   0.00000  Uiso   1.00
N779   N     0.69091   0.85122   0.19987   0.00000  Uiso   1.00
N780   N     0.97815   0.81919   0.30246   0.00000  Uiso   1.00
N781   N     0.88899   0.67547   0.21801   0.00000  Uiso   1.00
N782   N     0.92280   0.76060   0.09665   0.00000  Uiso   1.00
N783   N     0.73807   0.89943   0.40413   0.00000  Uiso   1.00
N784   N     0.75783   0.81884   0.07628   0.00000  Uiso   1.00
O785   O     0.83333   0.83333   0.25000   0.00000  Uiso   1.00
O786   O     0.82360   0.79060   0.16625   0.00000  Uiso   1.00
O787   O     0.79354   0.87313   0.33749   0.00000  Uiso   1.00
O788   O     0.87755   0.84159   0.15877   0.00000  Uiso   1.00
O789   O     0.83865   0.82802   0.33749   0.00000  Uiso   1.00
O790   O     0.84515   0.74768   0.27821   0.00000  Uiso   1.00
O791   O     0.81247   0.92803   0.26767   0.00000  Uiso   1.00
O792   O     0.74119   0.79917   0.23607   0.00000  Uiso   1.00
O793   O     0.93452   0.85845   0.21806   0.00000  Uiso   1.00
O794   O     0.73656   0.85627   0.27820   0.00000  Uiso   1.00
O795   O     0.92106   0.81944   0.26768   0.00000  Uiso   1.00
O796   O     0.80467   0.73570   0.23607   0.00000  Uiso   1.00
O797   O     0.87104   0.92193   0.21806   0.00000  Uiso   1.00
Zn798  Zn    0.85910   0.80756   0.28278   0.00000  Uiso   1.00
Zn799  Zn    0.80125   0.79044   0.22258   0.00000  Uiso   1.00
Zn800  Zn    0.87833   0.86331   0.21188   0.00000  Uiso   1.00
Zn801  Zn    0.79465   0.87202   0.28277   0.00000  Uiso   1.00
C802   C     0.05273   0.16039   0.75877   0.00000  Uiso   1.00
C803   C     0.21975   0.16800   0.96237   0.00000  Uiso   1.00
C804   C     0.24204   0.14505   0.97889   0.00000  Uiso   1.00
C805   C     0.28106   0.17316   0.74098   0.00000  Uiso   1.00
C806   C     0.22421   0.13633   0.51849   0.00000  Uiso   1.00
C807   C     0.18472   0.15162   0.54109   0.00000  Uiso   1.00
C808   C     0.24663   0.11589   0.53722   0.00000  Uiso   1.00
C809   C     0.23375   0.11573   0.57842   0.00000  Uiso   1.00
C810   C     0.17489   0.15508   0.58260   0.00000  Uiso   1.00
C811   C     0.32722   0.17307   0.73596   0.00000  Uiso   1.00
C812   C     0.00714   0.15945   0.76419   0.00000  Uiso   1.00
C813   C     0.09708   0.21563   0.92261   0.00000  Uiso   1.00
C814   C     0.18205   0.32270   0.74049   0.00000  Uiso   1.00
C815   C     0.15003   0.01251   0.76149   0.00000  Uiso   1.00
C816   C     0.15579   0.05637   0.75881   0.00000  Uiso   1.00
C817   C     0.17685   0.27776   0.74167   0.00000  Uiso   1.00
C818   C     0.18872   0.14504   0.64399   0.00000  Uiso   1.00
C819   C     0.14501   0.18772   0.85639   0.00000  Uiso   1.00
C820   C     0.13338   0.19522   0.90013   0.00000  Uiso   1.00
C821   C     0.19869   0.13722   0.60109   0.00000  Uiso   1.00
C822   C     0.08406   0.21625   0.96380   0.00000  Uiso   1.00
C823   C     0.04177   0.22794   0.70131   0.00000  Uiso   1.00
C824   C     0.15793   0.17976   0.91997   0.00000  Uiso   1.00
C825   C     0.32370   0.12677   0.82631   0.00000  Uiso   1.00
C826   C     0.22412   0.01328   0.67768   0.00000  Uiso   1.00
C827   C     0.28423   0.11916   0.61787   0.00000  Uiso   1.00
C828   C     0.08414   0.27638   0.89878   0.00000  Uiso   1.00
C829   C     0.07746   0.10823   0.56941   0.00000  Uiso   1.00
C830   C     0.14808   0.18503   0.96150   0.00000  Uiso   1.00
C831   C     0.10782   0.19898   0.98345   0.00000  Uiso   1.00
C832   C     0.17538   0.17283   0.98136   0.00000  Uiso   1.00
C833   C     0.15781   0.16558   0.52175   0.00000  Uiso   1.00
C834   C     0.11367   0.17149   0.54127   0.00000  Uiso   1.00
C835   C     0.09058   0.19226   0.52358   0.00000  Uiso   1.00
H836   H     0.27507   0.10109   0.52055   0.00000  Uiso   1.00
H837   H     0.29552   0.11911   0.85183   0.00000  Uiso   1.00
H838   H     0.01696   0.14366   0.83786   0.00000  Uiso   1.00
H839   H     0.00056   0.09714   0.80859   0.00000  Uiso   1.00
H840   H     0.24870   0.32910   0.71937   0.00000  Uiso   1.00
H841   H     0.25559   0.03036   0.66310   0.00000  Uiso   1.00
H842   H     0.19806   0.03128   0.67706   0.00000  Uiso   1.00
H843   H     0.22090   0.31547   0.66073   0.00000  Uiso   1.00
H844   H     0.26960   0.06838   0.57932   0.00000  Uiso   1.00
H845   H     0.31758   0.11036   0.60564   0.00000  Uiso   1.00
H846   H     0.27252   0.11360   0.64955   0.00000  Uiso   1.00
H847   H     0.15043   0.17401   0.60123   0.00000  Uiso   1.00
H848   H     0.28546   0.15296   0.61567   0.00000  Uiso   1.00
H849   H     0.03865   0.22683   0.91714   0.00000  Uiso   1.00
H850   H     0.07896   0.29548   0.92801   0.00000  Uiso   1.00
H851   H     0.06437   0.28673   0.88216   0.00000  Uiso   1.00
H852   H     0.11867   0.28144   0.88160   0.00000  Uiso   1.00
H853   H     0.06839   0.16844   0.59723   0.00000  Uiso   1.00
H854   H     0.06236   0.09539   0.59824   0.00000  Uiso   1.00
H855   H     0.10558   0.09104   0.55298   0.00000  Uiso   1.00
H856   H     0.05356   0.10346   0.55215   0.00000  Uiso   1.00
H857   H     0.05470   0.22983   0.97984   0.00000  Uiso   1.00
H858   H     0.18391   0.16182   0.90279   0.00000  Uiso   1.00
H859   H     0.01319   0.17521   0.67534   0.00000  Uiso   1.00
H860   H     0.06650   0.23360   0.67284   0.00000  Uiso   1.00
H861   H     0.05743   0.23627   0.72550   0.00000  Uiso   1.00
H862   H     0.01577   0.24823   0.70600   0.00000  Uiso   1.00
H863   H     0.29766   0.17863   0.81813   0.00000  Uiso   1.00
I864   I     0.02645   0.20659   0.55613   0.00000  Uiso   1.00
I865   I     0.08504   0.32441   0.79229   0.00000  Uiso   1.00
I866   I     0.30515   0.12880   0.94534   0.00000  Uiso   1.00
I867   I     0.25790   0.20676   0.91736   0.00000  Uiso   1.00
N868   N     0.02424   0.18456   0.69987   0.00000  Uiso   1.00
N869   N     0.31149   0.15252   0.80246   0.00000  Uiso   1.00
N870   N     0.22232   0.00880   0.71801   0.00000  Uiso   1.00
N871   N     0.25613   0.09393   0.59665   0.00000  Uiso   1.00
N872   N     0.07140   0.23277   0.90413   0.00000  Uiso   1.00
N873   N     0.09116   0.15217   0.57628   0.00000  Uiso   1.00
O874   O     0.16667   0.16667   0.75000   0.00000  Uiso   1.00
O875   O     0.15693   0.12393   0.66625   0.00000  Uiso   1.00
O876   O     0.12687   0.20646   0.83749   0.00000  Uiso   1.00
O877   O     0.21088   0.17493   0.65877   0.00000  Uiso   1.00
O878   O     0.17198   0.16135   0.83749   0.00000  Uiso   1.00
O879   O     0.17849   0.08101   0.77821   0.00000  Uiso   1.00
O880   O     0.14581   0.26136   0.76767   0.00000  Uiso   1.00
O881   O     0.07452   0.13251   0.73607   0.00000  Uiso   1.00
O882   O     0.26785   0.19179   0.71806   0.00000  Uiso   1.00
O883   O     0.06990   0.18960   0.77820   0.00000  Uiso   1.00
O884   O     0.25440   0.15277   0.76768   0.00000  Uiso   1.00
O885   O     0.13800   0.06903   0.73607   0.00000  Uiso   1.00
O886   O     0.20437   0.25527   0.71806   0.00000  Uiso   1.00
Zn887  Zn    0.19244   0.14090   0.78278   0.00000  Uiso   1.00
Zn888  Zn    0.13459   0.12378   0.72258   0.00000  Uiso   1.00
Zn889  Zn    0.21166   0.19664   0.71188   0.00000  Uiso   1.00
Zn890  Zn    0.12798   0.20535   0.78277   0.00000  Uiso   1.00
C891   C     0.38607   0.16039   0.75877   0.00000  Uiso   1.00
C892   C     0.55309   0.16800   0.96237   0.00000  Uiso   1.00
C893   C     0.57537   0.14505   0.97889   0.00000  Uiso   1.00
C894   C     0.61440   0.17316   0.74098   0.00000  Uiso   1.00
C895   C     0.55754   0.13633   0.51849   0.00000  Uiso   1.00
C896   C     0.51805   0.15162   0.54109   0.00000  Uiso   1.00
C897   C     0.57997   0.11589   0.53722   0.00000  Uiso   1.00
C898   C     0.56709   0.11573   0.57842   0.00000  Uiso   1.00
C899   C     0.50823   0.15508   0.58260   0.00000  Uiso   1.00
C900   C     0.66056   0.17307   0.73596   0.00000  Uiso   1.00
C901   C     0.34047   0.15945   0.76419   0.00000  Uiso   1.00
C902   C     0.43042   0.21563   0.92261   0.00000  Uiso   1.00
C903   C     0.51538   0.32270   0.74049   0.00000  Uiso   1.00
C904   C     0.48336   0.01251   0.76149   0.00000  Uiso   1.00
C905   C     0.48912   0.05637   0.75881   0.00000  Uiso   1.00
C906   C     0.51018   0.27776   0.74167   0.00000  Uiso   1.00
C907   C     0.52206   0.14504   0.64399   0.00000  Uiso   1.00
C908   C     0.47834   0.18772   0.85639   0.00000  Uiso   1.00
C909   C     0.46671   0.19522   0.90013   0.00000  Uiso   1.00
C910   C     0.53202   0.13722   0.60109   0.00000  Uiso   1.00
C911   C     0.41740   0.21625   0.96380   0.00000  Uiso   1.00
C912   C     0.37510   0.22794   0.70131   0.00000  Uiso   1.00
C913   C     0.49126   0.17976   0.91997   0.00000  Uiso   1.00
C914   C     0.65704   0.12677   0.82631   0.00000  Uiso   1.00
C915   C     0.55745   0.01328   0.67768   0.00000  Uiso   1.00
C916   C     0.61757   0.11916   0.61787   0.00000  Uiso   1.00
C917   C     0.41747   0.27638   0.89878   0.00000  Uiso   1.00
C918   C     0.41079   0.10823   0.56941   0.00000  Uiso   1.00
C919   C     0.48142   0.18503   0.96150   0.00000  Uiso   1.00
C920   C     0.44115   0.19898   0.98345   0.00000  Uiso   1.00
C921   C     0.50871   0.17283   0.98136   0.00000  Uiso   1.00
C922   C     0.49114   0.16558   0.52175   0.00000  Uiso   1.00
C923   C     0.44701   0.17149   0.54127   0.00000  Uiso   1.00
C924   C     0.42392   0.19226   0.52358   0.00000  Uiso   1.00
H925   H     0.60840   0.10109   0.52055   0.00000  Uiso   1.00
H926   H     0.62885   0.11911   0.85183   0.00000  Uiso   1.00
H927   H     0.35029   0.14366   0.83786   0.00000  Uiso   1.00
H928   H     0.33390   0.09714   0.80859   0.00000  Uiso   1.00
H929   H     0.58203   0.32910   0.71937   0.00000  Uiso   1.00
H930   H     0.58893   0.03036   0.66310   0.00000  Uiso   1.00
H931   H     0.53140   0.03128   0.67706   0.00000  Uiso   1.00
H932   H     0.55424   0.31547   0.66073   0.00000  Uiso   1.00
H933   H     0.60294   0.06838   0.57932   0.00000  Uiso   1.00
H934   H     0.65091   0.11036   0.60564   0.00000  Uiso   1.00
H935   H     0.60586   0.11360   0.64955   0.00000  Uiso   1.00
H936   H     0.48376   0.17401   0.60123   0.00000  Uiso   1.00
H937   H     0.61879   0.15296   0.61567   0.00000  Uiso   1.00
H938   H     0.37198   0.22683   0.91714   0.00000  Uiso   1.00
H939   H     0.41229   0.29548   0.92801   0.00000  Uiso   1.00
H940   H     0.39770   0.28673   0.88216   0.00000  Uiso   1.00
H941   H     0.45200   0.28144   0.88160   0.00000  Uiso   1.00
H942   H     0.40172   0.16844   0.59723   0.00000  Uiso   1.00
H943   H     0.39570   0.09539   0.59824   0.00000  Uiso   1.00
H944   H     0.43891   0.09104   0.55298   0.00000  Uiso   1.00
H945   H     0.38690   0.10346   0.55215   0.00000  Uiso   1.00
H946   H     0.38803   0.22983   0.97984   0.00000  Uiso   1.00
H947   H     0.51724   0.16182   0.90279   0.00000  Uiso   1.00
H948   H     0.34653   0.17521   0.67534   0.00000  Uiso   1.00
H949   H     0.39984   0.23360   0.67284   0.00000  Uiso   1.00
H950   H     0.39076   0.23627   0.72550   0.00000  Uiso   1.00
H951   H     0.34911   0.24823   0.70600   0.00000  Uiso   1.00
H952   H     0.63099   0.17863   0.81813   0.00000  Uiso   1.00
I953   I     0.35978   0.20659   0.55613   0.00000  Uiso   1.00
I954   I     0.41838   0.32441   0.79229   0.00000  Uiso   1.00
I955   I     0.63848   0.12880   0.94534   0.00000  Uiso   1.00
I956   I     0.59123   0.20676   0.91736   0.00000  Uiso   1.00
N957   N     0.35758   0.18456   0.69987   0.00000  Uiso   1.00
N958   N     0.64482   0.15252   0.80246   0.00000  Uiso   1.00
N959   N     0.55566   0.00880   0.71801   0.00000  Uiso   1.00
N960   N     0.58946   0.09393   0.59665   0.00000  Uiso   1.00
N961   N     0.40474   0.23277   0.90413   0.00000  Uiso   1.00
N962   N     0.42450   0.15217   0.57628   0.00000  Uiso   1.00
O963   O     0.50000   0.16667   0.75000   0.00000  Uiso   1.00
O964   O     0.49027   0.12393   0.66625   0.00000  Uiso   1.00
O965   O     0.46020   0.20646   0.83749   0.00000  Uiso   1.00
O966   O     0.54421   0.17493   0.65877   0.00000  Uiso   1.00
O967   O     0.50532   0.16135   0.83749   0.00000  Uiso   1.00
O968   O     0.51182   0.08101   0.77821   0.00000  Uiso   1.00
O969   O     0.47914   0.26136   0.76767   0.00000  Uiso   1.00
O970   O     0.40785   0.13251   0.73607   0.00000  Uiso   1.00
O971   O     0.60119   0.19179   0.71806   0.00000  Uiso   1.00
O972   O     0.40323   0.18960   0.77820   0.00000  Uiso   1.00
O973   O     0.58773   0.15277   0.76768   0.00000  Uiso   1.00
O974   O     0.47133   0.06903   0.73607   0.00000  Uiso   1.00
O975   O     0.53771   0.25527   0.71806   0.00000  Uiso   1.00
Zn976  Zn    0.52577   0.14090   0.78278   0.00000  Uiso   1.00
Zn977  Zn    0.46792   0.12378   0.72258   0.00000  Uiso   1.00
Zn978  Zn    0.54500   0.19664   0.71188   0.00000  Uiso   1.00
Zn979  Zn    0.46131   0.20535   0.78277   0.00000  Uiso   1.00
C980   C     0.71940   0.16039   0.75877   0.00000  Uiso   1.00
C981   C     0.88642   0.16800   0.96237   0.00000  Uiso   1.00
C982   C     0.90870   0.14505   0.97889   0.00000  Uiso   1.00
C983   C     0.94773   0.17316   0.74098   0.00000  Uiso   1.00
C984   C     0.89087   0.13633   0.51849   0.00000  Uiso   1.00
C985   C     0.85138   0.15162   0.54109   0.00000  Uiso   1.00
C986   C     0.91330   0.11589   0.53722   0.00000  Uiso   1.00
C987   C     0.90042   0.11573   0.57842   0.00000  Uiso   1.00
C988   C     0.84156   0.15508   0.58260   0.00000  Uiso   1.00
C989   C     0.99389   0.17307   0.73596   0.00000  Uiso   1.00
C990   C     0.67381   0.15945   0.76419   0.00000  Uiso   1.00
C991   C     0.76375   0.21563   0.92261   0.00000  Uiso   1.00
C992   C     0.84872   0.32270   0.74049   0.00000  Uiso   1.00
C993   C     0.81669   0.01251   0.76149   0.00000  Uiso   1.00
C994   C     0.82245   0.05637   0.75881   0.00000  Uiso   1.00
C995   C     0.84351   0.27776   0.74167   0.00000  Uiso   1.00
C996   C     0.85539   0.14504   0.64399   0.00000  Uiso   1.00
C997   C     0.81168   0.18772   0.85639   0.00000  Uiso   1.00
C998   C     0.80005   0.19522   0.90013   0.00000  Uiso   1.00
C999   C     0.86536   0.13722   0.60109   0.00000  Uiso   1.00
C1000  C     0.75073   0.21625   0.96380   0.00000  Uiso   1.00
C1001  C     0.70844   0.22794   0.70131   0.00000  Uiso   1.00
C1002  C     0.82460   0.17976   0.91997   0.00000  Uiso   1.00
C1003  C     0.99037   0.12677   0.82631   0.00000  Uiso   1.00
C1004  C     0.89079   0.01328   0.67768   0.00000  Uiso   1.00
C1005  C     0.95090   0.11916   0.61787   0.00000  Uiso   1.00
C1006  C     0.75080   0.27638   0.89878   0.00000  Uiso   1.00
C1007  C     0.74412   0.10823   0.56941   0.00000  Uiso   1.00
C1008  C     0.81475   0.18503   0.96150   0.00000  Uiso   1.00
C1009  C     0.77448   0.19898   0.98345   0.00000  Uiso   1.00
C1010  C     0.84205   0.17283   0.98136   0.00000  Uiso   1.00
C1011  C     0.82447   0.16558   0.52175   0.00000  Uiso   1.00
C1012  C     0.78034   0.17149   0.54127   0.00000  Uiso   1.00
C1013  C     0.75725   0.19226   0.52358   0.00000  Uiso   1.00
H1014  H     0.94173   0.10109   0.52055   0.00000  Uiso   1.00
H1015  H     0.96219   0.11911   0.85183   0.00000  Uiso   1.00
H1016  H     0.68362   0.14366   0.83786   0.00000  Uiso   1.00
H1017  H     0.66723   0.09714   0.80859   0.00000  Uiso   1.00
H1018  H     0.91536   0.32910   0.71937   0.00000  Uiso   1.00
H1019  H     0.92226   0.03036   0.66310   0.00000  Uiso   1.00
H1020  H     0.86473   0.03128   0.67706   0.00000  Uiso   1.00
H1021  H     0.88757   0.31547   0.66073   0.00000  Uiso   1.00
H1022  H     0.93627   0.06838   0.57932   0.00000  Uiso   1.00
H1023  H     0.98424   0.11036   0.60564   0.00000  Uiso   1.00
H1024  H     0.93919   0.11360   0.64955   0.00000  Uiso   1.00
H1025  H     0.81710   0.17401   0.60123   0.00000  Uiso   1.00
H1026  H     0.95213   0.15296   0.61567   0.00000  Uiso   1.00
H1027  H     0.70532   0.22683   0.91714   0.00000  Uiso   1.00
H1028  H     0.74563   0.29548   0.92801   0.00000  Uiso   1.00
H1029  H     0.73103   0.28673   0.88216   0.00000  Uiso   1.00
H1030  H     0.78534   0.28144   0.88160   0.00000  Uiso   1.00
H1031  H     0.73506   0.16844   0.59723   0.00000  Uiso   1.00
H1032  H     0.72903   0.09539   0.59824   0.00000  Uiso   1.00
H1033  H     0.77225   0.09104   0.55298   0.00000  Uiso   1.00
H1034  H     0.72023   0.10346   0.55215   0.00000  Uiso   1.00
H1035  H     0.72136   0.22983   0.97984   0.00000  Uiso   1.00
H1036  H     0.85057   0.16182   0.90279   0.00000  Uiso   1.00
H1037  H     0.67986   0.17521   0.67534   0.00000  Uiso   1.00
H1038  H     0.73317   0.23360   0.67284   0.00000  Uiso   1.00
H1039  H     0.72410   0.23627   0.72550   0.00000  Uiso   1.00
H1040  H     0.68244   0.24823   0.70600   0.00000  Uiso   1.00
H1041  H     0.96433   0.17863   0.81813   0.00000  Uiso   1.00
I1042  I     0.69312   0.20659   0.55613   0.00000  Uiso   1.00
I1043  I     0.75171   0.32441   0.79229   0.00000  Uiso   1.00
I1044  I     0.97181   0.12880   0.94534   0.00000  Uiso   1.00
I1045  I     0.92457   0.20676   0.91736   0.00000  Uiso   1.00
N1046  N     0.69091   0.18456   0.69987   0.00000  Uiso   1.00
N1047  N     0.97815   0.15252   0.80246   0.00000  Uiso   1.00
N1048  N     0.88899   0.00880   0.71801   0.00000  Uiso   1.00
N1049  N     0.92280   0.09393   0.59665   0.00000  Uiso   1.00
N1050  N     0.73807   0.23277   0.90413   0.00000  Uiso   1.00
N1051  N     0.75783   0.15217   0.57628   0.00000  Uiso   1.00
O1052  O     0.83333   0.16667   0.75000   0.00000  Uiso   1.00
O1053  O     0.82360   0.12393   0.66625   0.00000  Uiso   1.00
O1054  O     0.79354   0.20646   0.83749   0.00000  Uiso   1.00
O1055  O     0.87755   0.17493   0.65877   0.00000  Uiso   1.00
O1056  O     0.83865   0.16135   0.83749   0.00000  Uiso   1.00
O1057  O     0.84515   0.08101   0.77821   0.00000  Uiso   1.00
O1058  O     0.81247   0.26136   0.76767   0.00000  Uiso   1.00
O1059  O     0.74119   0.13251   0.73607   0.00000  Uiso   1.00
O1060  O     0.93452   0.19179   0.71806   0.00000  Uiso   1.00
O1061  O     0.73656   0.18960   0.77820   0.00000  Uiso   1.00
O1062  O     0.92106   0.15277   0.76768   0.00000  Uiso   1.00
O1063  O     0.80467   0.06903   0.73607   0.00000  Uiso   1.00
O1064  O     0.87104   0.25527   0.71806   0.00000  Uiso   1.00
Zn1065 Zn    0.85910   0.14090   0.78278   0.00000  Uiso   1.00
Zn1066 Zn    0.80125   0.12378   0.72258   0.00000  Uiso   1.00
Zn1067 Zn    0.87833   0.19664   0.71188   0.00000  Uiso   1.00
Zn1068 Zn    0.79465   0.20535   0.78277   0.00000  Uiso   1.00
C1069  C     0.05273   0.49372   0.75877   0.00000  Uiso   1.00
C1070  C     0.21975   0.50134   0.96237   0.00000  Uiso   1.00
C1071  C     0.24204   0.47838   0.97889   0.00000  Uiso   1.00
C1072  C     0.28106   0.50650   0.74098   0.00000  Uiso   1.00
C1073  C     0.22421   0.46966   0.51849   0.00000  Uiso   1.00
C1074  C     0.18472   0.48495   0.54109   0.00000  Uiso   1.00
C1075  C     0.24663   0.44922   0.53722   0.00000  Uiso   1.00
C1076  C     0.23375   0.44906   0.57842   0.00000  Uiso   1.00
C1077  C     0.17489   0.48841   0.58260   0.00000  Uiso   1.00
C1078  C     0.32722   0.50640   0.73596   0.00000  Uiso   1.00
C1079  C     0.00714   0.49278   0.76419   0.00000  Uiso   1.00
C1080  C     0.09708   0.54896   0.92261   0.00000  Uiso   1.00
C1081  C     0.18205   0.65603   0.74049   0.00000  Uiso   1.00
C1082  C     0.15003   0.34584   0.76149   0.00000  Uiso   1.00
C1083  C     0.15579   0.38970   0.75881   0.00000  Uiso   1.00
C1084  C     0.17685   0.61110   0.74167   0.00000  Uiso   1.00
C1085  C     0.18872   0.47837   0.64399   0.00000  Uiso   1.00
C1086  C     0.14501   0.52106   0.85639   0.00000  Uiso   1.00
C1087  C     0.13338   0.52855   0.90013   0.00000  Uiso   1.00
C1088  C     0.19869   0.47055   0.60109   0.00000  Uiso   1.00
C1089  C     0.08406   0.54958   0.96380   0.00000  Uiso   1.00
C1090  C     0.04177   0.56128   0.70131   0.00000  Uiso   1.00
C1091  C     0.15793   0.51309   0.91997   0.00000  Uiso   1.00
C1092  C     0.32370   0.46010   0.82631   0.00000  Uiso   1.00
C1093  C     0.22412   0.34661   0.67768   0.00000  Uiso   1.00
C1094  C     0.28423   0.45249   0.61787   0.00000  Uiso   1.00
C1095  C     0.08414   0.60972   0.89878   0.00000  Uiso   1.00
C1096  C     0.07746   0.44156   0.56941   0.00000  Uiso   1.00
C1097  C     0.14808   0.51836   0.96150   0.00000  Uiso   1.00
C1098  C     0.10782   0.53231   0.98345   0.00000  Uiso   1.00
C1099  C     0.17538   0.50616   0.98136   0.00000  Uiso   1.00
C1100  C     0.15781   0.49891   0.52175   0.00000  Uiso   1.00
C1101  C     0.11367   0.50482   0.54127   0.00000  Uiso   1.00
C1102  C     0.09058   0.52559   0.52358   0.00000  Uiso   1.00
H1103  H     0.27507   0.43442   0.52055   0.00000  Uiso   1.00
H1104  H     0.29552   0.45244   0.85183   0.00000  Uiso   1.00
H1105  H     0.01696   0.47699   0.83786   0.00000  Uiso   1.00
H1106  H     0.00056   0.43047   0.80859   0.00000  Uiso   1.00
H1107  H     0.24870   0.66244   0.71937   0.00000  Uiso   1.00
H1108  H     0.25559   0.36370   0.66310   0.00000  Uiso   1.00
H1109  H     0.19806   0.36461   0.67706   0.00000  Uiso   1.00
H1110  H     0.22090   0.64881   0.66073   0.00000  Uiso   1.00
H1111  H     0.26960   0.40171   0.57932   0.00000  Uiso   1.00
H1112  H     0.31758   0.44369   0.60564   0.00000  Uiso   1.00
H1113  H     0.27252   0.44694   0.64955   0.00000  Uiso   1.00
H1114  H     0.15043   0.50734   0.60123   0.00000  Uiso   1.00
H1115  H     0.28546   0.48629   0.61567   0.00000  Uiso   1.00
H1116  H     0.03865   0.56016   0.91714   0.00000  Uiso   1.00
H1117  H     0.07896   0.62881   0.92801   0.00000  Uiso   1.00
H1118  H     0.06437   0.62007   0.88216   0.00000  Uiso   1.00
H1119  H     0.11867   0.61477   0.88160   0.00000  Uiso   1.00
H1120  H     0.06839   0.50177   0.59723   0.00000  Uiso   1.00
H1121  H     0.06236   0.42872   0.59824   0.00000  Uiso   1.00
H1122  H     0.10558   0.42438   0.55298   0.00000  Uiso   1.00
H1123  H     0.05356   0.43679   0.55215   0.00000  Uiso   1.00
H1124  H     0.05470   0.56316   0.97984   0.00000  Uiso   1.00
H1125  H     0.18391   0.49516   0.90279   0.00000  Uiso   1.00
H1126  H     0.01319   0.50855   0.67534   0.00000  Uiso   1.00
H1127  H     0.06650   0.56694   0.67284   0.00000  Uiso   1.00
H1128  H     0.05743   0.56961   0.72550   0.00000  Uiso   1.00
H1129  H     0.01577   0.58157   0.70600   0.00000  Uiso   1.00
H1130  H     0.29766   0.51196   0.81813   0.00000  Uiso   1.00
I1131  I     0.02645   0.53993   0.55613   0.00000  Uiso   1.00
I1132  I     0.08504   0.65774   0.79229   0.00000  Uiso   1.00
I1133  I     0.30515   0.46214   0.94534   0.00000  Uiso   1.00
I1134  I     0.25790   0.54009   0.91736   0.00000  Uiso   1.00
N1135  N     0.02424   0.51789   0.69987   0.00000  Uiso   1.00
N1136  N     0.31149   0.48586   0.80246   0.00000  Uiso   1.00
N1137  N     0.22232   0.34213   0.71801   0.00000  Uiso   1.00
N1138  N     0.25613   0.42727   0.59665   0.00000  Uiso   1.00
N1139  N     0.07140   0.56610   0.90413   0.00000  Uiso   1.00
N1140  N     0.09116   0.48551   0.57628   0.00000  Uiso   1.00
O1141  O     0.16667   0.50000   0.75000   0.00000  Uiso   1.00
O1142  O     0.15693   0.45726   0.66625   0.00000  Uiso   1.00
O1143  O     0.12687   0.53979   0.83749   0.00000  Uiso   1.00
O1144  O     0.21088   0.50826   0.65877   0.00000  Uiso   1.00
O1145  O     0.17198   0.49468   0.83749   0.00000  Uiso   1.00
O1146  O     0.17849   0.41434   0.77821   0.00000  Uiso   1.00
O1147  O     0.14581   0.59469   0.76767   0.00000  Uiso   1.00
O1148  O     0.07452   0.46584   0.73607   0.00000  Uiso   1.00
O1149  O     0.26785   0.52512   0.71806   0.00000  Uiso   1.00
O1150  O     0.06990   0.52293   0.77820   0.00000  Uiso   1.00
O1151  O     0.25440   0.48610   0.76768   0.00000  Uiso   1.00
O1152  O     0.13800   0.40236   0.73607   0.00000  Uiso   1.00
O1153  O     0.20437   0.58860   0.71806   0.00000  Uiso   1.00
Zn1154 Zn    0.19244   0.47423   0.78278   0.00000  Uiso   1.00
Zn1155 Zn    0.13459   0.45711   0.72258   0.00000  Uiso   1.00
Zn1156 Zn    0.21166   0.52997   0.71188   0.00000  Uiso   1.00
Zn1157 Zn    0.12798   0.53868   0.78277   0.00000  Uiso   1.00
C1158  C     0.38607   0.49372   0.75877   0.00000  Uiso   1.00
C1159  C     0.55309   0.50134   0.96237   0.00000  Uiso   1.00
C1160  C     0.57537   0.47838   0.97889   0.00000  Uiso   1.00
C1161  C     0.61440   0.50650   0.74098   0.00000  Uiso   1.00
C1162  C     0.55754   0.46966   0.51849   0.00000  Uiso   1.00
C1163  C     0.51805   0.48495   0.54109   0.00000  Uiso   1.00
C1164  C     0.57997   0.44922   0.53722   0.00000  Uiso   1.00
C1165  C     0.56709   0.44906   0.57842   0.00000  Uiso   1.00
C1166  C     0.50823   0.48841   0.58260   0.00000  Uiso   1.00
C1167  C     0.66056   0.50640   0.73596   0.00000  Uiso   1.00
C1168  C     0.34047   0.49278   0.76419   0.00000  Uiso   1.00
C1169  C     0.43042   0.54896   0.92261   0.00000  Uiso   1.00
C1170  C     0.51538   0.65603   0.74049   0.00000  Uiso   1.00
C1171  C     0.48336   0.34584   0.76149   0.00000  Uiso   1.00
C1172  C     0.48912   0.38970   0.75881   0.00000  Uiso   1.00
C1173  C     0.51018   0.61110   0.74167   0.00000  Uiso   1.00
C1174  C     0.52206   0.47837   0.64399   0.00000  Uiso   1.00
C1175  C     0.47834   0.52106   0.85639   0.00000  Uiso   1.00
C1176  C     0.46671   0.52855   0.90013   0.00000  Uiso   1.00
C1177  C     0.53202   0.47055   0.60109   0.00000  Uiso   1.00
C1178  C     0.41740   0.54958   0.96380   0.00000  Uiso   1.00
C1179  C     0.37510   0.56128   0.70131   0.00000  Uiso   1.00
C1180  C     0.49126   0.51309   0.91997   0.00000  Uiso   1.00
C1181  C     0.65704   0.46010   0.82631   0.00000  Uiso   1.00
C1182  C     0.55745   0.34661   0.67768   0.00000  Uiso   1.00
C1183  C     0.61757   0.45249   0.61787   0.00000  Uiso   1.00
C1184  C     0.41747   0.60972   0.89878   0.00000  Uiso   1.00
C1185  C     0.41079   0.44156   0.56941   0.00000  Uiso   1.00
C1186  C     0.48142   0.51836   0.96150   0.00000  Uiso   1.00
C1187  C     0.44115   0.53231   0.98345   0.00000  Uiso   1.00
C1188  C     0.50871   0.50616   0.98136   0.00000  Uiso   1.00
C1189  C     0.49114   0.49891   0.52175   0.00000  Uiso   1.00
C1190  C     0.44701   0.50482   0.54127   0.00000  Uiso   1.00
C1191  C     0.42392   0.52559   0.52358   0.00000  Uiso   1.00
H1192  H     0.60840   0.43442   0.52055   0.00000  Uiso   1.00
H1193  H     0.62885   0.45244   0.85183   0.00000  Uiso   1.00
H1194  H     0.35029   0.47699   0.83786   0.00000  Uiso   1.00
H1195  H     0.33390   0.43047   0.80859   0.00000  Uiso   1.00
H1196  H     0.58203   0.66244   0.71937   0.00000  Uiso   1.00
H1197  H     0.58893   0.36370   0.66310   0.00000  Uiso   1.00
H1198  H     0.53140   0.36461   0.67706   0.00000  Uiso   1.00
H1199  H     0.55424   0.64881   0.66073   0.00000  Uiso   1.00
H1200  H     0.60294   0.40171   0.57932   0.00000  Uiso   1.00
H1201  H     0.65091   0.44369   0.60564   0.00000  Uiso   1.00
H1202  H     0.60586   0.44694   0.64955   0.00000  Uiso   1.00
H1203  H     0.48376   0.50734   0.60123   0.00000  Uiso   1.00
H1204  H     0.61879   0.48629   0.61567   0.00000  Uiso   1.00
H1205  H     0.37198   0.56016   0.91714   0.00000  Uiso   1.00
H1206  H     0.41229   0.62881   0.92801   0.00000  Uiso   1.00
H1207  H     0.39770   0.62007   0.88216   0.00000  Uiso   1.00
H1208  H     0.45200   0.61477   0.88160   0.00000  Uiso   1.00
H1209  H     0.40172   0.50177   0.59723   0.00000  Uiso   1.00
H1210  H     0.39570   0.42872   0.59824   0.00000  Uiso   1.00
H1211  H     0.43891   0.42438   0.55298   0.00000  Uiso   1.00
H1212  H     0.38690   0.43679   0.55215   0.00000  Uiso   1.00
H1213  H     0.38803   0.56316   0.97984   0.00000  Uiso   1.00
H1214  H     0.51724   0.49516   0.90279   0.00000  Uiso   1.00
H1215  H     0.34653   0.50855   0.67534   0.00000  Uiso   1.00
H1216  H     0.39984   0.56694   0.67284   0.00000  Uiso   1.00
H1217  H     0.39076   0.56961   0.72550   0.00000  Uiso   1.00
H1218  H     0.34911   0.58157   0.70600   0.00000  Uiso   1.00
H1219  H     0.63099   0.51196   0.81813   0.00000  Uiso   1.00
I1220  I     0.35978   0.53993   0.55613   0.00000  Uiso   1.00
I1221  I     0.41838   0.65774   0.79229   0.00000  Uiso   1.00
I1222  I     0.63848   0.46214   0.94534   0.00000  Uiso   1.00
I1223  I     0.59123   0.54009   0.91736   0.00000  Uiso   1.00
N1224  N     0.35758   0.51789   0.69987   0.00000  Uiso   1.00
N1225  N     0.64482   0.48586   0.80246   0.00000  Uiso   1.00
N1226  N     0.55566   0.34213   0.71801   0.00000  Uiso   1.00
N1227  N     0.58946   0.42727   0.59665   0.00000  Uiso   1.00
N1228  N     0.40474   0.56610   0.90413   0.00000  Uiso   1.00
N1229  N     0.42450   0.48551   0.57628   0.00000  Uiso   1.00
O1230  O     0.50000   0.50000   0.75000   0.00000  Uiso   1.00
O1231  O     0.49027   0.45726   0.66625   0.00000  Uiso   1.00
O1232  O     0.46020   0.53979   0.83749   0.00000  Uiso   1.00
O1233  O     0.54421   0.50826   0.65877   0.00000  Uiso   1.00
O1234  O     0.50532   0.49468   0.83749   0.00000  Uiso   1.00
O1235  O     0.51182   0.41434   0.77821   0.00000  Uiso   1.00
O1236  O     0.47914   0.59469   0.76767   0.00000  Uiso   1.00
O1237  O     0.40785   0.46584   0.73607   0.00000  Uiso   1.00
O1238  O     0.60119   0.52512   0.71806   0.00000  Uiso   1.00
O1239  O     0.40323   0.52293   0.77820   0.00000  Uiso   1.00
O1240  O     0.58773   0.48610   0.76768   0.00000  Uiso   1.00
O1241  O     0.47133   0.40236   0.73607   0.00000  Uiso   1.00
O1242  O     0.53771   0.58860   0.71806   0.00000  Uiso   1.00
Zn1243 Zn    0.52577   0.47423   0.78278   0.00000  Uiso   1.00
Zn1244 Zn    0.46792   0.45711   0.72258   0.00000  Uiso   1.00
Zn1245 Zn    0.54500   0.52997   0.71188   0.00000  Uiso   1.00
Zn1246 Zn    0.46131   0.53868   0.78277   0.00000  Uiso   1.00
C1247  C     0.71940   0.49372   0.75877   0.00000  Uiso   1.00
C1248  C     0.88642   0.50134   0.96237   0.00000  Uiso   1.00
C1249  C     0.90870   0.47838   0.97889   0.00000  Uiso   1.00
C1250  C     0.94773   0.50650   0.74098   0.00000  Uiso   1.00
C1251  C     0.89087   0.46966   0.51849   0.00000  Uiso   1.00
C1252  C     0.85138   0.48495   0.54109   0.00000  Uiso   1.00
C1253  C     0.91330   0.44922   0.53722   0.00000  Uiso   1.00
C1254  C     0.90042   0.44906   0.57842   0.00000  Uiso   1.00
C1255  C     0.84156   0.48841   0.58260   0.00000  Uiso   1.00
C1256  C     0.99389   0.50640   0.73596   0.00000  Uiso   1.00
C1257  C     0.67381   0.49278   0.76419   0.00000  Uiso   1.00
C1258  C     0.76375   0.54896   0.92261   0.00000  Uiso   1.00
C1259  C     0.84872   0.65603   0.74049   0.00000  Uiso   1.00
C1260  C     0.81669   0.34584   0.76149   0.00000  Uiso   1.00
C1261  C     0.82245   0.38970   0.75881   0.00000  Uiso   1.00
C1262  C     0.84351   0.61110   0.74167   0.00000  Uiso   1.00
C1263  C     0.85539   0.47837   0.64399   0.00000  Uiso   1.00
C1264  C     0.81168   0.52106   0.85639   0.00000  Uiso   1.00
C1265  C     0.80005   0.52855   0.90013   0.00000  Uiso   1.00
C1266  C     0.86536   0.47055   0.60109   0.00000  Uiso   1.00
C1267  C     0.75073   0.54958   0.96380   0.00000  Uiso   1.00
C1268  C     0.70844   0.56128   0.70131   0.00000  Uiso   1.00
C1269  C     0.82460   0.51309   0.91997   0.00000  Uiso   1.00
C1270  C     0.99037   0.46010   0.82631   0.00000  Uiso   1.00
C1271  C     0.89079   0.34661   0.67768   0.00000  Uiso   1.00
C1272  C     0.95090   0.45249   0.61787   0.00000  Uiso   1.00
C1273  C     0.75080   0.60972   0.89878   0.00000  Uiso   1.00
C1274  C     0.74412   0.44156   0.56941   0.00000  Uiso   1.00
C1275  C     0.81475   0.51836   0.96150   0.00000  Uiso   1.00
C1276  C     0.77448   0.53231   0.98345   0.00000  Uiso   1.00
C1277  C     0.84205   0.50616   0.98136   0.00000  Uiso   1.00
C1278  C     0.82447   0.49891   0.52175   0.00000  Uiso   1.00
C1279  C     0.78034   0.50482   0.54127   0.00000  Uiso   1.00
C1280  C     0.75725   0.52559   0.52358   0.00000  Uiso   1.00
H1281  H     0.94173   0.43442   0.52055   0.00000  Uiso   1.00
H1282  H     0.96219   0.45244   0.85183   0.00000  Uiso   1.00
H1283  H     0.68362   0.47699   0.83786   0.00000  Uiso   1.00
H1284  H     0.66723   0.43047   0.80859   0.00000  Uiso   1.00
H1285  H     0.91536   0.66244   0.71937   0.00000  Uiso   1.00
H1286  H     0.92226   0.36370   0.66310   0.00000  Uiso   1.00
H1287  H     0.86473   0.36461   0.67706   0.00000  Uiso   1.00
H1288  H     0.88757   0.64881   0.66073   0.00000  Uiso   1.00
H1289  H     0.93627   0.40171   0.57932   0.00000  Uiso   1.00
H1290  H     0.98424   0.44369   0.60564   0.00000  Uiso   1.00
H1291  H     0.93919   0.44694   0.64955   0.00000  Uiso   1.00
H1292  H     0.81710   0.50734   0.60123   0.00000  Uiso   1.00
H1293  H     0.95213   0.48629   0.61567   0.00000  Uiso   1.00
H1294  H     0.70532   0.56016   0.91714   0.00000  Uiso   1.00
H1295  H     0.74563   0.62881   0.92801   0.00000  Uiso   1.00
H1296  H     0.73103   0.62007   0.88216   0.00000  Uiso   1.00
H1297  H     0.78534   0.61477   0.88160   0.00000  Uiso   1.00
H1298  H     0.73506   0.50177   0.59723   0.00000  Uiso   1.00
H1299  H     0.72903   0.42872   0.59824   0.00000  Uiso   1.00
H1300  H     0.77225   0.42438   0.55298   0.00000  Uiso   1.00
H1301  H     0.72023   0.43679   0.55215   0.00000  Uiso   1.00
H1302  H     0.72136   0.56316   0.97984   0.00000  Uiso   1.00
H1303  H     0.85057   0.49516   0.90279   0.00000  Uiso   1.00
H1304  H     0.67986   0.50855   0.67534   0.00000  Uiso   1.00
H1305  H     0.73317   0.56694   0.67284   0.00000  Uiso   1.00
H1306  H     0.72410   0.56961   0.72550   0.00000  Uiso   1.00
H1307  H     0.68244   0.58157   0.70600   0.00000  Uiso   1.00
H1308  H     0.96433   0.51196   0.81813   0.00000  Uiso   1.00
I1309  I     0.69312   0.53993   0.55613   0.00000  Uiso   1.00
I1310  I     0.75171   0.65774   0.79229   0.00000  Uiso   1.00
I1311  I     0.97181   0.46214   0.94534   0.00000  Uiso   1.00
I1312  I     0.92457   0.54009   0.91736   0.00000  Uiso   1.00
N1313  N     0.69091   0.51789   0.69987   0.00000  Uiso   1.00
N1314  N     0.97815   0.48586   0.80246   0.00000  Uiso   1.00
N1315  N     0.88899   0.34213   0.71801   0.00000  Uiso   1.00
N1316  N     0.92280   0.42727   0.59665   0.00000  Uiso   1.00
N1317  N     0.73807   0.56610   0.90413   0.00000  Uiso   1.00
N1318  N     0.75783   0.48551   0.57628   0.00000  Uiso   1.00
O1319  O     0.83333   0.50000   0.75000   0.00000  Uiso   1.00
O1320  O     0.82360   0.45726   0.66625   0.00000  Uiso   1.00
O1321  O     0.79354   0.53979   0.83749   0.00000  Uiso   1.00
O1322  O     0.87755   0.50826   0.65877   0.00000  Uiso   1.00
O1323  O     0.83865   0.49468   0.83749   0.00000  Uiso   1.00
O1324  O     0.84515   0.41434   0.77821   0.00000  Uiso   1.00
O1325  O     0.81247   0.59469   0.76767   0.00000  Uiso   1.00
O1326  O     0.74119   0.46584   0.73607   0.00000  Uiso   1.00
O1327  O     0.93452   0.52512   0.71806   0.00000  Uiso   1.00
O1328  O     0.73656   0.52293   0.77820   0.00000  Uiso   1.00
O1329  O     0.92106   0.48610   0.76768   0.00000  Uiso   1.00
O1330  O     0.80467   0.40236   0.73607   0.00000  Uiso   1.00
O1331  O     0.87104   0.58860   0.71806   0.00000  Uiso   1.00
Zn1332 Zn    0.85910   0.47423   0.78278   0.00000  Uiso   1.00
Zn1333 Zn    0.80125   0.45711   0.72258   0.00000  Uiso   1.00
Zn1334 Zn    0.87833   0.52997   0.71188   0.00000  Uiso   1.00
Zn1335 Zn    0.79465   0.53868   0.78277   0.00000  Uiso   1.00
C1336  C     0.05273   0.82706   0.75877   0.00000  Uiso   1.00
C1337  C     0.21975   0.83467   0.96237   0.00000  Uiso   1.00
C1338  C     0.24204   0.81171   0.97889   0.00000  Uiso   1.00
C1339  C     0.28106   0.83983   0.74098   0.00000  Uiso   1.00
C1340  C     0.22421   0.80299   0.51849   0.00000  Uiso   1.00
C1341  C     0.18472   0.81829   0.54109   0.00000  Uiso   1.00
C1342  C     0.24663   0.78255   0.53722   0.00000  Uiso   1.00
C1343  C     0.23375   0.78240   0.57842   0.00000  Uiso   1.00
C1344  C     0.17489   0.82174   0.58260   0.00000  Uiso   1.00
C1345  C     0.32722   0.83973   0.73596   0.00000  Uiso   1.00
C1346  C     0.00714   0.82612   0.76419   0.00000  Uiso   1.00
C1347  C     0.09708   0.88229   0.92261   0.00000  Uiso   1.00
C1348  C     0.18205   0.98936   0.74049   0.00000  Uiso   1.00
C1349  C     0.15003   0.67918   0.76149   0.00000  Uiso   1.00
C1350  C     0.15579   0.72304   0.75881   0.00000  Uiso   1.00
C1351  C     0.17685   0.94443   0.74167   0.00000  Uiso   1.00
C1352  C     0.18872   0.81170   0.64399   0.00000  Uiso   1.00
C1353  C     0.14501   0.85439   0.85639   0.00000  Uiso   1.00
C1354  C     0.13338   0.86188   0.90013   0.00000  Uiso   1.00
C1355  C     0.19869   0.80388   0.60109   0.00000  Uiso   1.00
C1356  C     0.08406   0.88292   0.96380   0.00000  Uiso   1.00
C1357  C     0.04177   0.89461   0.70131   0.00000  Uiso   1.00
C1358  C     0.15793   0.84643   0.91997   0.00000  Uiso   1.00
C1359  C     0.32370   0.79343   0.82631   0.00000  Uiso   1.00
C1360  C     0.22412   0.67994   0.67768   0.00000  Uiso   1.00
C1361  C     0.28423   0.78583   0.61787   0.00000  Uiso   1.00
C1362  C     0.08414   0.94305   0.89878   0.00000  Uiso   1.00
C1363  C     0.07746   0.77490   0.56941   0.00000  Uiso   1.00
C1364  C     0.14808   0.85169   0.96150   0.00000  Uiso   1.00
C1365  C     0.10782   0.86565   0.98345   0.00000  Uiso   1.00
C1366  C     0.17538   0.83950   0.98136   0.00000  Uiso   1.00
C1367  C     0.15781   0.83224   0.52175   0.00000  Uiso   1.00
C1368  C     0.11367   0.83816   0.54127   0.00000  Uiso   1.00
C1369  C     0.09058   0.85893   0.52358   0.00000  Uiso   1.00
H1370  H     0.27507   0.76775   0.52055   0.00000  Uiso   1.00
H1371  H     0.29552   0.78578   0.85183   0.00000  Uiso   1.00
H1372  H     0.01696   0.81032   0.83786   0.00000  Uiso   1.00
H1373  H     0.00056   0.76381   0.80859   0.00000  Uiso   1.00
H1374  H     0.24870   0.99577   0.71937   0.00000  Uiso   1.00
H1375  H     0.25559   0.69703   0.66310   0.00000  Uiso   1.00
H1376  H     0.19806   0.69795   0.67706   0.00000  Uiso   1.00
H1377  H     0.22090   0.98214   0.66073   0.00000  Uiso   1.00
H1378  H     0.26960   0.73505   0.57932   0.00000  Uiso   1.00
H1379  H     0.31758   0.77703   0.60564   0.00000  Uiso   1.00
H1380  H     0.27252   0.78027   0.64955   0.00000  Uiso   1.00
H1381  H     0.15043   0.84068   0.60123   0.00000  Uiso   1.00
H1382  H     0.28546   0.81963   0.61567   0.00000  Uiso   1.00
H1383  H     0.03865   0.89350   0.91714   0.00000  Uiso   1.00
H1384  H     0.07896   0.96215   0.92801   0.00000  Uiso   1.00
H1385  H     0.06437   0.95340   0.88216   0.00000  Uiso   1.00
H1386  H     0.11867   0.94810   0.88160   0.00000  Uiso   1.00
H1387  H     0.06839   0.83511   0.59723   0.00000  Uiso   1.00
H1388  H     0.06236   0.76206   0.59824   0.00000  Uiso   1.00
H1389  H     0.10558   0.75771   0.55298   0.00000  Uiso   1.00
H1390  H     0.05356   0.77013   0.55215   0.00000  Uiso   1.00
H1391  H     0.05470   0.89649   0.97984   0.00000  Uiso   1.00
H1392  H     0.18391   0.82849   0.90279   0.00000  Uiso   1.00
H1393  H     0.01319   0.84188   0.67534   0.00000  Uiso   1.00
H1394  H     0.06650   0.90027   0.67284   0.00000  Uiso   1.00
H1395  H     0.05743   0.90294   0.72550   0.00000  Uiso   1.00
H1396  H     0.01577   0.91490   0.70600   0.00000  Uiso   1.00
H1397  H     0.29766   0.84529   0.81813   0.00000  Uiso   1.00
I1398  I     0.02645   0.87326   0.55613   0.00000  Uiso   1.00
I1399  I     0.08504   0.99107   0.79229   0.00000  Uiso   1.00
I1400  I     0.30515   0.79547   0.94534   0.00000  Uiso   1.00
I1401  I     0.25790   0.87343   0.91736   0.00000  Uiso   1.00
N1402  N     0.02424   0.85122   0.69987   0.00000  Uiso   1.00
N1403  N     0.31149   0.81919   0.80246   0.00000  Uiso   1.00
N1404  N     0.22232   0.67547   0.71801   0.00000  Uiso   1.00
N1405  N     0.25613   0.76060   0.59665   0.00000  Uiso   1.00
N1406  N     0.07140   0.89943   0.90413   0.00000  Uiso   1.00
N1407  N     0.09116   0.81884   0.57628   0.00000  Uiso   1.00
O1408  O     0.16667   0.83333   0.75000   0.00000  Uiso   1.00
O1409  O     0.15693   0.79060   0.66625   0.00000  Uiso   1.00
O1410  O     0.12687   0.87313   0.83749   0.00000  Uiso   1.00
O1411  O     0.21088   0.84159   0.65877   0.00000  Uiso   1.00
O1412  O     0.17198   0.82802   0.83749   0.00000  Uiso   1.00
O1413  O     0.17849   0.74768   0.77821   0.00000  Uiso   1.00
O1414  O     0.14581   0.92803   0.76767   0.00000  Uiso   1.00
O1415  O     0.07452   0.79917   0.73607   0.00000  Uiso   1.00
O1416  O     0.26785   0.85845   0.71806   0.00000  Uiso   1.00
O1417  O     0.06990   0.85627   0.77820   0.00000  Uiso   1.00
O1418  O     0.25440   0.81944   0.76768   0.00000  Uiso   1.00
O1419  O     0.13800   0.73570   0.73607   0.00000  Uiso   1.00
O1420  O     0.20437   0.92193   0.71806   0.00000  Uiso   1.00
Zn1421 Zn    0.19244   0.80756   0.78278   0.00000  Uiso   1.00
Zn1422 Zn    0.13459   0.79044   0.72258   0.00000  Uiso   1.00
Zn1423 Zn    0.21166   0.86331   0.71188   0.00000  Uiso   1.00
Zn1424 Zn    0.12798   0.87202   0.78277   0.00000  Uiso   1.00
C1425  C     0.38607   0.82706   0.75877   0.00000  Uiso   1.00
C1426  C     0.55309   0.83467   0.96237   0.00000  Uiso   1.00
C1427  C     0.57537   0.81171   0.97889   0.00000  Uiso   1.00
C1428  C     0.61440   0.83983   0.74098   0.00000  Uiso   1.00
C1429  C     0.55754   0.80299   0.51849   0.00000  Uiso   1.00
C1430  C     0.51805   0.81829   0.54109   0.00000  Uiso   1.00
C1431  C     0.57997   0.78255   0.53722   0.00000  Uiso   1.00
C1432  C     0.56709   0.78240   0.57842   0.00000  Uiso   1.00
C1433  C     0.50823   0.82174   0.58260   0.00000  Uiso   1.00
C1434  C     0.66056   0.83973   0.73596   0.00000  Uiso   1.00
C1435  C     0.34047   0.82612   0.76419   0.00000  Uiso   1.00
C1436  C     0.43042   0.88229   0.92261   0.00000  Uiso   1.00
C1437  C     0.51538   0.98936   0.74049   0.00000  Uiso   1.00
C1438  C     0.48336   0.67918   0.76149   0.00000  Uiso   1.00
C1439  C     0.48912   0.72304   0.75881   0.00000  Uiso   1.00
C1440  C     0.51018   0.94443   0.74167   0.00000  Uiso   1.00
C1441  C     0.52206   0.81170   0.64399   0.00000  Uiso   1.00
C1442  C     0.47834   0.85439   0.85639   0.00000  Uiso   1.00
C1443  C     0.46671   0.86188   0.90013   0.00000  Uiso   1.00
C1444  C     0.53202   0.80388   0.60109   0.00000  Uiso   1.00
C1445  C     0.41740   0.88292   0.96380   0.00000  Uiso   1.00
C1446  C     0.37510   0.89461   0.70131   0.00000  Uiso   1.00
C1447  C     0.49126   0.84643   0.91997   0.00000  Uiso   1.00
C1448  C     0.65704   0.79343   0.82631   0.00000  Uiso   1.00
C1449  C     0.55745   0.67994   0.67768   0.00000  Uiso   1.00
C1450  C     0.61757   0.78583   0.61787   0.00000  Uiso   1.00
C1451  C     0.41747   0.94305   0.89878   0.00000  Uiso   1.00
C1452  C     0.41079   0.77490   0.56941   0.00000  Uiso   1.00
C1453  C     0.48142   0.85169   0.96150   0.00000  Uiso   1.00
C1454  C     0.44115   0.86565   0.98345   0.00000  Uiso   1.00
C1455  C     0.50871   0.83950   0.98136   0.00000  Uiso   1.00
C1456  C     0.49114   0.83224   0.52175   0.00000  Uiso   1.00
C1457  C     0.44701   0.83816   0.54127   0.00000  Uiso   1.00
C1458  C     0.42392   0.85893   0.52358   0.00000  Uiso   1.00
H1459  H     0.60840   0.76775   0.52055   0.00000  Uiso   1.00
H1460  H     0.62885   0.78578   0.85183   0.00000  Uiso   1.00
H1461  H     0.35029   0.81032   0.83786   0.00000  Uiso   1.00
H1462  H     0.33390   0.76381   0.80859   0.00000  Uiso   1.00
H1463  H     0.58203   0.99577   0.71937   0.00000  Uiso   1.00
H1464  H     0.58893   0.69703   0.66310   0.00000  Uiso   1.00
H1465  H     0.53140   0.69795   0.67706   0.00000  Uiso   1.00
H1466  H     0.55424   0.98214   0.66073   0.00000  Uiso   1.00
H1467  H     0.60294   0.73505   0.57932   0.00000  Uiso   1.00
H1468  H     0.65091   0.77703   0.60564   0.00000  Uiso   1.00
H1469  H     0.60586   0.78027   0.64955   0.00000  Uiso   1.00
H1470  H     0.48376   0.84068   0.60123   0.00000  Uiso   1.00
H1471  H     0.61879   0.81963   0.61567   0.00000  Uiso   1.00
H1472  H     0.37198   0.89350   0.91714   0.00000  Uiso   1.00
H1473  H     0.41229   0.96215   0.92801   0.00000  Uiso   1.00
H1474  H     0.39770   0.95340   0.88216   0.00000  Uiso   1.00
H1475  H     0.45200   0.94810   0.88160   0.00000  Uiso   1.00
H1476  H     0.40172   0.83511   0.59723   0.00000  Uiso   1.00
H1477  H     0.39570   0.76206   0.59824   0.00000  Uiso   1.00
H1478  H     0.43891   0.75771   0.55298   0.00000  Uiso   1.00
H1479  H     0.38690   0.77013   0.55215   0.00000  Uiso   1.00
H1480  H     0.38803   0.89649   0.97984   0.00000  Uiso   1.00
H1481  H     0.51724   0.82849   0.90279   0.00000  Uiso   1.00
H1482  H     0.34653   0.84188   0.67534   0.00000  Uiso   1.00
H1483  H     0.39984   0.90027   0.67284   0.00000  Uiso   1.00
H1484  H     0.39076   0.90294   0.72550   0.00000  Uiso   1.00
H1485  H     0.34911   0.91490   0.70600   0.00000  Uiso   1.00
H1486  H     0.63099   0.84529   0.81813   0.00000  Uiso   1.00
I1487  I     0.35978   0.87326   0.55613   0.00000  Uiso   1.00
I1488  I     0.41838   0.99107   0.79229   0.00000  Uiso   1.00
I1489  I     0.63848   0.79547   0.94534   0.00000  Uiso   1.00
I1490  I     0.59123   0.87343   0.91736   0.00000  Uiso   1.00
N1491  N     0.35758   0.85122   0.69987   0.00000  Uiso   1.00
N1492  N     0.64482   0.81919   0.80246   0.00000  Uiso   1.00
N1493  N     0.55566   0.67547   0.71801   0.00000  Uiso   1.00
N1494  N     0.58946   0.76060   0.59665   0.00000  Uiso   1.00
N1495  N     0.40474   0.89943   0.90413   0.00000  Uiso   1.00
N1496  N     0.42450   0.81884   0.57628   0.00000  Uiso   1.00
O1497  O     0.50000   0.83333   0.75000   0.00000  Uiso   1.00
O1498  O     0.49027   0.79060   0.66625   0.00000  Uiso   1.00
O1499  O     0.46020   0.87313   0.83749   0.00000  Uiso   1.00
O1500  O     0.54421   0.84159   0.65877   0.00000  Uiso   1.00
O1501  O     0.50532   0.82802   0.83749   0.00000  Uiso   1.00
O1502  O     0.51182   0.74768   0.77821   0.00000  Uiso   1.00
O1503  O     0.47914   0.92803   0.76767   0.00000  Uiso   1.00
O1504  O     0.40785   0.79917   0.73607   0.00000  Uiso   1.00
O1505  O     0.60119   0.85845   0.71806   0.00000  Uiso   1.00
O1506  O     0.40323   0.85627   0.77820   0.00000  Uiso   1.00
O1507  O     0.58773   0.81944   0.76768   0.00000  Uiso   1.00
O1508  O     0.47133   0.73570   0.73607   0.00000  Uiso   1.00
O1509  O     0.53771   0.92193   0.71806   0.00000  Uiso   1.00
Zn1510 Zn    0.52577   0.80756   0.78278   0.00000  Uiso   1.00
Zn1511 Zn    0.46792   0.79044   0.72258   0.00000  Uiso   1.00
Zn1512 Zn    0.54500   0.86331   0.71188   0.00000  Uiso   1.00
Zn1513 Zn    0.46131   0.87202   0.78277   0.00000  Uiso   1.00
C1514  C     0.71940   0.82706   0.75877   0.00000  Uiso   1.00
C1515  C     0.88642   0.83467   0.96237   0.00000  Uiso   1.00
C1516  C     0.90870   0.81171   0.97889   0.00000  Uiso   1.00
C1517  C     0.94773   0.83983   0.74098   0.00000  Uiso   1.00
C1518  C     0.89087   0.80299   0.51849   0.00000  Uiso   1.00
C1519  C     0.85138   0.81829   0.54109   0.00000  Uiso   1.00
C1520  C     0.91330   0.78255   0.53722   0.00000  Uiso   1.00
C1521  C     0.90042   0.78240   0.57842   0.00000  Uiso   1.00
C1522  C     0.84156   0.82174   0.58260   0.00000  Uiso   1.00
C1523  C     0.99389   0.83973   0.73596   0.00000  Uiso   1.00
C1524  C     0.67381   0.82612   0.76419   0.00000  Uiso   1.00
C1525  C     0.76375   0.88229   0.92261   0.00000  Uiso   1.00
C1526  C     0.84872   0.98936   0.74049   0.00000  Uiso   1.00
C1527  C     0.81669   0.67918   0.76149   0.00000  Uiso   1.00
C1528  C     0.82245   0.72304   0.75881   0.00000  Uiso   1.00
C1529  C     0.84351   0.94443   0.74167   0.00000  Uiso   1.00
C1530  C     0.85539   0.81170   0.64399   0.00000  Uiso   1.00
C1531  C     0.81168   0.85439   0.85639   0.00000  Uiso   1.00
C1532  C     0.80005   0.86188   0.90013   0.00000  Uiso   1.00
C1533  C     0.86536   0.80388   0.60109   0.00000  Uiso   1.00
C1534  C     0.75073   0.88292   0.96380   0.00000  Uiso   1.00
C1535  C     0.70844   0.89461   0.70131   0.00000  Uiso   1.00
C1536  C     0.82460   0.84643   0.91997   0.00000  Uiso   1.00
C1537  C     0.99037   0.79343   0.82631   0.00000  Uiso   1.00
C1538  C     0.89079   0.67994   0.67768   0.00000  Uiso   1.00
C1539  C     0.95090   0.78583   0.61787   0.00000  Uiso   1.00
C1540  C     0.75080   0.94305   0.89878   0.00000  Uiso   1.00
C1541  C     0.74412   0.77490   0.56941   0.00000  Uiso   1.00
C1542  C     0.81475   0.85169   0.96150   0.00000  Uiso   1.00
C1543  C     0.77448   0.86565   0.98345   0.00000  Uiso   1.00
C1544  C     0.84205   0.83950   0.98136   0.00000  Uiso   1.00
C1545  C     0.82447   0.83224   0.52175   0.00000  Uiso   1.00
C1546  C     0.78034   0.83816   0.54127   0.00000  Uiso   1.00
C1547  C     0.75725   0.85893   0.52358   0.00000  Uiso   1.00
H1548  H     0.94173   0.76775   0.52055   0.00000  Uiso   1.00
H1549  H     0.96219   0.78578   0.85183   0.00000  Uiso   1.00
H1550  H     0.68362   0.81032   0.83786   0.00000  Uiso   1.00
H1551  H     0.66723   0.76381   0.80859   0.00000  Uiso   1.00
H1552  H     0.91536   0.99577   0.71937   0.00000  Uiso   1.00
H1553  H     0.92226   0.69703   0.66310   0.00000  Uiso   1.00
H1554  H     0.86473   0.69795   0.67706   0.00000  Uiso   1.00
H1555  H     0.88757   0.98214   0.66073   0.00000  Uiso   1.00
H1556  H     0.93627   0.73505   0.57932   0.00000  Uiso   1.00
H1557  H     0.98424   0.77703   0.60564   0.00000  Uiso   1.00
H1558  H     0.93919   0.78027   0.64955   0.00000  Uiso   1.00
H1559  H     0.81710   0.84068   0.60123   0.00000  Uiso   1.00
H1560  H     0.95213   0.81963   0.61567   0.00000  Uiso   1.00
H1561  H     0.70532   0.89350   0.91714   0.00000  Uiso   1.00
H1562  H     0.74563   0.96215   0.92801   0.00000  Uiso   1.00
H1563  H     0.73103   0.95340   0.88216   0.00000  Uiso   1.00
H1564  H     0.78534   0.94810   0.88160   0.00000  Uiso   1.00
H1565  H     0.73506   0.83511   0.59723   0.00000  Uiso   1.00
H1566  H     0.72903   0.76206   0.59824   0.00000  Uiso   1.00
H1567  H     0.77225   0.75771   0.55298   0.00000  Uiso   1.00
H1568  H     0.72023   0.77013   0.55215   0.00000  Uiso   1.00
H1569  H     0.72136   0.89649   0.97984   0.00000  Uiso   1.00
H1570  H     0.85057   0.82849   0.90279   0.00000  Uiso   1.00
H1571  H     0.67986   0.84188   0.67534   0.00000  Uiso   1.00
H1572  H     0.73317   0.90027   0.67284   0.00000  Uiso   1.00
H1573  H     0.72410   0.90294   0.72550   0.00000  Uiso   1.00
H1574  H     0.68244   0.91490   0.70600   0.00000  Uiso   1.00
H1575  H     0.96433   0.84529   0.81813   0.00000  Uiso   1.00
I1576  I     0.69312   0.87326   0.55613   0.00000  Uiso   1.00
I1577  I     0.75171   0.99107   0.79229   0.00000  Uiso   1.00
I1578  I     0.97181   0.79547   0.94534   0.00000  Uiso   1.00
I1579  I     0.92457   0.87343   0.91736   0.00000  Uiso   1.00
N1580  N     0.69091   0.85122   0.69987   0.00000  Uiso   1.00
N1581  N     0.97815   0.81919   0.80246   0.00000  Uiso   1.00
N1582  N     0.88899   0.67547   0.71801   0.00000  Uiso   1.00
N1583  N     0.92280   0.76060   0.59665   0.00000  Uiso   1.00
N1584  N     0.73807   0.89943   0.90413   0.00000  Uiso   1.00
N1585  N     0.75783   0.81884   0.57628   0.00000  Uiso   1.00
O1586  O     0.83333   0.83333   0.75000   0.00000  Uiso   1.00
O1587  O     0.82360   0.79060   0.66625   0.00000  Uiso   1.00
O1588  O     0.79354   0.87313   0.83749   0.00000  Uiso   1.00
O1589  O     0.87755   0.84159   0.65877   0.00000  Uiso   1.00
O1590  O     0.83865   0.82802   0.83749   0.00000  Uiso   1.00
O1591  O     0.84515   0.74768   0.77821   0.00000  Uiso   1.00
O1592  O     0.81247   0.92803   0.76767   0.00000  Uiso   1.00
O1593  O     0.74119   0.79917   0.73607   0.00000  Uiso   1.00
O1594  O     0.93452   0.85845   0.71806   0.00000  Uiso   1.00
O1595  O     0.73656   0.85627   0.77820   0.00000  Uiso   1.00
O1596  O     0.92106   0.81944   0.76768   0.00000  Uiso   1.00
O1597  O     0.80467   0.73570   0.73607   0.00000  Uiso   1.00
O1598  O     0.87104   0.92193   0.71806   0.00000  Uiso   1.00
Zn1599 Zn    0.85910   0.80756   0.78278   0.00000  Uiso   1.00
Zn1600 Zn    0.80125   0.79044   0.72258   0.00000  Uiso   1.00
Zn1601 Zn    0.87833   0.86331   0.71188   0.00000  Uiso   1.00
Zn1602 Zn    0.79465   0.87202   0.78277   0.00000  Uiso   1.00
loop_
_geom_bond_atom_site_label_1
_geom_bond_atom_site_label_2
_geom_bond_distance
_geom_bond_site_symmetry_2
_ccdc_geom_bond_type
C1     C11     1.440   .     S
C1     O82     1.259   .     A
C1     O80     1.272   .     A
C2     I66     2.156   .     S
C2     C31     1.426   .     A
C2     C3      1.408   .     A
C3     I65     2.149   .     S
C3     C806    1.408   .     S
C4     O81     1.286   .     A
C4     C10     1.465   .     S
C4     O83     1.274   .     A
C5     C6      1.418   .     A
C5     C7      1.411   .     A
C5     C804    1.408   1_554 S
C6     C32     1.423   .     A
C6     C9      1.406   .     A
C7     C8      1.400   .     A
C7     H35     1.080   .     S
C8     C20     1.404   .     A
C8     N70     1.426   .     S
C9     H46     1.081   .     S
C9     C20     1.389   .     A
C10    C100    1.357   .     S
C10    N156    1.429   .     S
C11    C188    1.357   1_455 S
C11    N246    1.434   1_455 S
C12    C21     1.397   .     A
C12    N71     1.423   .     S
C12    C19     1.413   .     A
C13    C16     1.456   .     S
C13    C281    1.350   .     S
C13    N336    1.430   .     S
C14    C15     1.429   .     S
C14    C547    1.350   1_545 S
C14    I598    2.142   1_545 S
C15    O78     1.282   .     A
C15    O84     1.270   .     A
C16    O85     1.271   .     A
C16    O79     1.262   .     A
C17    C20     1.455   .     S
C17    O76     1.274   .     A
C17    O74     1.279   .     A
C18    O75     1.282   .     A
C18    C19     1.480   .     S
C18    O77     1.292   .     A
C19    C23     1.399   .     A
C21    H56     1.080   .     S
C21    C30     1.406   .     A
C22    H60     1.110   .     S
C22    H59     1.111   .     S
C22    H61     1.112   .     S
C22    N67     1.447   .     S
C23    C29     1.406   .     A
C23    H57     1.080   .     S
C24    H36     1.110   .     S
C24    N68     1.448   .     S
C24    H126    1.111   .     S
C24    H127    1.111   .     S
C25    H40     1.110   .     S
C25    H41     1.110   .     S
C25    N69     1.447   .     S
C25    H576    1.111   1_545 S
C26    H44     1.109   .     S
C26    H45     1.110   .     S
C26    H47     1.111   .     S
C26    N70     1.450   .     S
C27    H50     1.110   .     S
C27    H51     1.111   .     S
C27    N71     1.446   .     S
C27    H49     1.112   .     S
C28    N72     1.446   .     S
C28    H55     1.111   .     S
C28    H54     1.111   .     S
C28    H53     1.110   .     S
C29    C30     1.416   .     A
C29    C31     1.421   .     A
C30    C835    1.407   .     S
C31    C833    1.420   .     S
C32    C33     1.429   .     A
C32    C832    1.420   1_554 S
C33    N72     1.426   .     S
C33    C34     1.408   .     A
C34    I63     2.151   .     S
C34    C831    1.407   1_554 S
H37    C202    1.111   1_455 S
H38    C202    1.111   1_455 S
H39    N336    1.032   .     S
H42    C292    1.111   .     S
H43    N70     1.032   .     S
H48    N71     1.032   .     S
H52    N72     1.029   .     S
H58    N67     1.032   .     S
H62    N68     1.032   .     S
I64    C281    2.142   .     S
N67    C188    1.429   1_455 S
N68    C100    1.434   .     S
N69    H573    1.032   1_545 S
N69    C547    1.430   1_545 S
O73    Zn87    1.948   .     S
O73    Zn86    1.965   .     S
O73    Zn88    1.930   .     S
O73    Zn89    1.926   .     S
O74    Zn87    1.918   .     S
O75    Zn89    1.933   .     S
O76    Zn88    1.926   .     S
O77    Zn86    1.913   .     S
O78    Zn86    1.934   .     S
O79    Zn89    1.937   .     S
O80    Zn87    1.929   .     S
O81    Zn88    1.944   .     S
O82    Zn89    1.940   .     S
O83    Zn86    1.927   .     S
O84    Zn87    1.943   .     S
O85    Zn88    1.935   .     S
C90    C100    1.440   .     S
C90    O171    1.259   .     A
C90    O169    1.272   .     A
C91    I155    2.156   .     S
C91    C120    1.426   .     A
C91    C92     1.408   .     A
C92    I154    2.149   .     S
C92    C895    1.408   .     S
C93    O170    1.286   .     A
C93    C99     1.465   .     S
C93    O172    1.274   .     A
C94    C95     1.418   .     A
C94    C96     1.411   .     A
C94    C893    1.408   1_554 S
C95    C121    1.423   .     A
C95    C98     1.406   .     A
C96    C97     1.400   .     A
C96    H124    1.080   .     S
C97    C109    1.404   .     A
C97    N159    1.426   .     S
C98    H135    1.081   .     S
C98    C109    1.389   .     A
C99    C189    1.357   .     S
C99    N245    1.429   .     S
C101   C110    1.397   .     A
C101   N160    1.423   .     S
C101   C108    1.413   .     A
C102   C105    1.456   .     S
C102   C370    1.350   .     S
C102   N425    1.430   .     S
C103   C104    1.429   .     S
C103   C636    1.350   1_545 S
C103   I687    2.142   1_545 S
C104   O167    1.282   .     A
C104   O173    1.270   .     A
C105   O174    1.271   .     A
C105   O168    1.262   .     A
C106   C109    1.455   .     S
C106   O165    1.274   .     A
C106   O163    1.279   .     A
C107   O164    1.282   .     A
C107   C108    1.480   .     S
C107   O166    1.292   .     A
C108   C112    1.399   .     A
C110   H145    1.080   .     S
C110   C119    1.406   .     A
C111   H149    1.110   .     S
C111   H148    1.111   .     S
C111   H150    1.112   .     S
C111   N156    1.447   .     S
C112   C118    1.406   .     A
C112   H146    1.080   .     S
C113   H125    1.110   .     S
C113   N157    1.448   .     S
C113   H215    1.111   .     S
C113   H216    1.111   .     S
C114   H129    1.110   .     S
C114   H130    1.110   .     S
C114   N158    1.447   .     S
C114   H665    1.111   1_545 S
C115   H133    1.109   .     S
C115   H134    1.110   .     S
C115   H136    1.111   .     S
C115   N159    1.450   .     S
C116   H139    1.110   .     S
C116   H140    1.111   .     S
C116   N160    1.446   .     S
C116   H138    1.112   .     S
C117   N161    1.446   .     S
C117   H144    1.111   .     S
C117   H143    1.111   .     S
C117   H142    1.110   .     S
C118   C119    1.416   .     A
C118   C120    1.421   .     A
C119   C924    1.407   .     S
C120   C922    1.420   .     S
C121   C122    1.429   .     A
C121   C921    1.420   1_554 S
C122   N161    1.426   .     S
C122   C123    1.408   .     A
C123   I152    2.151   .     S
C123   C920    1.407   1_554 S
H128   N425    1.032   .     S
H131   C381    1.111   .     S
H132   N159    1.032   .     S
H137   N160    1.032   .     S
H141   N161    1.029   .     S
H147   N156    1.032   .     S
H151   N157    1.032   .     S
I153   C370    2.142   .     S
N157   C189    1.434   .     S
N158   H662    1.032   1_545 S
N158   C636    1.430   1_545 S
O162   Zn176   1.948   .     S
O162   Zn175   1.965   .     S
O162   Zn177   1.930   .     S
O162   Zn178   1.926   .     S
O163   Zn176   1.918   .     S
O164   Zn178   1.933   .     S
O165   Zn177   1.926   .     S
O166   Zn175   1.913   .     S
O167   Zn175   1.934   .     S
O168   Zn178   1.937   .     S
O169   Zn176   1.929   .     S
O170   Zn177   1.944   .     S
O171   Zn178   1.940   .     S
O172   Zn175   1.927   .     S
O173   Zn176   1.943   .     S
O174   Zn177   1.935   .     S
C179   C189    1.440   .     S
C179   O260    1.259   .     A
C179   O258    1.272   .     A
C180   I244    2.156   .     S
C180   C209    1.426   .     A
C180   C181    1.408   .     A
C181   I243    2.149   .     S
C181   C984    1.408   .     S
C182   O259    1.286   .     A
C182   C188    1.465   .     S
C182   O261    1.274   .     A
C183   C184    1.418   .     A
C183   C185    1.411   .     A
C183   C982    1.408   1_554 S
C184   C210    1.423   .     A
C184   C187    1.406   .     A
C185   C186    1.400   .     A
C185   H213    1.080   .     S
C186   C198    1.404   .     A
C186   N248    1.426   .     S
C187   H224    1.081   .     S
C187   C198    1.389   .     A
C188   C11     1.357   1_655 S
C188   N67     1.429   1_655 S
C190   C199    1.397   .     A
C190   N249    1.423   .     S
C190   C197    1.413   .     A
C191   C194    1.456   .     S
C191   C459    1.350   .     S
C191   N514    1.430   .     S
C192   C193    1.429   .     S
C192   C725    1.350   1_545 S
C192   I776    2.142   1_545 S
C193   O256    1.282   .     A
C193   O262    1.270   .     A
C194   O263    1.271   .     A
C194   O257    1.262   .     A
C195   C198    1.455   .     S
C195   O254    1.274   .     A
C195   O252    1.279   .     A
C196   O253    1.282   .     A
C196   C197    1.480   .     S
C196   O255    1.292   .     A
C197   C201    1.399   .     A
C199   H234    1.080   .     S
C199   C208    1.406   .     A
C200   H238    1.110   .     S
C200   H237    1.111   .     S
C200   H239    1.112   .     S
C200   N245    1.447   .     S
C201   C207    1.406   .     A
C201   H235    1.080   .     S
C202   H214    1.110   .     S
C202   N246    1.448   .     S
C202   H37     1.111   1_655 S
C202   H38     1.111   1_655 S
C203   H218    1.110   .     S
C203   H219    1.110   .     S
C203   N247    1.447   .     S
C203   H754    1.111   1_545 S
C204   H222    1.109   .     S
C204   H223    1.110   .     S
C204   H225    1.111   .     S
C204   N248    1.450   .     S
C205   H228    1.110   .     S
C205   H229    1.111   .     S
C205   N249    1.446   .     S
C205   H227    1.112   .     S
C206   N250    1.446   .     S
C206   H233    1.111   .     S
C206   H232    1.111   .     S
C206   H231    1.110   .     S
C207   C208    1.416   .     A
C207   C209    1.421   .     A
C208   C1013   1.407   .     S
C209   C1011   1.420   .     S
C210   C211    1.429   .     A
C210   C1010   1.420   1_554 S
C211   N250    1.426   .     S
C211   C212    1.408   .     A
C212   I241    2.151   .     S
C212   C1009   1.407   1_554 S
H217   N514    1.032   .     S
H220   C470    1.111   .     S
H221   N248    1.032   .     S
H226   N249    1.032   .     S
H230   N250    1.029   .     S
H236   N245    1.032   .     S
H240   N246    1.032   .     S
I242   C459    2.142   .     S
N246   C11     1.434   1_655 S
N247   H751    1.032   1_545 S
N247   C725    1.430   1_545 S
O251   Zn265   1.948   .     S
O251   Zn264   1.965   .     S
O251   Zn266   1.930   .     S
O251   Zn267   1.926   .     S
O252   Zn265   1.918   .     S
O253   Zn267   1.933   .     S
O254   Zn266   1.926   .     S
O255   Zn264   1.913   .     S
O256   Zn264   1.934   .     S
O257   Zn267   1.937   .     S
O258   Zn265   1.929   .     S
O259   Zn266   1.944   .     S
O260   Zn267   1.940   .     S
O261   Zn264   1.927   .     S
O262   Zn265   1.943   .     S
O263   Zn266   1.935   .     S
C268   C278    1.440   .     S
C268   O349    1.259   .     A
C268   O347    1.272   .     A
C269   I333    2.156   .     S
C269   C298    1.426   .     A
C269   C270    1.408   .     A
C270   I332    2.149   .     S
C270   C1073   1.408   .     S
C271   O348    1.286   .     A
C271   C277    1.465   .     S
C271   O350    1.274   .     A
C272   C273    1.418   .     A
C272   C274    1.411   .     A
C272   C1071   1.408   1_554 S
C273   C299    1.423   .     A
C273   C276    1.406   .     A
C274   C275    1.400   .     A
C274   H302    1.080   .     S
C275   C287    1.404   .     A
C275   N337    1.426   .     S
C276   H313    1.081   .     S
C276   C287    1.389   .     A
C277   C367    1.357   .     S
C277   N423    1.429   .     S
C278   C455    1.357   1_455 S
C278   N513    1.434   1_455 S
C279   C288    1.397   .     A
C279   N338    1.423   .     S
C279   C286    1.413   .     A
C280   C283    1.456   .     S
C280   C548    1.350   .     S
C280   N603    1.430   .     S
C281   C282    1.429   .     S
C282   O345    1.282   .     A
C282   O351    1.270   .     A
C283   O352    1.271   .     A
C283   O346    1.262   .     A
C284   C287    1.455   .     S
C284   O343    1.274   .     A
C284   O341    1.279   .     A
C285   O342    1.282   .     A
C285   C286    1.480   .     S
C285   O344    1.292   .     A
C286   C290    1.399   .     A
C288   H323    1.080   .     S
C288   C297    1.406   .     A
C289   H327    1.110   .     S
C289   H326    1.111   .     S
C289   H328    1.112   .     S
C289   N334    1.447   .     S
C290   C296    1.406   .     A
C290   H324    1.080   .     S
C291   H303    1.110   .     S
C291   N335    1.448   .     S
C291   H393    1.111   .     S
C291   H394    1.111   .     S
C292   H307    1.110   .     S
C292   H308    1.110   .     S
C292   N336    1.447   .     S
C293   H311    1.109   .     S
C293   H312    1.110   .     S
C293   H314    1.111   .     S
C293   N337    1.450   .     S
C294   H317    1.110   .     S
C294   H318    1.111   .     S
C294   N338    1.446   .     S
C294   H316    1.112   .     S
C295   N339    1.446   .     S
C295   H322    1.111   .     S
C295   H321    1.111   .     S
C295   H320    1.110   .     S
C296   C297    1.416   .     A
C296   C298    1.421   .     A
C297   C1102   1.407   .     S
C298   C1100   1.420   .     S
C299   C300    1.429   .     A
C299   C1099   1.420   1_554 S
C300   N339    1.426   .     S
C300   C301    1.408   .     A
C301   I330    2.151   .     S
C301   C1098   1.407   1_554 S
H304   C469    1.111   1_455 S
H305   C469    1.111   1_455 S
H306   N603    1.032   .     S
H309   C559    1.111   .     S
H310   N337    1.032   .     S
H315   N338    1.032   .     S
H319   N339    1.029   .     S
H325   N334    1.032   .     S
H329   N335    1.032   .     S
I331   C548    2.142   .     S
N334   C455    1.429   1_455 S
N335   C367    1.434   .     S
O340   Zn354   1.948   .     S
O340   Zn353   1.965   .     S
O340   Zn355   1.930   .     S
O340   Zn356   1.926   .     S
O341   Zn354   1.918   .     S
O342   Zn356   1.933   .     S
O343   Zn355   1.926   .     S
O344   Zn353   1.913   .     S
O345   Zn353   1.934   .     S
O346   Zn356   1.937   .     S
O347   Zn354   1.929   .     S
O348   Zn355   1.944   .     S
O349   Zn356   1.940   .     S
O350   Zn353   1.927   .     S
O351   Zn354   1.943   .     S
O352   Zn355   1.935   .     S
C357   C367    1.440   .     S
C357   O438    1.259   .     A
C357   O436    1.272   .     A
C358   I422    2.156   .     S
C358   C387    1.426   .     A
C358   C359    1.408   .     A
C359   I421    2.149   .     S
C359   C1162   1.408   .     S
C360   O437    1.286   .     A
C360   C366    1.465   .     S
C360   O439    1.274   .     A
C361   C362    1.418   .     A
C361   C363    1.411   .     A
C361   C1160   1.408   1_554 S
C362   C388    1.423   .     A
C362   C365    1.406   .     A
C363   C364    1.400   .     A
C363   H391    1.080   .     S
C364   C376    1.404   .     A
C364   N426    1.426   .     S
C365   H402    1.081   .     S
C365   C376    1.389   .     A
C366   C456    1.357   .     S
C366   N512    1.429   .     S
C368   C377    1.397   .     A
C368   N427    1.423   .     S
C368   C375    1.413   .     A
C369   C372    1.456   .     S
C369   C637    1.350   .     S
C369   N692    1.430   .     S
C370   C371    1.429   .     S
C371   O434    1.282   .     A
C371   O440    1.270   .     A
C372   O441    1.271   .     A
C372   O435    1.262   .     A
C373   C376    1.455   .     S
C373   O432    1.274   .     A
C373   O430    1.279   .     A
C374   O431    1.282   .     A
C374   C375    1.480   .     S
C374   O433    1.292   .     A
C375   C379    1.399   .     A
C377   H412    1.080   .     S
C377   C386    1.406   .     A
C378   H416    1.110   .     S
C378   H415    1.111   .     S
C378   H417    1.112   .     S
C378   N423    1.447   .     S
C379   C385    1.406   .     A
C379   H413    1.080   .     S
C380   H392    1.110   .     S
C380   N424    1.448   .     S
C380   H482    1.111   .     S
C380   H483    1.111   .     S
C381   H396    1.110   .     S
C381   H397    1.110   .     S
C381   N425    1.447   .     S
C382   H400    1.109   .     S
C382   H401    1.110   .     S
C382   H403    1.111   .     S
C382   N426    1.450   .     S
C383   H406    1.110   .     S
C383   H407    1.111   .     S
C383   N427    1.446   .     S
C383   H405    1.112   .     S
C384   N428    1.446   .     S
C384   H411    1.111   .     S
C384   H410    1.111   .     S
C384   H409    1.110   .     S
C385   C386    1.416   .     A
C385   C387    1.421   .     A
C386   C1191   1.407   .     S
C387   C1189   1.420   .     S
C388   C389    1.429   .     A
C388   C1188   1.420   1_554 S
C389   N428    1.426   .     S
C389   C390    1.408   .     A
C390   I419    2.151   .     S
C390   C1187   1.407   1_554 S
H395   N692    1.032   .     S
H398   C648    1.111   .     S
H399   N426    1.032   .     S
H404   N427    1.032   .     S
H408   N428    1.029   .     S
H414   N423    1.032   .     S
H418   N424    1.032   .     S
I420   C637    2.142   .     S
N424   C456    1.434   .     S
O429   Zn443   1.948   .     S
O429   Zn442   1.965   .     S
O429   Zn444   1.930   .     S
O429   Zn445   1.926   .     S
O430   Zn443   1.918   .     S
O431   Zn445   1.933   .     S
O432   Zn444   1.926   .     S
O433   Zn442   1.913   .     S
O434   Zn442   1.934   .     S
O435   Zn445   1.937   .     S
O436   Zn443   1.929   .     S
O437   Zn444   1.944   .     S
O438   Zn445   1.940   .     S
O439   Zn442   1.927   .     S
O440   Zn443   1.943   .     S
O441   Zn444   1.935   .     S
C446   C456    1.440   .     S
C446   O527    1.259   .     A
C446   O525    1.272   .     A
C447   I511    2.156   .     S
C447   C476    1.426   .     A
C447   C448    1.408   .     A
C448   I510    2.149   .     S
C448   C1251   1.408   .     S
C449   O526    1.286   .     A
C449   C455    1.465   .     S
C449   O528    1.274   .     A
C450   C451    1.418   .     A
C450   C452    1.411   .     A
C450   C1249   1.408   1_554 S
C451   C477    1.423   .     A
C451   C454    1.406   .     A
C452   C453    1.400   .     A
C452   H480    1.080   .     S
C453   C465    1.404   .     A
C453   N515    1.426   .     S
C454   H491    1.081   .     S
C454   C465    1.389   .     A
C455   C278    1.357   1_655 S
C455   N334    1.429   1_655 S
C457   C466    1.397   .     A
C457   N516    1.423   .     S
C457   C464    1.413   .     A
C458   C461    1.456   .     S
C458   C726    1.350   .     S
C458   N781    1.430   .     S
C459   C460    1.429   .     S
C460   O523    1.282   .     A
C460   O529    1.270   .     A
C461   O530    1.271   .     A
C461   O524    1.262   .     A
C462   C465    1.455   .     S
C462   O521    1.274   .     A
C462   O519    1.279   .     A
C463   O520    1.282   .     A
C463   C464    1.480   .     S
C463   O522    1.292   .     A
C464   C468    1.399   .     A
C466   H501    1.080   .     S
C466   C475    1.406   .     A
C467   H505    1.110   .     S
C467   H504    1.111   .     S
C467   H506    1.112   .     S
C467   N512    1.447   .     S
C468   C474    1.406   .     A
C468   H502    1.080   .     S
C469   H481    1.110   .     S
C469   N513    1.448   .     S
C469   H304    1.111   1_655 S
C469   H305    1.111   1_655 S
C470   H485    1.110   .     S
C470   H486    1.110   .     S
C470   N514    1.447   .     S
C471   H489    1.109   .     S
C471   H490    1.110   .     S
C471   H492    1.111   .     S
C471   N515    1.450   .     S
C472   H495    1.110   .     S
C472   H496    1.111   .     S
C472   N516    1.446   .     S
C472   H494    1.112   .     S
C473   N517    1.446   .     S
C473   H500    1.111   .     S
C473   H499    1.111   .     S
C473   H498    1.110   .     S
C474   C475    1.416   .     A
C474   C476    1.421   .     A
C475   C1280   1.407   .     S
C476   C1278   1.420   .     S
C477   C478    1.429   .     A
C477   C1277   1.420   1_554 S
C478   N517    1.426   .     S
C478   C479    1.408   .     A
C479   I508    2.151   .     S
C479   C1276   1.407   1_554 S
H484   N781    1.032   .     S
H487   C737    1.111   .     S
H488   N515    1.032   .     S
H493   N516    1.032   .     S
H497   N517    1.029   .     S
H503   N512    1.032   .     S
H507   N513    1.032   .     S
I509   C726    2.142   .     S
N513   C278    1.434   1_655 S
O518   Zn532   1.948   .     S
O518   Zn531   1.965   .     S
O518   Zn533   1.930   .     S
O518   Zn534   1.926   .     S
O519   Zn532   1.918   .     S
O520   Zn534   1.933   .     S
O521   Zn533   1.926   .     S
O522   Zn531   1.913   .     S
O523   Zn531   1.934   .     S
O524   Zn534   1.937   .     S
O525   Zn532   1.929   .     S
O526   Zn533   1.944   .     S
O527   Zn534   1.940   .     S
O528   Zn531   1.927   .     S
O529   Zn532   1.943   .     S
O530   Zn533   1.935   .     S
C535   C545    1.440   .     S
C535   O616    1.259   .     A
C535   O614    1.272   .     A
C536   I600    2.156   .     S
C536   C565    1.426   .     A
C536   C537    1.408   .     A
C537   I599    2.149   .     S
C537   C1340   1.408   .     S
C538   O615    1.286   .     A
C538   C544    1.465   .     S
C538   O617    1.274   .     A
C539   C540    1.418   .     A
C539   C541    1.411   .     A
C539   C1338   1.408   1_554 S
C540   C566    1.423   .     A
C540   C543    1.406   .     A
C541   C542    1.400   .     A
C541   H569    1.080   .     S
C542   C554    1.404   .     A
C542   N604    1.426   .     S
C543   H580    1.081   .     S
C543   C554    1.389   .     A
C544   C634    1.357   .     S
C544   N690    1.429   .     S
C545   C722    1.357   1_455 S
C545   N780    1.434   1_455 S
C546   C555    1.397   .     A
C546   N605    1.423   .     S
C546   C553    1.413   .     A
C547   C550    1.456   .     S
C547   C14     1.350   1_565 S
C547   N69     1.430   1_565 S
C548   C549    1.429   .     S
C549   O612    1.282   .     A
C549   O618    1.270   .     A
C550   O619    1.271   .     A
C550   O613    1.262   .     A
C551   C554    1.455   .     S
C551   O610    1.274   .     A
C551   O608    1.279   .     A
C552   O609    1.282   .     A
C552   C553    1.480   .     S
C552   O611    1.292   .     A
C553   C557    1.399   .     A
C555   H590    1.080   .     S
C555   C564    1.406   .     A
C556   H594    1.110   .     S
C556   H593    1.111   .     S
C556   H595    1.112   .     S
C556   N601    1.447   .     S
C557   C563    1.406   .     A
C557   H591    1.080   .     S
C558   H570    1.110   .     S
C558   N602    1.448   .     S
C558   H660    1.111   .     S
C558   H661    1.111   .     S
C559   H574    1.110   .     S
C559   H575    1.110   .     S
C559   N603    1.447   .     S
C560   H578    1.109   .     S
C560   H579    1.110   .     S
C560   H581    1.111   .     S
C560   N604    1.450   .     S
C561   H584    1.110   .     S
C561   H585    1.111   .     S
C561   N605    1.446   .     S
C561   H583    1.112   .     S
C562   N606    1.446   .     S
C562   H589    1.111   .     S
C562   H588    1.111   .     S
C562   H587    1.110   .     S
C563   C564    1.416   .     A
C563   C565    1.421   .     A
C564   C1369   1.407   .     S
C565   C1367   1.420   .     S
C566   C567    1.429   .     A
C566   C1366   1.420   1_554 S
C567   N606    1.426   .     S
C567   C568    1.408   .     A
C568   I597    2.151   .     S
C568   C1365   1.407   1_554 S
H571   C736    1.111   1_455 S
H572   C736    1.111   1_455 S
H573   N69     1.032   1_565 S
H576   C25     1.111   1_565 S
H577   N604    1.032   .     S
H582   N605    1.032   .     S
H586   N606    1.029   .     S
H592   N601    1.032   .     S
H596   N602    1.032   .     S
I598   C14     2.142   1_565 S
N601   C722    1.429   1_455 S
N602   C634    1.434   .     S
O607   Zn621   1.948   .     S
O607   Zn620   1.965   .     S
O607   Zn622   1.930   .     S
O607   Zn623   1.926   .     S
O608   Zn621   1.918   .     S
O609   Zn623   1.933   .     S
O610   Zn622   1.926   .     S
O611   Zn620   1.913   .     S
O612   Zn620   1.934   .     S
O613   Zn623   1.937   .     S
O614   Zn621   1.929   .     S
O615   Zn622   1.944   .     S
O616   Zn623   1.940   .     S
O617   Zn620   1.927   .     S
O618   Zn621   1.943   .     S
O619   Zn622   1.935   .     S
C624   C634    1.440   .     S
C624   O705    1.259   .     A
C624   O703    1.272   .     A
C625   I689    2.156   .     S
C625   C654    1.426   .     A
C625   C626    1.408   .     A
C626   I688    2.149   .     S
C626   C1429   1.408   .     S
C627   O704    1.286   .     A
C627   C633    1.465   .     S
C627   O706    1.274   .     A
C628   C629    1.418   .     A
C628   C630    1.411   .     A
C628   C1427   1.408   1_554 S
C629   C655    1.423   .     A
C629   C632    1.406   .     A
C630   C631    1.400   .     A
C630   H658    1.080   .     S
C631   C643    1.404   .     A
C631   N693    1.426   .     S
C632   H669    1.081   .     S
C632   C643    1.389   .     A
C633   C723    1.357   .     S
C633   N779    1.429   .     S
C635   C644    1.397   .     A
C635   N694    1.423   .     S
C635   C642    1.413   .     A
C636   C639    1.456   .     S
C636   C103    1.350   1_565 S
C636   N158    1.430   1_565 S
C637   C638    1.429   .     S
C638   O701    1.282   .     A
C638   O707    1.270   .     A
C639   O708    1.271   .     A
C639   O702    1.262   .     A
C640   C643    1.455   .     S
C640   O699    1.274   .     A
C640   O697    1.279   .     A
C641   O698    1.282   .     A
C641   C642    1.480   .     S
C641   O700    1.292   .     A
C642   C646    1.399   .     A
C644   H679    1.080   .     S
C644   C653    1.406   .     A
C645   H683    1.110   .     S
C645   H682    1.111   .     S
C645   H684    1.112   .     S
C645   N690    1.447   .     S
C646   C652    1.406   .     A
C646   H680    1.080   .     S
C647   H659    1.110   .     S
C647   N691    1.448   .     S
C647   H749    1.111   .     S
C647   H750    1.111   .     S
C648   H663    1.110   .     S
C648   H664    1.110   .     S
C648   N692    1.447   .     S
C649   H667    1.109   .     S
C649   H668    1.110   .     S
C649   H670    1.111   .     S
C649   N693    1.450   .     S
C650   H673    1.110   .     S
C650   H674    1.111   .     S
C650   N694    1.446   .     S
C650   H672    1.112   .     S
C651   N695    1.446   .     S
C651   H678    1.111   .     S
C651   H677    1.111   .     S
C651   H676    1.110   .     S
C652   C653    1.416   .     A
C652   C654    1.421   .     A
C653   C1458   1.407   .     S
C654   C1456   1.420   .     S
C655   C656    1.429   .     A
C655   C1455   1.420   1_554 S
C656   N695    1.426   .     S
C656   C657    1.408   .     A
C657   I686    2.151   .     S
C657   C1454   1.407   1_554 S
H662   N158    1.032   1_565 S
H665   C114    1.111   1_565 S
H666   N693    1.032   .     S
H671   N694    1.032   .     S
H675   N695    1.029   .     S
H681   N690    1.032   .     S
H685   N691    1.032   .     S
I687   C103    2.142   1_565 S
N691   C723    1.434   .     S
O696   Zn710   1.948   .     S
O696   Zn709   1.965   .     S
O696   Zn711   1.930   .     S
O696   Zn712   1.926   .     S
O697   Zn710   1.918   .     S
O698   Zn712   1.933   .     S
O699   Zn711   1.926   .     S
O700   Zn709   1.913   .     S
O701   Zn709   1.934   .     S
O702   Zn712   1.937   .     S
O703   Zn710   1.929   .     S
O704   Zn711   1.944   .     S
O705   Zn712   1.940   .     S
O706   Zn709   1.927   .     S
O707   Zn710   1.943   .     S
O708   Zn711   1.935   .     S
C713   C723    1.440   .     S
C713   O794    1.259   .     A
C713   O792    1.272   .     A
C714   I778    2.156   .     S
C714   C743    1.426   .     A
C714   C715    1.408   .     A
C715   I777    2.149   .     S
C715   C1518   1.408   .     S
C716   O793    1.286   .     A
C716   C722    1.465   .     S
C716   O795    1.274   .     A
C717   C718    1.418   .     A
C717   C719    1.411   .     A
C717   C1516   1.408   1_554 S
C718   C744    1.423   .     A
C718   C721    1.406   .     A
C719   C720    1.400   .     A
C719   H747    1.080   .     S
C720   C732    1.404   .     A
C720   N782    1.426   .     S
C721   H758    1.081   .     S
C721   C732    1.389   .     A
C722   C545    1.357   1_655 S
C722   N601    1.429   1_655 S
C724   C733    1.397   .     A
C724   N783    1.423   .     S
C724   C731    1.413   .     A
C725   C728    1.456   .     S
C725   C192    1.350   1_565 S
C725   N247    1.430   1_565 S
C726   C727    1.429   .     S
C727   O790    1.282   .     A
C727   O796    1.270   .     A
C728   O797    1.271   .     A
C728   O791    1.262   .     A
C729   C732    1.455   .     S
C729   O788    1.274   .     A
C729   O786    1.279   .     A
C730   O787    1.282   .     A
C730   C731    1.480   .     S
C730   O789    1.292   .     A
C731   C735    1.399   .     A
C733   H768    1.080   .     S
C733   C742    1.406   .     A
C734   H772    1.110   .     S
C734   H771    1.111   .     S
C734   H773    1.112   .     S
C734   N779    1.447   .     S
C735   C741    1.406   .     A
C735   H769    1.080   .     S
C736   H748    1.110   .     S
C736   N780    1.448   .     S
C736   H571    1.111   1_655 S
C736   H572    1.111   1_655 S
C737   H752    1.110   .     S
C737   H753    1.110   .     S
C737   N781    1.447   .     S
C738   H756    1.109   .     S
C738   H757    1.110   .     S
C738   H759    1.111   .     S
C738   N782    1.450   .     S
C739   H762    1.110   .     S
C739   H763    1.111   .     S
C739   N783    1.446   .     S
C739   H761    1.112   .     S
C740   N784    1.446   .     S
C740   H767    1.111   .     S
C740   H766    1.111   .     S
C740   H765    1.110   .     S
C741   C742    1.416   .     A
C741   C743    1.421   .     A
C742   C1547   1.407   .     S
C743   C1545   1.420   .     S
C744   C745    1.429   .     A
C744   C1544   1.420   1_554 S
C745   N784    1.426   .     S
C745   C746    1.408   .     A
C746   I775    2.151   .     S
C746   C1543   1.407   1_554 S
H751   N247    1.032   1_565 S
H754   C203    1.111   1_565 S
H755   N782    1.032   .     S
H760   N783    1.032   .     S
H764   N784    1.029   .     S
H770   N779    1.032   .     S
H774   N780    1.032   .     S
I776   C192    2.142   1_565 S
N780   C545    1.434   1_655 S
O785   Zn799   1.948   .     S
O785   Zn798   1.965   .     S
O785   Zn800   1.930   .     S
O785   Zn801   1.926   .     S
O786   Zn799   1.918   .     S
O787   Zn801   1.933   .     S
O788   Zn800   1.926   .     S
O789   Zn798   1.913   .     S
O790   Zn798   1.934   .     S
O791   Zn801   1.937   .     S
O792   Zn799   1.929   .     S
O793   Zn800   1.944   .     S
O794   Zn801   1.940   .     S
O795   Zn798   1.927   .     S
O796   Zn799   1.943   .     S
O797   Zn800   1.935   .     S
C802   C812    1.440   .     S
C802   O883    1.259   .     A
C802   O881    1.272   .     A
C803   I867    2.156   .     S
C803   C832    1.426   .     A
C803   C804    1.408   .     A
C804   I866    2.149   .     S
C804   C5      1.408   1_556 S
C805   O882    1.286   .     A
C805   C811    1.465   .     S
C805   O884    1.274   .     A
C806   C807    1.418   .     A
C806   C808    1.411   .     A
C807   C833    1.423   .     A
C807   C810    1.406   .     A
C808   C809    1.400   .     A
C808   H836    1.080   .     S
C809   C821    1.404   .     A
C809   N871    1.426   .     S
C810   H847    1.081   .     S
C810   C821    1.389   .     A
C811   C901    1.357   .     S
C811   N957    1.429   .     S
C812   C989    1.357   1_455 S
C812   N1047   1.434   1_455 S
C813   C822    1.397   .     A
C813   N872    1.423   .     S
C813   C820    1.413   .     A
C814   C817    1.456   .     S
C814   C1082   1.350   .     S
C814   N1137   1.430   .     S
C815   C816    1.429   .     S
C815   C1348   1.350   1_545 S
C815   I1399   2.142   1_545 S
C816   O879    1.282   .     A
C816   O885    1.270   .     A
C817   O886    1.271   .     A
C817   O880    1.262   .     A
C818   C821    1.455   .     S
C818   O877    1.274   .     A
C818   O875    1.279   .     A
C819   O876    1.282   .     A
C819   C820    1.480   .     S
C819   O878    1.292   .     A
C820   C824    1.399   .     A
C822   H857    1.080   .     S
C822   C831    1.406   .     A
C823   H861    1.110   .     S
C823   H860    1.111   .     S
C823   H862    1.112   .     S
C823   N868    1.447   .     S
C824   C830    1.406   .     A
C824   H858    1.080   .     S
C825   H837    1.110   .     S
C825   N869    1.448   .     S
C825   H927    1.111   .     S
C825   H928    1.111   .     S
C826   H841    1.110   .     S
C826   H842    1.110   .     S
C826   N870    1.447   .     S
C826   H1377   1.111   1_545 S
C827   H845    1.109   .     S
C827   H846    1.110   .     S
C827   H848    1.111   .     S
C827   N871    1.450   .     S
C828   H851    1.110   .     S
C828   H852    1.111   .     S
C828   N872    1.446   .     S
C828   H850    1.112   .     S
C829   N873    1.446   .     S
C829   H856    1.111   .     S
C829   H855    1.111   .     S
C829   H854    1.110   .     S
C830   C831    1.416   .     A
C830   C832    1.421   .     A
C831   C34     1.407   1_556 S
C832   C32     1.420   1_556 S
C833   C834    1.429   .     A
C834   N873    1.426   .     S
C834   C835    1.408   .     A
C835   I864    2.151   .     S
H838   C1003   1.111   1_455 S
H839   C1003   1.111   1_455 S
H840   N1137   1.032   .     S
H843   C1093   1.111   .     S
H844   N871    1.032   .     S
H849   N872    1.032   .     S
H853   N873    1.029   .     S
H859   N868    1.032   .     S
H863   N869    1.032   .     S
I865   C1082   2.142   .     S
N868   C989    1.429   1_455 S
N869   C901    1.434   .     S
N870   H1374   1.032   1_545 S
N870   C1348   1.430   1_545 S
O874   Zn888   1.948   .     S
O874   Zn887   1.965   .     S
O874   Zn889   1.930   .     S
O874   Zn890   1.926   .     S
O875   Zn888   1.918   .     S
O876   Zn890   1.933   .     S
O877   Zn889   1.926   .     S
O878   Zn887   1.913   .     S
O879   Zn887   1.934   .     S
O880   Zn890   1.937   .     S
O881   Zn888   1.929   .     S
O882   Zn889   1.944   .     S
O883   Zn890   1.940   .     S
O884   Zn887   1.927   .     S
O885   Zn888   1.943   .     S
O886   Zn889   1.935   .     S
C891   C901    1.440   .     S
C891   O972    1.259   .     A
C891   O970    1.272   .     A
C892   I956    2.156   .     S
C892   C921    1.426   .     A
C892   C893    1.408   .     A
C893   I955    2.149   .     S
C893   C94     1.408   1_556 S
C894   O971    1.286   .     A
C894   C900    1.465   .     S
C894   O973    1.274   .     A
C895   C896    1.418   .     A
C895   C897    1.411   .     A
C896   C922    1.423   .     A
C896   C899    1.406   .     A
C897   C898    1.400   .     A
C897   H925    1.080   .     S
C898   C910    1.404   .     A
C898   N960    1.426   .     S
C899   H936    1.081   .     S
C899   C910    1.389   .     A
C900   C990    1.357   .     S
C900   N1046   1.429   .     S
C902   C911    1.397   .     A
C902   N961    1.423   .     S
C902   C909    1.413   .     A
C903   C906    1.456   .     S
C903   C1171   1.350   .     S
C903   N1226   1.430   .     S
C904   C905    1.429   .     S
C904   C1437   1.350   1_545 S
C904   I1488   2.142   1_545 S
C905   O968    1.282   .     A
C905   O974    1.270   .     A
C906   O975    1.271   .     A
C906   O969    1.262   .     A
C907   C910    1.455   .     S
C907   O966    1.274   .     A
C907   O964    1.279   .     A
C908   O965    1.282   .     A
C908   C909    1.480   .     S
C908   O967    1.292   .     A
C909   C913    1.399   .     A
C911   H946    1.080   .     S
C911   C920    1.406   .     A
C912   H950    1.110   .     S
C912   H949    1.111   .     S
C912   H951    1.112   .     S
C912   N957    1.447   .     S
C913   C919    1.406   .     A
C913   H947    1.080   .     S
C914   H926    1.110   .     S
C914   N958    1.448   .     S
C914   H1016   1.111   .     S
C914   H1017   1.111   .     S
C915   H930    1.110   .     S
C915   H931    1.110   .     S
C915   N959    1.447   .     S
C915   H1466   1.111   1_545 S
C916   H934    1.109   .     S
C916   H935    1.110   .     S
C916   H937    1.111   .     S
C916   N960    1.450   .     S
C917   H940    1.110   .     S
C917   H941    1.111   .     S
C917   N961    1.446   .     S
C917   H939    1.112   .     S
C918   N962    1.446   .     S
C918   H945    1.111   .     S
C918   H944    1.111   .     S
C918   H943    1.110   .     S
C919   C920    1.416   .     A
C919   C921    1.421   .     A
C920   C123    1.407   1_556 S
C921   C121    1.420   1_556 S
C922   C923    1.429   .     A
C923   N962    1.426   .     S
C923   C924    1.408   .     A
C924   I953    2.151   .     S
H929   N1226   1.032   .     S
H932   C1182   1.111   .     S
H933   N960    1.032   .     S
H938   N961    1.032   .     S
H942   N962    1.029   .     S
H948   N957    1.032   .     S
H952   N958    1.032   .     S
I954   C1171   2.142   .     S
N958   C990    1.434   .     S
N959   H1463   1.032   1_545 S
N959   C1437   1.430   1_545 S
O963   Zn977   1.948   .     S
O963   Zn976   1.965   .     S
O963   Zn978   1.930   .     S
O963   Zn979   1.926   .     S
O964   Zn977   1.918   .     S
O965   Zn979   1.933   .     S
O966   Zn978   1.926   .     S
O967   Zn976   1.913   .     S
O968   Zn976   1.934   .     S
O969   Zn979   1.937   .     S
O970   Zn977   1.929   .     S
O971   Zn978   1.944   .     S
O972   Zn979   1.940   .     S
O973   Zn976   1.927   .     S
O974   Zn977   1.943   .     S
O975   Zn978   1.935   .     S
C980   C990    1.440   .     S
C980   O1061   1.259   .     A
C980   O1059   1.272   .     A
C981   I1045   2.156   .     S
C981   C1010   1.426   .     A
C981   C982    1.408   .     A
C982   I1044   2.149   .     S
C982   C183    1.408   1_556 S
C983   O1060   1.286   .     A
C983   C989    1.465   .     S
C983   O1062   1.274   .     A
C984   C985    1.418   .     A
C984   C986    1.411   .     A
C985   C1011   1.423   .     A
C985   C988    1.406   .     A
C986   C987    1.400   .     A
C986   H1014   1.080   .     S
C987   C999    1.404   .     A
C987   N1049   1.426   .     S
C988   H1025   1.081   .     S
C988   C999    1.389   .     A
C989   C812    1.357   1_655 S
C989   N868    1.429   1_655 S
C991   C1000   1.397   .     A
C991   N1050   1.423   .     S
C991   C998    1.413   .     A
C992   C995    1.456   .     S
C992   C1260   1.350   .     S
C992   N1315   1.430   .     S
C993   C994    1.429   .     S
C993   C1526   1.350   1_545 S
C993   I1577   2.142   1_545 S
C994   O1057   1.282   .     A
C994   O1063   1.270   .     A
C995   O1064   1.271   .     A
C995   O1058   1.262   .     A
C996   C999    1.455   .     S
C996   O1055   1.274   .     A
C996   O1053   1.279   .     A
C997   O1054   1.282   .     A
C997   C998    1.480   .     S
C997   O1056   1.292   .     A
C998   C1002   1.399   .     A
C1000  H1035   1.080   .     S
C1000  C1009   1.406   .     A
C1001  H1039   1.110   .     S
C1001  H1038   1.111   .     S
C1001  H1040   1.112   .     S
C1001  N1046   1.447   .     S
C1002  C1008   1.406   .     A
C1002  H1036   1.080   .     S
C1003  H1015   1.110   .     S
C1003  N1047   1.448   .     S
C1003  H838    1.111   1_655 S
C1003  H839    1.111   1_655 S
C1004  H1019   1.110   .     S
C1004  H1020   1.110   .     S
C1004  N1048   1.447   .     S
C1004  H1555   1.111   1_545 S
C1005  H1023   1.109   .     S
C1005  H1024   1.110   .     S
C1005  H1026   1.111   .     S
C1005  N1049   1.450   .     S
C1006  H1029   1.110   .     S
C1006  H1030   1.111   .     S
C1006  N1050   1.446   .     S
C1006  H1028   1.112   .     S
C1007  N1051   1.446   .     S
C1007  H1034   1.111   .     S
C1007  H1033   1.111   .     S
C1007  H1032   1.110   .     S
C1008  C1009   1.416   .     A
C1008  C1010   1.421   .     A
C1009  C212    1.407   1_556 S
C1010  C210    1.420   1_556 S
C1011  C1012   1.429   .     A
C1012  N1051   1.426   .     S
C1012  C1013   1.408   .     A
C1013  I1042   2.151   .     S
H1018  N1315   1.032   .     S
H1021  C1271   1.111   .     S
H1022  N1049   1.032   .     S
H1027  N1050   1.032   .     S
H1031  N1051   1.029   .     S
H1037  N1046   1.032   .     S
H1041  N1047   1.032   .     S
I1043  C1260   2.142   .     S
N1047  C812    1.434   1_655 S
N1048  H1552   1.032   1_545 S
N1048  C1526   1.430   1_545 S
O1052  Zn1066  1.948   .     S
O1052  Zn1065  1.965   .     S
O1052  Zn1067  1.930   .     S
O1052  Zn1068  1.926   .     S
O1053  Zn1066  1.918   .     S
O1054  Zn1068  1.933   .     S
O1055  Zn1067  1.926   .     S
O1056  Zn1065  1.913   .     S
O1057  Zn1065  1.934   .     S
O1058  Zn1068  1.937   .     S
O1059  Zn1066  1.929   .     S
O1060  Zn1067  1.944   .     S
O1061  Zn1068  1.940   .     S
O1062  Zn1065  1.927   .     S
O1063  Zn1066  1.943   .     S
O1064  Zn1067  1.935   .     S
C1069  C1079   1.440   .     S
C1069  O1150   1.259   .     A
C1069  O1148   1.272   .     A
C1070  I1134   2.156   .     S
C1070  C1099   1.426   .     A
C1070  C1071   1.408   .     A
C1071  I1133   2.149   .     S
C1071  C272    1.408   1_556 S
C1072  O1149   1.286   .     A
C1072  C1078   1.465   .     S
C1072  O1151   1.274   .     A
C1073  C1074   1.418   .     A
C1073  C1075   1.411   .     A
C1074  C1100   1.423   .     A
C1074  C1077   1.406   .     A
C1075  C1076   1.400   .     A
C1075  H1103   1.080   .     S
C1076  C1088   1.404   .     A
C1076  N1138   1.426   .     S
C1077  H1114   1.081   .     S
C1077  C1088   1.389   .     A
C1078  C1168   1.357   .     S
C1078  N1224   1.429   .     S
C1079  C1256   1.357   1_455 S
C1079  N1314   1.434   1_455 S
C1080  C1089   1.397   .     A
C1080  N1139   1.423   .     S
C1080  C1087   1.413   .     A
C1081  C1084   1.456   .     S
C1081  C1349   1.350   .     S
C1081  N1404   1.430   .     S
C1082  C1083   1.429   .     S
C1083  O1146   1.282   .     A
C1083  O1152   1.270   .     A
C1084  O1153   1.271   .     A
C1084  O1147   1.262   .     A
C1085  C1088   1.455   .     S
C1085  O1144   1.274   .     A
C1085  O1142   1.279   .     A
C1086  O1143   1.282   .     A
C1086  C1087   1.480   .     S
C1086  O1145   1.292   .     A
C1087  C1091   1.399   .     A
C1089  H1124   1.080   .     S
C1089  C1098   1.406   .     A
C1090  H1128   1.110   .     S
C1090  H1127   1.111   .     S
C1090  H1129   1.112   .     S
C1090  N1135   1.447   .     S
C1091  C1097   1.406   .     A
C1091  H1125   1.080   .     S
C1092  H1104   1.110   .     S
C1092  N1136   1.448   .     S
C1092  H1194   1.111   .     S
C1092  H1195   1.111   .     S
C1093  H1108   1.110   .     S
C1093  H1109   1.110   .     S
C1093  N1137   1.447   .     S
C1094  H1112   1.109   .     S
C1094  H1113   1.110   .     S
C1094  H1115   1.111   .     S
C1094  N1138   1.450   .     S
C1095  H1118   1.110   .     S
C1095  H1119   1.111   .     S
C1095  N1139   1.446   .     S
C1095  H1117   1.112   .     S
C1096  N1140   1.446   .     S
C1096  H1123   1.111   .     S
C1096  H1122   1.111   .     S
C1096  H1121   1.110   .     S
C1097  C1098   1.416   .     A
C1097  C1099   1.421   .     A
C1098  C301    1.407   1_556 S
C1099  C299    1.420   1_556 S
C1100  C1101   1.429   .     A
C1101  N1140   1.426   .     S
C1101  C1102   1.408   .     A
C1102  I1131   2.151   .     S
H1105  C1270   1.111   1_455 S
H1106  C1270   1.111   1_455 S
H1107  N1404   1.032   .     S
H1110  C1360   1.111   .     S
H1111  N1138   1.032   .     S
H1116  N1139   1.032   .     S
H1120  N1140   1.029   .     S
H1126  N1135   1.032   .     S
H1130  N1136   1.032   .     S
I1132  C1349   2.142   .     S
N1135  C1256   1.429   1_455 S
N1136  C1168   1.434   .     S
O1141  Zn1155  1.948   .     S
O1141  Zn1154  1.965   .     S
O1141  Zn1156  1.930   .     S
O1141  Zn1157  1.926   .     S
O1142  Zn1155  1.918   .     S
O1143  Zn1157  1.933   .     S
O1144  Zn1156  1.926   .     S
O1145  Zn1154  1.913   .     S
O1146  Zn1154  1.934   .     S
O1147  Zn1157  1.937   .     S
O1148  Zn1155  1.929   .     S
O1149  Zn1156  1.944   .     S
O1150  Zn1157  1.940   .     S
O1151  Zn1154  1.927   .     S
O1152  Zn1155  1.943   .     S
O1153  Zn1156  1.935   .     S
C1158  C1168   1.440   .     S
C1158  O1239   1.259   .     A
C1158  O1237   1.272   .     A
C1159  I1223   2.156   .     S
C1159  C1188   1.426   .     A
C1159  C1160   1.408   .     A
C1160  I1222   2.149   .     S
C1160  C361    1.408   1_556 S
C1161  O1238   1.286   .     A
C1161  C1167   1.465   .     S
C1161  O1240   1.274   .     A
C1162  C1163   1.418   .     A
C1162  C1164   1.411   .     A
C1163  C1189   1.423   .     A
C1163  C1166   1.406   .     A
C1164  C1165   1.400   .     A
C1164  H1192   1.080   .     S
C1165  C1177   1.404   .     A
C1165  N1227   1.426   .     S
C1166  H1203   1.081   .     S
C1166  C1177   1.389   .     A
C1167  C1257   1.357   .     S
C1167  N1313   1.429   .     S
C1169  C1178   1.397   .     A
C1169  N1228   1.423   .     S
C1169  C1176   1.413   .     A
C1170  C1173   1.456   .     S
C1170  C1438   1.350   .     S
C1170  N1493   1.430   .     S
C1171  C1172   1.429   .     S
C1172  O1235   1.282   .     A
C1172  O1241   1.270   .     A
C1173  O1242   1.271   .     A
C1173  O1236   1.262   .     A
C1174  C1177   1.455   .     S
C1174  O1233   1.274   .     A
C1174  O1231   1.279   .     A
C1175  O1232   1.282   .     A
C1175  C1176   1.480   .     S
C1175  O1234   1.292   .     A
C1176  C1180   1.399   .     A
C1178  H1213   1.080   .     S
C1178  C1187   1.406   .     A
C1179  H1217   1.110   .     S
C1179  H1216   1.111   .     S
C1179  H1218   1.112   .     S
C1179  N1224   1.447   .     S
C1180  C1186   1.406   .     A
C1180  H1214   1.080   .     S
C1181  H1193   1.110   .     S
C1181  N1225   1.448   .     S
C1181  H1283   1.111   .     S
C1181  H1284   1.111   .     S
C1182  H1197   1.110   .     S
C1182  H1198   1.110   .     S
C1182  N1226   1.447   .     S
C1183  H1201   1.109   .     S
C1183  H1202   1.110   .     S
C1183  H1204   1.111   .     S
C1183  N1227   1.450   .     S
C1184  H1207   1.110   .     S
C1184  H1208   1.111   .     S
C1184  N1228   1.446   .     S
C1184  H1206   1.112   .     S
C1185  N1229   1.446   .     S
C1185  H1212   1.111   .     S
C1185  H1211   1.111   .     S
C1185  H1210   1.110   .     S
C1186  C1187   1.416   .     A
C1186  C1188   1.421   .     A
C1187  C390    1.407   1_556 S
C1188  C388    1.420   1_556 S
C1189  C1190   1.429   .     A
C1190  N1229   1.426   .     S
C1190  C1191   1.408   .     A
C1191  I1220   2.151   .     S
H1196  N1493   1.032   .     S
H1199  C1449   1.111   .     S
H1200  N1227   1.032   .     S
H1205  N1228   1.032   .     S
H1209  N1229   1.029   .     S
H1215  N1224   1.032   .     S
H1219  N1225   1.032   .     S
I1221  C1438   2.142   .     S
N1225  C1257   1.434   .     S
O1230  Zn1244  1.948   .     S
O1230  Zn1243  1.965   .     S
O1230  Zn1245  1.930   .     S
O1230  Zn1246  1.926   .     S
O1231  Zn1244  1.918   .     S
O1232  Zn1246  1.933   .     S
O1233  Zn1245  1.926   .     S
O1234  Zn1243  1.913   .     S
O1235  Zn1243  1.934   .     S
O1236  Zn1246  1.937   .     S
O1237  Zn1244  1.929   .     S
O1238  Zn1245  1.944   .     S
O1239  Zn1246  1.940   .     S
O1240  Zn1243  1.927   .     S
O1241  Zn1244  1.943   .     S
O1242  Zn1245  1.935   .     S
C1247  C1257   1.440   .     S
C1247  O1328   1.259   .     A
C1247  O1326   1.272   .     A
C1248  I1312   2.156   .     S
C1248  C1277   1.426   .     A
C1248  C1249   1.408   .     A
C1249  I1311   2.149   .     S
C1249  C450    1.408   1_556 S
C1250  O1327   1.286   .     A
C1250  C1256   1.465   .     S
C1250  O1329   1.274   .     A
C1251  C1252   1.418   .     A
C1251  C1253   1.411   .     A
C1252  C1278   1.423   .     A
C1252  C1255   1.406   .     A
C1253  C1254   1.400   .     A
C1253  H1281   1.080   .     S
C1254  C1266   1.404   .     A
C1254  N1316   1.426   .     S
C1255  H1292   1.081   .     S
C1255  C1266   1.389   .     A
C1256  C1079   1.357   1_655 S
C1256  N1135   1.429   1_655 S
C1258  C1267   1.397   .     A
C1258  N1317   1.423   .     S
C1258  C1265   1.413   .     A
C1259  C1262   1.456   .     S
C1259  C1527   1.350   .     S
C1259  N1582   1.430   .     S
C1260  C1261   1.429   .     S
C1261  O1324   1.282   .     A
C1261  O1330   1.270   .     A
C1262  O1331   1.271   .     A
C1262  O1325   1.262   .     A
C1263  C1266   1.455   .     S
C1263  O1322   1.274   .     A
C1263  O1320   1.279   .     A
C1264  O1321   1.282   .     A
C1264  C1265   1.480   .     S
C1264  O1323   1.292   .     A
C1265  C1269   1.399   .     A
C1267  H1302   1.080   .     S
C1267  C1276   1.406   .     A
C1268  H1306   1.110   .     S
C1268  H1305   1.111   .     S
C1268  H1307   1.112   .     S
C1268  N1313   1.447   .     S
C1269  C1275   1.406   .     A
C1269  H1303   1.080   .     S
C1270  H1282   1.110   .     S
C1270  N1314   1.448   .     S
C1270  H1105   1.111   1_655 S
C1270  H1106   1.111   1_655 S
C1271  H1286   1.110   .     S
C1271  H1287   1.110   .     S
C1271  N1315   1.447   .     S
C1272  H1290   1.109   .     S
C1272  H1291   1.110   .     S
C1272  H1293   1.111   .     S
C1272  N1316   1.450   .     S
C1273  H1296   1.110   .     S
C1273  H1297   1.111   .     S
C1273  N1317   1.446   .     S
C1273  H1295   1.112   .     S
C1274  N1318   1.446   .     S
C1274  H1301   1.111   .     S
C1274  H1300   1.111   .     S
C1274  H1299   1.110   .     S
C1275  C1276   1.416   .     A
C1275  C1277   1.421   .     A
C1276  C479    1.407   1_556 S
C1277  C477    1.420   1_556 S
C1278  C1279   1.429   .     A
C1279  N1318   1.426   .     S
C1279  C1280   1.408   .     A
C1280  I1309   2.151   .     S
H1285  N1582   1.032   .     S
H1288  C1538   1.111   .     S
H1289  N1316   1.032   .     S
H1294  N1317   1.032   .     S
H1298  N1318   1.029   .     S
H1304  N1313   1.032   .     S
H1308  N1314   1.032   .     S
I1310  C1527   2.142   .     S
N1314  C1079   1.434   1_655 S
O1319  Zn1333  1.948   .     S
O1319  Zn1332  1.965   .     S
O1319  Zn1334  1.930   .     S
O1319  Zn1335  1.926   .     S
O1320  Zn1333  1.918   .     S
O1321  Zn1335  1.933   .     S
O1322  Zn1334  1.926   .     S
O1323  Zn1332  1.913   .     S
O1324  Zn1332  1.934   .     S
O1325  Zn1335  1.937   .     S
O1326  Zn1333  1.929   .     S
O1327  Zn1334  1.944   .     S
O1328  Zn1335  1.940   .     S
O1329  Zn1332  1.927   .     S
O1330  Zn1333  1.943   .     S
O1331  Zn1334  1.935   .     S
C1336  C1346   1.440   .     S
C1336  O1417   1.259   .     A
C1336  O1415   1.272   .     A
C1337  I1401   2.156   .     S
C1337  C1366   1.426   .     A
C1337  C1338   1.408   .     A
C1338  I1400   2.149   .     S
C1338  C539    1.408   1_556 S
C1339  O1416   1.286   .     A
C1339  C1345   1.465   .     S
C1339  O1418   1.274   .     A
C1340  C1341   1.418   .     A
C1340  C1342   1.411   .     A
C1341  C1367   1.423   .     A
C1341  C1344   1.406   .     A
C1342  C1343   1.400   .     A
C1342  H1370   1.080   .     S
C1343  C1355   1.404   .     A
C1343  N1405   1.426   .     S
C1344  H1381   1.081   .     S
C1344  C1355   1.389   .     A
C1345  C1435   1.357   .     S
C1345  N1491   1.429   .     S
C1346  C1523   1.357   1_455 S
C1346  N1581   1.434   1_455 S
C1347  C1356   1.397   .     A
C1347  N1406   1.423   .     S
C1347  C1354   1.413   .     A
C1348  C1351   1.456   .     S
C1348  C815    1.350   1_565 S
C1348  N870    1.430   1_565 S
C1349  C1350   1.429   .     S
C1350  O1413   1.282   .     A
C1350  O1419   1.270   .     A
C1351  O1420   1.271   .     A
C1351  O1414   1.262   .     A
C1352  C1355   1.455   .     S
C1352  O1411   1.274   .     A
C1352  O1409   1.279   .     A
C1353  O1410   1.282   .     A
C1353  C1354   1.480   .     S
C1353  O1412   1.292   .     A
C1354  C1358   1.399   .     A
C1356  H1391   1.080   .     S
C1356  C1365   1.406   .     A
C1357  H1395   1.110   .     S
C1357  H1394   1.111   .     S
C1357  H1396   1.112   .     S
C1357  N1402   1.447   .     S
C1358  C1364   1.406   .     A
C1358  H1392   1.080   .     S
C1359  H1371   1.110   .     S
C1359  N1403   1.448   .     S
C1359  H1461   1.111   .     S
C1359  H1462   1.111   .     S
C1360  H1375   1.110   .     S
C1360  H1376   1.110   .     S
C1360  N1404   1.447   .     S
C1361  H1379   1.109   .     S
C1361  H1380   1.110   .     S
C1361  H1382   1.111   .     S
C1361  N1405   1.450   .     S
C1362  H1385   1.110   .     S
C1362  H1386   1.111   .     S
C1362  N1406   1.446   .     S
C1362  H1384   1.112   .     S
C1363  N1407   1.446   .     S
C1363  H1390   1.111   .     S
C1363  H1389   1.111   .     S
C1363  H1388   1.110   .     S
C1364  C1365   1.416   .     A
C1364  C1366   1.421   .     A
C1365  C568    1.407   1_556 S
C1366  C566    1.420   1_556 S
C1367  C1368   1.429   .     A
C1368  N1407   1.426   .     S
C1368  C1369   1.408   .     A
C1369  I1398   2.151   .     S
H1372  C1537   1.111   1_455 S
H1373  C1537   1.111   1_455 S
H1374  N870    1.032   1_565 S
H1377  C826    1.111   1_565 S
H1378  N1405   1.032   .     S
H1383  N1406   1.032   .     S
H1387  N1407   1.029   .     S
H1393  N1402   1.032   .     S
H1397  N1403   1.032   .     S
I1399  C815    2.142   1_565 S
N1402  C1523   1.429   1_455 S
N1403  C1435   1.434   .     S
O1408  Zn1422  1.948   .     S
O1408  Zn1421  1.965   .     S
O1408  Zn1423  1.930   .     S
O1408  Zn1424  1.926   .     S
O1409  Zn1422  1.918   .     S
O1410  Zn1424  1.933   .     S
O1411  Zn1423  1.926   .     S
O1412  Zn1421  1.913   .     S
O1413  Zn1421  1.934   .     S
O1414  Zn1424  1.937   .     S
O1415  Zn1422  1.929   .     S
O1416  Zn1423  1.944   .     S
O1417  Zn1424  1.940   .     S
O1418  Zn1421  1.927   .     S
O1419  Zn1422  1.943   .     S
O1420  Zn1423  1.935   .     S
C1425  C1435   1.440   .     S
C1425  O1506   1.259   .     A
C1425  O1504   1.272   .     A
C1426  I1490   2.156   .     S
C1426  C1455   1.426   .     A
C1426  C1427   1.408   .     A
C1427  I1489   2.149   .     S
C1427  C628    1.408   1_556 S
C1428  O1505   1.286   .     A
C1428  C1434   1.465   .     S
C1428  O1507   1.274   .     A
C1429  C1430   1.418   .     A
C1429  C1431   1.411   .     A
C1430  C1456   1.423   .     A
C1430  C1433   1.406   .     A
C1431  C1432   1.400   .     A
C1431  H1459   1.080   .     S
C1432  C1444   1.404   .     A
C1432  N1494   1.426   .     S
C1433  H1470   1.081   .     S
C1433  C1444   1.389   .     A
C1434  C1524   1.357   .     S
C1434  N1580   1.429   .     S
C1436  C1445   1.397   .     A
C1436  N1495   1.423   .     S
C1436  C1443   1.413   .     A
C1437  C1440   1.456   .     S
C1437  C904    1.350   1_565 S
C1437  N959    1.430   1_565 S
C1438  C1439   1.429   .     S
C1439  O1502   1.282   .     A
C1439  O1508   1.270   .     A
C1440  O1509   1.271   .     A
C1440  O1503   1.262   .     A
C1441  C1444   1.455   .     S
C1441  O1500   1.274   .     A
C1441  O1498   1.279   .     A
C1442  O1499   1.282   .     A
C1442  C1443   1.480   .     S
C1442  O1501   1.292   .     A
C1443  C1447   1.399   .     A
C1445  H1480   1.080   .     S
C1445  C1454   1.406   .     A
C1446  H1484   1.110   .     S
C1446  H1483   1.111   .     S
C1446  H1485   1.112   .     S
C1446  N1491   1.447   .     S
C1447  C1453   1.406   .     A
C1447  H1481   1.080   .     S
C1448  H1460   1.110   .     S
C1448  N1492   1.448   .     S
C1448  H1550   1.111   .     S
C1448  H1551   1.111   .     S
C1449  H1464   1.110   .     S
C1449  H1465   1.110   .     S
C1449  N1493   1.447   .     S
C1450  H1468   1.109   .     S
C1450  H1469   1.110   .     S
C1450  H1471   1.111   .     S
C1450  N1494   1.450   .     S
C1451  H1474   1.110   .     S
C1451  H1475   1.111   .     S
C1451  N1495   1.446   .     S
C1451  H1473   1.112   .     S
C1452  N1496   1.446   .     S
C1452  H1479   1.111   .     S
C1452  H1478   1.111   .     S
C1452  H1477   1.110   .     S
C1453  C1454   1.416   .     A
C1453  C1455   1.421   .     A
C1454  C657    1.407   1_556 S
C1455  C655    1.420   1_556 S
C1456  C1457   1.429   .     A
C1457  N1496   1.426   .     S
C1457  C1458   1.408   .     A
C1458  I1487   2.151   .     S
H1463  N959    1.032   1_565 S
H1466  C915    1.111   1_565 S
H1467  N1494   1.032   .     S
H1472  N1495   1.032   .     S
H1476  N1496   1.029   .     S
H1482  N1491   1.032   .     S
H1486  N1492   1.032   .     S
I1488  C904    2.142   1_565 S
N1492  C1524   1.434   .     S
O1497  Zn1511  1.948   .     S
O1497  Zn1510  1.965   .     S
O1497  Zn1512  1.930   .     S
O1497  Zn1513  1.926   .     S
O1498  Zn1511  1.918   .     S
O1499  Zn1513  1.933   .     S
O1500  Zn1512  1.926   .     S
O1501  Zn1510  1.913   .     S
O1502  Zn1510  1.934   .     S
O1503  Zn1513  1.937   .     S
O1504  Zn1511  1.929   .     S
O1505  Zn1512  1.944   .     S
O1506  Zn1513  1.940   .     S
O1507  Zn1510  1.927   .     S
O1508  Zn1511  1.943   .     S
O1509  Zn1512  1.935   .     S
C1514  C1524   1.440   .     S
C1514  O1595   1.259   .     A
C1514  O1593   1.272   .     A
C1515  I1579   2.156   .     S
C1515  C1544   1.426   .     A
C1515  C1516   1.408   .     A
C1516  I1578   2.149   .     S
C1516  C717    1.408   1_556 S
C1517  O1594   1.286   .     A
C1517  C1523   1.465   .     S
C1517  O1596   1.274   .     A
C1518  C1519   1.418   .     A
C1518  C1520   1.411   .     A
C1519  C1545   1.423   .     A
C1519  C1522   1.406   .     A
C1520  C1521   1.400   .     A
C1520  H1548   1.080   .     S
C1521  C1533   1.404   .     A
C1521  N1583   1.426   .     S
C1522  H1559   1.081   .     S
C1522  C1533   1.389   .     A
C1523  C1346   1.357   1_655 S
C1523  N1402   1.429   1_655 S
C1525  C1534   1.397   .     A
C1525  N1584   1.423   .     S
C1525  C1532   1.413   .     A
C1526  C1529   1.456   .     S
C1526  C993    1.350   1_565 S
C1526  N1048   1.430   1_565 S
C1527  C1528   1.429   .     S
C1528  O1591   1.282   .     A
C1528  O1597   1.270   .     A
C1529  O1598   1.271   .     A
C1529  O1592   1.262   .     A
C1530  C1533   1.455   .     S
C1530  O1589   1.274   .     A
C1530  O1587   1.279   .     A
C1531  O1588   1.282   .     A
C1531  C1532   1.480   .     S
C1531  O1590   1.292   .     A
C1532  C1536   1.399   .     A
C1534  H1569   1.080   .     S
C1534  C1543   1.406   .     A
C1535  H1573   1.110   .     S
C1535  H1572   1.111   .     S
C1535  H1574   1.112   .     S
C1535  N1580   1.447   .     S
C1536  C1542   1.406   .     A
C1536  H1570   1.080   .     S
C1537  H1549   1.110   .     S
C1537  N1581   1.448   .     S
C1537  H1372   1.111   1_655 S
C1537  H1373   1.111   1_655 S
C1538  H1553   1.110   .     S
C1538  H1554   1.110   .     S
C1538  N1582   1.447   .     S
C1539  H1557   1.109   .     S
C1539  H1558   1.110   .     S
C1539  H1560   1.111   .     S
C1539  N1583   1.450   .     S
C1540  H1563   1.110   .     S
C1540  H1564   1.111   .     S
C1540  N1584   1.446   .     S
C1540  H1562   1.112   .     S
C1541  N1585   1.446   .     S
C1541  H1568   1.111   .     S
C1541  H1567   1.111   .     S
C1541  H1566   1.110   .     S
C1542  C1543   1.416   .     A
C1542  C1544   1.421   .     A
C1543  C746    1.407   1_556 S
C1544  C744    1.420   1_556 S
C1545  C1546   1.429   .     A
C1546  N1585   1.426   .     S
C1546  C1547   1.408   .     A
C1547  I1576   2.151   .     S
H1552  N1048   1.032   1_565 S
H1555  C1004   1.111   1_565 S
H1556  N1583   1.032   .     S
H1561  N1584   1.032   .     S
H1565  N1585   1.029   .     S
H1571  N1580   1.032   .     S
H1575  N1581   1.032   .     S
I1577  C993    2.142   1_565 S
N1581  C1346   1.434   1_655 S
O1586  Zn1600  1.948   .     S
O1586  Zn1599  1.965   .     S
O1586  Zn1601  1.930   .     S
O1586  Zn1602  1.926   .     S
O1587  Zn1600  1.918   .     S
O1588  Zn1602  1.933   .     S
O1589  Zn1601  1.926   .     S
O1590  Zn1599  1.913   .     S
O1591  Zn1599  1.934   .     S
O1592  Zn1602  1.937   .     S
O1593  Zn1600  1.929   .     S
O1594  Zn1601  1.944   .     S
O1595  Zn1602  1.940   .     S
O1596  Zn1599  1.927   .     S
O1597  Zn1600  1.943   .     S
O1598  Zn1601  1.935   .     S
