data_str_m2_o10_o18_pcu_sym.107
_audit_creation_date              2020-01-03
_audit_creation_method            'Materials Studio'
_symmetry_space_group_name_H-M    'P1'
_symmetry_Int_Tables_number       1
_symmetry_cell_setting            triclinic
loop_
_symmetry_equiv_pos_as_xyz
  x,y,z
_cell_length_a                    22.8887
_cell_length_b                    26.7034
_cell_length_c                    31.8390
_cell_angle_alpha                 94.9297
_cell_angle_beta                  77.4166
_cell_angle_gamma                 103.6910
loop_
_atom_site_label
_atom_site_type_symbol
_atom_site_fract_x
_atom_site_fract_y
_atom_site_fract_z
_atom_site_U_iso_or_equiv
_atom_site_adp_type
_atom_site_occupancy
O1     O     0.12815   0.23809   0.24686   0.00000  Uiso   1.00
O2     O     0.20518   0.09524   0.25314   0.00000  Uiso   1.00
O3     O     0.22829   0.24753   0.25503   0.00000  Uiso   1.00
O4     O     0.10504   0.08580   0.24498   0.00000  Uiso   1.00
C5     C     0.18096   0.26667   0.25332   0.00000  Uiso   1.00
C6     C     0.15170   0.06696   0.24878   0.00000  Uiso   1.00
O7     O     0.08851   0.15930   0.30855   0.00000  Uiso   1.00
O8     O     0.24482   0.17403   0.19146   0.00000  Uiso   1.00
O9     O     0.18866   0.16874   0.31671   0.00000  Uiso   1.00
O10    O     0.14468   0.16460   0.18329   0.00000  Uiso   1.00
C11    C     0.12943   0.16332   0.33288   0.00000  Uiso   1.00
C12    C     0.20397   0.17252   0.16734   0.00000  Uiso   1.00
Cu13   Cu    0.10737   0.16108   0.24517   0.00000  Uiso   1.00
Cu14   Cu    0.22596   0.17225   0.25484   0.00000  Uiso   1.00
C15    C     0.10737   0.15322   0.37959   0.00000  Uiso   1.00
C16    C     0.22434   0.17845   0.11995   0.00000  Uiso   1.00
C17    C     0.04095   0.09282   0.43223   0.00000  Uiso   1.00
C18    C     0.30632   0.19394   0.05606   0.00000  Uiso   1.00
C19    C     0.05448   0.11524   0.39222   0.00000  Uiso   1.00
C20    C     0.28673   0.18892   0.10079   0.00000  Uiso   1.00
C21    C     0.14474   0.17228   0.40956   0.00000  Uiso   1.00
C22    C     0.18107   0.17433   0.09359   0.00000  Uiso   1.00
C23    C     0.13087   0.14993   0.45080   0.00000  Uiso   1.00
C24    C     0.19905   0.16731   0.04825   0.00000  Uiso   1.00
C25    C     0.07504   0.11449   0.46373   0.00000  Uiso   1.00
C26    C     0.26275   0.18117   0.02909   0.00000  Uiso   1.00
C27    C     0.17429   0.15733   0.47721   0.00000  Uiso   1.00
C28    C     0.15556   0.14796   0.02137   0.00000  Uiso   1.00
C29    C     0.09715   0.11413   0.03537   0.00000  Uiso   1.00
C30    C     0.23653   0.16108   0.45844   0.00000  Uiso   1.00
C31    C     0.05598   0.09867   0.00663   0.00000  Uiso   1.00
C32    C     0.28092   0.17988   0.48342   0.00000  Uiso   1.00
H33    H     0.32069   0.19410   0.12061   0.00000  Uiso   1.00
H34    H     0.02790   0.09899   0.36886   0.00000  Uiso   1.00
C35    C     0.18649   0.32326   0.25926   0.00000  Uiso   1.00
C36    C     0.14506   0.01107   0.24625   0.00000  Uiso   1.00
N37    N     0.31506   0.18068   0.26212   0.00000  Uiso   1.00
N38    N     0.01827   0.15265   0.23788   0.00000  Uiso   1.00
O39    O     0.32671   0.07903   0.02132   0.00000  Uiso   1.00
C40    C     0.31371   0.03003   0.03908   0.00000  Uiso   1.00
H41    H     0.30335   0.03517   0.07449   0.00000  Uiso   1.00
H42    H     0.01848   0.00977   0.02918   0.00000  Uiso   1.00
C43    C     0.25649   0.32920   0.02571   0.00000  Uiso   1.00
H44    H     0.26763   0.31000   0.49388   0.00000  Uiso   1.00
H45    H     0.23411   0.29884   0.04952   0.00000  Uiso   1.00
H46    H     0.22377   0.01913   0.02277   0.00000  Uiso   1.00
O47    O     0.00805   0.19679   0.46262   0.00000  Uiso   1.00
C48    C     0.02042   0.25113   0.46101   0.00000  Uiso   1.00
H49    H     0.01339   0.26893   0.49378   0.00000  Uiso   1.00
H50    H     0.32339   0.26329   0.44302   0.00000  Uiso   1.00
C51    C     0.08691   0.27227   0.43969   0.00000  Uiso   1.00
H52    H     0.09590   0.25748   0.40582   0.00000  Uiso   1.00
H53    H     0.09725   0.31497   0.43965   0.00000  Uiso   1.00
H54    H     0.11743   0.26120   0.45818   0.00000  Uiso   1.00
O55    O     0.12249   0.17919   0.11275   0.00000  Uiso   1.00
H56    H     0.10478   0.19209   0.09143   0.00000  Uiso   1.00
O57    O     0.19319   0.21347   0.39812   0.00000  Uiso   1.00
H58    H     0.20500   0.23178   0.42445   0.00000  Uiso   1.00
O59    O     0.00285   0.04451   0.43634   0.00000  Uiso   1.00
H60    H     0.02021   0.02415   0.45285   0.00000  Uiso   1.00
O61    O     0.03477   0.20851   0.03852   0.00000  Uiso   1.00
H62    H     0.05465   0.23187   0.05976   0.00000  Uiso   1.00
O63    O     0.08349   0.09077   0.07460   0.00000  Uiso   1.00
C64    C     0.10966   0.04678   0.07029   0.00000  Uiso   1.00
H65    H     0.12759   0.03483   0.03636   0.00000  Uiso   1.00
H66    H     0.07339   0.01337   0.08368   0.00000  Uiso   1.00
C67    C     0.16001   0.05469   0.09615   0.00000  Uiso   1.00
H68    H     0.16792   0.01685   0.10236   0.00000  Uiso   1.00
H69    H     0.20372   0.07757   0.07816   0.00000  Uiso   1.00
H70    H     0.14695   0.07523   0.12716   0.00000  Uiso   1.00
O71    O     0.25324   0.14121   0.41680   0.00000  Uiso   1.00
C72    C     0.22737   0.08690   0.41497   0.00000  Uiso   1.00
H73    H     0.19537   0.07049   0.44479   0.00000  Uiso   1.00
H74    H     0.26438   0.06694   0.40961   0.00000  Uiso   1.00
C75    C     0.19646   0.07025   0.37671   0.00000  Uiso   1.00
H76    H     0.19652   0.02916   0.36773   0.00000  Uiso   1.00
H77    H     0.14772   0.07134   0.38541   0.00000  Uiso   1.00
H78    H     0.22038   0.09446   0.34875   0.00000  Uiso   1.00
O79    O     0.22859   0.02267   0.28141   0.00000  Uiso   1.00
C80    C     0.27858   0.00287   0.28536   0.00000  Uiso   1.00
H81    H     0.30571   0.32788   0.25317   0.00000  Uiso   1.00
H82    H     0.26138   0.30253   0.30589   0.00000  Uiso   1.00
C83    C     0.32051   0.04060   0.30950   0.00000  Uiso   1.00
H84    H     0.30079   0.03636   0.34410   0.00000  Uiso   1.00
H85    H     0.03254   0.03050   0.30396   0.00000  Uiso   1.00
H86    H     0.32574   0.08067   0.30022   0.00000  Uiso   1.00
O87    O     0.09426   0.31410   0.23227   0.00000  Uiso   1.00
C88    C     0.10527   0.31367   0.18703   0.00000  Uiso   1.00
H89    H     0.15104   0.30545   0.17205   0.00000  Uiso   1.00
H90    H     0.10210   0.01780   0.17677   0.00000  Uiso   1.00
C91    C     0.05620   0.27219   0.17111   0.00000  Uiso   1.00
H92    H     0.06357   0.27307   0.13554   0.00000  Uiso   1.00
H93    H     0.05880   0.23364   0.18004   0.00000  Uiso   1.00
H94    H     0.00983   0.27891   0.18546   0.00000  Uiso   1.00
O95    O     0.32195   0.18705   0.30338   0.00000  Uiso   1.00
C96    C     0.01550   0.23944   0.31106   0.00000  Uiso   1.00
H97    H     0.01065   0.26558   0.28751   0.00000  Uiso   1.00
H98    H     0.06441   0.24364   0.31091   0.00000  Uiso   1.00
C99    C     0.32346   0.25693   0.35635   0.00000  Uiso   1.00
H100   H     0.31807   0.22560   0.37845   0.00000  Uiso   1.00
H101   H     0.02203   0.29201   0.36623   0.00000  Uiso   1.00
H102   H     0.27914   0.26699   0.35816   0.00000  Uiso   1.00
O103   O     0.31966   0.10768   0.22419   0.00000  Uiso   1.00
C104   C     0.01459   0.09680   0.18201   0.00000  Uiso   1.00
H105   H     0.05914   0.08732   0.18139   0.00000  Uiso   1.00
H106   H     0.02120   0.12976   0.16104   0.00000  Uiso   1.00
C107   C     0.30619   0.05013   0.16483   0.00000  Uiso   1.00
H108   H     0.28877   0.01991   0.18908   0.00000  Uiso   1.00
H109   H     0.26645   0.06144   0.15655   0.00000  Uiso   1.00
H110   H     0.33221   0.03317   0.13619   0.00000  Uiso   1.00
O111   O     0.46148   0.23809   0.24686   0.00000  Uiso   1.00
O112   O     0.53852   0.09524   0.25314   0.00000  Uiso   1.00
O113   O     0.56163   0.24753   0.25503   0.00000  Uiso   1.00
O114   O     0.43837   0.08580   0.24498   0.00000  Uiso   1.00
C115   C     0.51429   0.26667   0.25332   0.00000  Uiso   1.00
C116   C     0.48503   0.06696   0.24878   0.00000  Uiso   1.00
O117   O     0.42185   0.15930   0.30855   0.00000  Uiso   1.00
O118   O     0.57815   0.17403   0.19146   0.00000  Uiso   1.00
O119   O     0.52199   0.16874   0.31671   0.00000  Uiso   1.00
O120   O     0.47801   0.16460   0.18329   0.00000  Uiso   1.00
C121   C     0.46276   0.16332   0.33288   0.00000  Uiso   1.00
C122   C     0.53730   0.17252   0.16734   0.00000  Uiso   1.00
Cu123  Cu    0.44071   0.16108   0.24517   0.00000  Uiso   1.00
Cu124  Cu    0.55929   0.17225   0.25484   0.00000  Uiso   1.00
C125   C     0.44071   0.15322   0.37959   0.00000  Uiso   1.00
C126   C     0.55767   0.17845   0.11995   0.00000  Uiso   1.00
C127   C     0.37429   0.09282   0.43223   0.00000  Uiso   1.00
C128   C     0.63966   0.19394   0.05606   0.00000  Uiso   1.00
C129   C     0.38781   0.11524   0.39222   0.00000  Uiso   1.00
C130   C     0.62007   0.18892   0.10079   0.00000  Uiso   1.00
C131   C     0.47807   0.17228   0.40956   0.00000  Uiso   1.00
C132   C     0.51440   0.17433   0.09359   0.00000  Uiso   1.00
C133   C     0.46421   0.14993   0.45080   0.00000  Uiso   1.00
C134   C     0.53239   0.16731   0.04825   0.00000  Uiso   1.00
C135   C     0.40837   0.11449   0.46373   0.00000  Uiso   1.00
C136   C     0.59608   0.18117   0.02909   0.00000  Uiso   1.00
C137   C     0.50763   0.15733   0.47721   0.00000  Uiso   1.00
C138   C     0.48889   0.14796   0.02137   0.00000  Uiso   1.00
C139   C     0.43048   0.11413   0.03537   0.00000  Uiso   1.00
C140   C     0.56986   0.16108   0.45844   0.00000  Uiso   1.00
C141   C     0.38931   0.09867   0.00663   0.00000  Uiso   1.00
C142   C     0.61426   0.17988   0.48342   0.00000  Uiso   1.00
H143   H     0.65403   0.19410   0.12061   0.00000  Uiso   1.00
H144   H     0.36124   0.09899   0.36886   0.00000  Uiso   1.00
C145   C     0.51982   0.32326   0.25926   0.00000  Uiso   1.00
C146   C     0.47839   0.01107   0.24625   0.00000  Uiso   1.00
N147   N     0.64839   0.18068   0.26212   0.00000  Uiso   1.00
N148   N     0.35161   0.15265   0.23788   0.00000  Uiso   1.00
O149   O     0.66004   0.07903   0.02132   0.00000  Uiso   1.00
C150   C     0.64704   0.03003   0.03908   0.00000  Uiso   1.00
H151   H     0.63668   0.03517   0.07449   0.00000  Uiso   1.00
H152   H     0.35181   0.00977   0.02918   0.00000  Uiso   1.00
C153   C     0.58982   0.32920   0.02571   0.00000  Uiso   1.00
H154   H     0.60096   0.31000   0.49388   0.00000  Uiso   1.00
H155   H     0.56745   0.29884   0.04952   0.00000  Uiso   1.00
H156   H     0.55710   0.01913   0.02277   0.00000  Uiso   1.00
O157   O     0.34139   0.19679   0.46262   0.00000  Uiso   1.00
C158   C     0.35375   0.25113   0.46101   0.00000  Uiso   1.00
H159   H     0.34672   0.26893   0.49378   0.00000  Uiso   1.00
H160   H     0.65673   0.26329   0.44302   0.00000  Uiso   1.00
C161   C     0.42025   0.27227   0.43969   0.00000  Uiso   1.00
H162   H     0.42923   0.25748   0.40582   0.00000  Uiso   1.00
H163   H     0.43058   0.31497   0.43965   0.00000  Uiso   1.00
H164   H     0.45076   0.26120   0.45818   0.00000  Uiso   1.00
O165   O     0.45582   0.17919   0.11275   0.00000  Uiso   1.00
H166   H     0.43811   0.19209   0.09143   0.00000  Uiso   1.00
O167   O     0.52652   0.21347   0.39812   0.00000  Uiso   1.00
H168   H     0.53834   0.23178   0.42445   0.00000  Uiso   1.00
O169   O     0.33619   0.04451   0.43634   0.00000  Uiso   1.00
H170   H     0.35354   0.02415   0.45285   0.00000  Uiso   1.00
O171   O     0.36810   0.20851   0.03852   0.00000  Uiso   1.00
H172   H     0.38798   0.23187   0.05976   0.00000  Uiso   1.00
O173   O     0.41683   0.09077   0.07460   0.00000  Uiso   1.00
C174   C     0.44300   0.04678   0.07029   0.00000  Uiso   1.00
H175   H     0.46092   0.03483   0.03636   0.00000  Uiso   1.00
H176   H     0.40672   0.01337   0.08368   0.00000  Uiso   1.00
C177   C     0.49334   0.05469   0.09615   0.00000  Uiso   1.00
H178   H     0.50125   0.01685   0.10236   0.00000  Uiso   1.00
H179   H     0.53705   0.07757   0.07816   0.00000  Uiso   1.00
H180   H     0.48028   0.07523   0.12716   0.00000  Uiso   1.00
O181   O     0.58657   0.14121   0.41680   0.00000  Uiso   1.00
C182   C     0.56070   0.08690   0.41497   0.00000  Uiso   1.00
H183   H     0.52871   0.07049   0.44479   0.00000  Uiso   1.00
H184   H     0.59771   0.06694   0.40961   0.00000  Uiso   1.00
C185   C     0.52979   0.07025   0.37671   0.00000  Uiso   1.00
H186   H     0.52985   0.02916   0.36773   0.00000  Uiso   1.00
H187   H     0.48106   0.07134   0.38541   0.00000  Uiso   1.00
H188   H     0.55371   0.09446   0.34875   0.00000  Uiso   1.00
O189   O     0.56192   0.02267   0.28141   0.00000  Uiso   1.00
C190   C     0.61191   0.00287   0.28536   0.00000  Uiso   1.00
H191   H     0.63905   0.32788   0.25317   0.00000  Uiso   1.00
H192   H     0.59471   0.30253   0.30589   0.00000  Uiso   1.00
C193   C     0.65385   0.04060   0.30950   0.00000  Uiso   1.00
H194   H     0.63413   0.03636   0.34410   0.00000  Uiso   1.00
H195   H     0.36588   0.03050   0.30396   0.00000  Uiso   1.00
H196   H     0.65907   0.08067   0.30022   0.00000  Uiso   1.00
O197   O     0.42759   0.31410   0.23227   0.00000  Uiso   1.00
C198   C     0.43860   0.31367   0.18703   0.00000  Uiso   1.00
H199   H     0.48437   0.30545   0.17205   0.00000  Uiso   1.00
H200   H     0.43543   0.01780   0.17677   0.00000  Uiso   1.00
C201   C     0.38953   0.27219   0.17111   0.00000  Uiso   1.00
H202   H     0.39691   0.27307   0.13554   0.00000  Uiso   1.00
H203   H     0.39213   0.23364   0.18004   0.00000  Uiso   1.00
H204   H     0.34317   0.27891   0.18546   0.00000  Uiso   1.00
O205   O     0.65529   0.18705   0.30338   0.00000  Uiso   1.00
C206   C     0.34883   0.23944   0.31106   0.00000  Uiso   1.00
H207   H     0.34399   0.26558   0.28751   0.00000  Uiso   1.00
H208   H     0.39774   0.24364   0.31091   0.00000  Uiso   1.00
C209   C     0.65679   0.25693   0.35635   0.00000  Uiso   1.00
H210   H     0.65140   0.22560   0.37845   0.00000  Uiso   1.00
H211   H     0.35537   0.29201   0.36623   0.00000  Uiso   1.00
H212   H     0.61247   0.26699   0.35816   0.00000  Uiso   1.00
O213   O     0.65299   0.10768   0.22419   0.00000  Uiso   1.00
C214   C     0.34792   0.09680   0.18201   0.00000  Uiso   1.00
H215   H     0.39247   0.08732   0.18139   0.00000  Uiso   1.00
H216   H     0.35454   0.12976   0.16104   0.00000  Uiso   1.00
C217   C     0.63952   0.05013   0.16483   0.00000  Uiso   1.00
H218   H     0.62210   0.01991   0.18908   0.00000  Uiso   1.00
H219   H     0.59978   0.06144   0.15655   0.00000  Uiso   1.00
H220   H     0.66555   0.03317   0.13619   0.00000  Uiso   1.00
O221   O     0.79482   0.23809   0.24686   0.00000  Uiso   1.00
O222   O     0.87185   0.09524   0.25314   0.00000  Uiso   1.00
O223   O     0.89496   0.24753   0.25503   0.00000  Uiso   1.00
O224   O     0.77171   0.08580   0.24498   0.00000  Uiso   1.00
C225   C     0.84763   0.26667   0.25332   0.00000  Uiso   1.00
C226   C     0.81836   0.06696   0.24878   0.00000  Uiso   1.00
O227   O     0.75518   0.15930   0.30855   0.00000  Uiso   1.00
O228   O     0.91149   0.17403   0.19146   0.00000  Uiso   1.00
O229   O     0.85532   0.16874   0.31671   0.00000  Uiso   1.00
O230   O     0.81134   0.16460   0.18329   0.00000  Uiso   1.00
C231   C     0.79610   0.16332   0.33288   0.00000  Uiso   1.00
C232   C     0.87063   0.17252   0.16734   0.00000  Uiso   1.00
Cu233  Cu    0.77404   0.16108   0.24517   0.00000  Uiso   1.00
Cu234  Cu    0.89263   0.17225   0.25484   0.00000  Uiso   1.00
C235   C     0.77404   0.15322   0.37959   0.00000  Uiso   1.00
C236   C     0.89100   0.17845   0.11995   0.00000  Uiso   1.00
C237   C     0.70762   0.09282   0.43223   0.00000  Uiso   1.00
C238   C     0.97299   0.19394   0.05606   0.00000  Uiso   1.00
C239   C     0.72114   0.11524   0.39222   0.00000  Uiso   1.00
C240   C     0.95340   0.18892   0.10079   0.00000  Uiso   1.00
C241   C     0.81140   0.17228   0.40956   0.00000  Uiso   1.00
C242   C     0.84774   0.17433   0.09359   0.00000  Uiso   1.00
C243   C     0.79754   0.14993   0.45080   0.00000  Uiso   1.00
C244   C     0.86572   0.16731   0.04825   0.00000  Uiso   1.00
C245   C     0.74171   0.11449   0.46373   0.00000  Uiso   1.00
C246   C     0.92942   0.18117   0.02909   0.00000  Uiso   1.00
C247   C     0.84096   0.15733   0.47721   0.00000  Uiso   1.00
C248   C     0.82222   0.14796   0.02137   0.00000  Uiso   1.00
C249   C     0.76382   0.11413   0.03537   0.00000  Uiso   1.00
C250   C     0.90320   0.16108   0.45844   0.00000  Uiso   1.00
C251   C     0.72265   0.09867   0.00663   0.00000  Uiso   1.00
C252   C     0.94759   0.17988   0.48342   0.00000  Uiso   1.00
H253   H     0.98736   0.19410   0.12061   0.00000  Uiso   1.00
H254   H     0.69457   0.09899   0.36886   0.00000  Uiso   1.00
C255   C     0.85315   0.32326   0.25926   0.00000  Uiso   1.00
C256   C     0.81172   0.01107   0.24625   0.00000  Uiso   1.00
N257   N     0.98173   0.18068   0.26212   0.00000  Uiso   1.00
N258   N     0.68494   0.15265   0.23788   0.00000  Uiso   1.00
O259   O     0.99337   0.07903   0.02132   0.00000  Uiso   1.00
C260   C     0.98037   0.03003   0.03908   0.00000  Uiso   1.00
H261   H     0.97002   0.03517   0.07449   0.00000  Uiso   1.00
H262   H     0.68515   0.00977   0.02918   0.00000  Uiso   1.00
C263   C     0.92315   0.32920   0.02571   0.00000  Uiso   1.00
H264   H     0.93430   0.31000   0.49388   0.00000  Uiso   1.00
H265   H     0.90078   0.29884   0.04952   0.00000  Uiso   1.00
H266   H     0.89043   0.01913   0.02277   0.00000  Uiso   1.00
O267   O     0.67472   0.19679   0.46262   0.00000  Uiso   1.00
C268   C     0.68708   0.25113   0.46101   0.00000  Uiso   1.00
H269   H     0.68006   0.26893   0.49378   0.00000  Uiso   1.00
H270   H     0.99006   0.26329   0.44302   0.00000  Uiso   1.00
C271   C     0.75358   0.27227   0.43969   0.00000  Uiso   1.00
H272   H     0.76257   0.25748   0.40582   0.00000  Uiso   1.00
H273   H     0.76391   0.31497   0.43965   0.00000  Uiso   1.00
H274   H     0.78409   0.26120   0.45818   0.00000  Uiso   1.00
O275   O     0.78915   0.17919   0.11275   0.00000  Uiso   1.00
H276   H     0.77144   0.19209   0.09143   0.00000  Uiso   1.00
O277   O     0.85985   0.21347   0.39812   0.00000  Uiso   1.00
H278   H     0.87167   0.23178   0.42445   0.00000  Uiso   1.00
O279   O     0.66952   0.04451   0.43634   0.00000  Uiso   1.00
H280   H     0.68688   0.02415   0.45285   0.00000  Uiso   1.00
O281   O     0.70143   0.20851   0.03852   0.00000  Uiso   1.00
H282   H     0.72131   0.23187   0.05976   0.00000  Uiso   1.00
O283   O     0.75016   0.09077   0.07460   0.00000  Uiso   1.00
C284   C     0.77633   0.04678   0.07029   0.00000  Uiso   1.00
H285   H     0.79426   0.03483   0.03636   0.00000  Uiso   1.00
H286   H     0.74006   0.01337   0.08368   0.00000  Uiso   1.00
C287   C     0.82668   0.05469   0.09615   0.00000  Uiso   1.00
H288   H     0.83459   0.01685   0.10236   0.00000  Uiso   1.00
H289   H     0.87038   0.07757   0.07816   0.00000  Uiso   1.00
H290   H     0.81361   0.07523   0.12716   0.00000  Uiso   1.00
O291   O     0.91990   0.14121   0.41680   0.00000  Uiso   1.00
C292   C     0.89404   0.08690   0.41497   0.00000  Uiso   1.00
H293   H     0.86204   0.07049   0.44479   0.00000  Uiso   1.00
H294   H     0.93105   0.06694   0.40961   0.00000  Uiso   1.00
C295   C     0.86312   0.07025   0.37671   0.00000  Uiso   1.00
H296   H     0.86318   0.02916   0.36773   0.00000  Uiso   1.00
H297   H     0.81439   0.07134   0.38541   0.00000  Uiso   1.00
H298   H     0.88705   0.09446   0.34875   0.00000  Uiso   1.00
O299   O     0.89525   0.02267   0.28141   0.00000  Uiso   1.00
C300   C     0.94525   0.00287   0.28536   0.00000  Uiso   1.00
H301   H     0.97238   0.32788   0.25317   0.00000  Uiso   1.00
H302   H     0.92805   0.30253   0.30589   0.00000  Uiso   1.00
C303   C     0.98718   0.04060   0.30950   0.00000  Uiso   1.00
H304   H     0.96746   0.03636   0.34410   0.00000  Uiso   1.00
H305   H     0.69921   0.03050   0.30396   0.00000  Uiso   1.00
H306   H     0.99241   0.08067   0.30022   0.00000  Uiso   1.00
O307   O     0.76093   0.31410   0.23227   0.00000  Uiso   1.00
C308   C     0.77193   0.31367   0.18703   0.00000  Uiso   1.00
H309   H     0.81770   0.30545   0.17205   0.00000  Uiso   1.00
H310   H     0.76876   0.01780   0.17677   0.00000  Uiso   1.00
C311   C     0.72286   0.27219   0.17111   0.00000  Uiso   1.00
H312   H     0.73024   0.27307   0.13554   0.00000  Uiso   1.00
H313   H     0.72547   0.23364   0.18004   0.00000  Uiso   1.00
H314   H     0.67650   0.27891   0.18546   0.00000  Uiso   1.00
O315   O     0.98862   0.18705   0.30338   0.00000  Uiso   1.00
C316   C     0.68216   0.23944   0.31106   0.00000  Uiso   1.00
H317   H     0.67732   0.26558   0.28751   0.00000  Uiso   1.00
H318   H     0.73108   0.24364   0.31091   0.00000  Uiso   1.00
C319   C     0.99012   0.25693   0.35635   0.00000  Uiso   1.00
H320   H     0.98473   0.22560   0.37845   0.00000  Uiso   1.00
H321   H     0.68870   0.29201   0.36623   0.00000  Uiso   1.00
H322   H     0.94580   0.26699   0.35816   0.00000  Uiso   1.00
O323   O     0.98633   0.10768   0.22419   0.00000  Uiso   1.00
C324   C     0.68126   0.09680   0.18201   0.00000  Uiso   1.00
H325   H     0.72580   0.08732   0.18139   0.00000  Uiso   1.00
H326   H     0.68787   0.12976   0.16104   0.00000  Uiso   1.00
C327   C     0.97285   0.05013   0.16483   0.00000  Uiso   1.00
H328   H     0.95543   0.01991   0.18908   0.00000  Uiso   1.00
H329   H     0.93311   0.06144   0.15655   0.00000  Uiso   1.00
H330   H     0.99888   0.03317   0.13619   0.00000  Uiso   1.00
O331   O     0.12815   0.57142   0.24686   0.00000  Uiso   1.00
O332   O     0.20518   0.42858   0.25314   0.00000  Uiso   1.00
O333   O     0.22829   0.58086   0.25503   0.00000  Uiso   1.00
O334   O     0.10504   0.41914   0.24498   0.00000  Uiso   1.00
C335   C     0.18096   0.60000   0.25332   0.00000  Uiso   1.00
C336   C     0.15170   0.40030   0.24878   0.00000  Uiso   1.00
O337   O     0.08851   0.49263   0.30855   0.00000  Uiso   1.00
O338   O     0.24482   0.50737   0.19146   0.00000  Uiso   1.00
O339   O     0.18866   0.50207   0.31671   0.00000  Uiso   1.00
O340   O     0.14468   0.49793   0.18329   0.00000  Uiso   1.00
C341   C     0.12943   0.49666   0.33288   0.00000  Uiso   1.00
C342   C     0.20397   0.50585   0.16734   0.00000  Uiso   1.00
Cu343  Cu    0.10737   0.49441   0.24517   0.00000  Uiso   1.00
Cu344  Cu    0.22596   0.50559   0.25484   0.00000  Uiso   1.00
C345   C     0.10737   0.48656   0.37959   0.00000  Uiso   1.00
C346   C     0.22434   0.51178   0.11995   0.00000  Uiso   1.00
C347   C     0.04095   0.42615   0.43223   0.00000  Uiso   1.00
C348   C     0.30632   0.52728   0.05606   0.00000  Uiso   1.00
C349   C     0.05448   0.44858   0.39222   0.00000  Uiso   1.00
C350   C     0.28673   0.52226   0.10079   0.00000  Uiso   1.00
C351   C     0.14474   0.50561   0.40956   0.00000  Uiso   1.00
C352   C     0.18107   0.50766   0.09359   0.00000  Uiso   1.00
C353   C     0.13087   0.48326   0.45080   0.00000  Uiso   1.00
C354   C     0.19905   0.50064   0.04825   0.00000  Uiso   1.00
C355   C     0.07504   0.44782   0.46373   0.00000  Uiso   1.00
C356   C     0.26275   0.51451   0.02909   0.00000  Uiso   1.00
C357   C     0.17429   0.49066   0.47721   0.00000  Uiso   1.00
C358   C     0.15556   0.48130   0.02137   0.00000  Uiso   1.00
C359   C     0.09715   0.44746   0.03537   0.00000  Uiso   1.00
C360   C     0.23653   0.49442   0.45844   0.00000  Uiso   1.00
C361   C     0.05598   0.43200   0.00663   0.00000  Uiso   1.00
C362   C     0.28092   0.51322   0.48342   0.00000  Uiso   1.00
H363   H     0.32069   0.52743   0.12061   0.00000  Uiso   1.00
H364   H     0.02790   0.43233   0.36886   0.00000  Uiso   1.00
C365   C     0.18649   0.65659   0.25926   0.00000  Uiso   1.00
C366   C     0.14506   0.34440   0.24625   0.00000  Uiso   1.00
N367   N     0.31506   0.51401   0.26212   0.00000  Uiso   1.00
N368   N     0.01827   0.48599   0.23788   0.00000  Uiso   1.00
O369   O     0.32671   0.41236   0.02132   0.00000  Uiso   1.00
C370   C     0.31371   0.36336   0.03908   0.00000  Uiso   1.00
H371   H     0.30335   0.36850   0.07449   0.00000  Uiso   1.00
H372   H     0.01848   0.34311   0.02918   0.00000  Uiso   1.00
C373   C     0.25649   0.66253   0.02571   0.00000  Uiso   1.00
H374   H     0.26763   0.64334   0.49388   0.00000  Uiso   1.00
H375   H     0.23411   0.63217   0.04952   0.00000  Uiso   1.00
H376   H     0.22377   0.35246   0.02277   0.00000  Uiso   1.00
O377   O     0.00805   0.53013   0.46262   0.00000  Uiso   1.00
C378   C     0.02042   0.58446   0.46101   0.00000  Uiso   1.00
H379   H     0.01339   0.60226   0.49378   0.00000  Uiso   1.00
H380   H     0.32339   0.59662   0.44302   0.00000  Uiso   1.00
C381   C     0.08691   0.60561   0.43969   0.00000  Uiso   1.00
H382   H     0.09590   0.59081   0.40582   0.00000  Uiso   1.00
H383   H     0.09725   0.64830   0.43965   0.00000  Uiso   1.00
H384   H     0.11743   0.59454   0.45818   0.00000  Uiso   1.00
O385   O     0.12249   0.51252   0.11275   0.00000  Uiso   1.00
H386   H     0.10478   0.52543   0.09143   0.00000  Uiso   1.00
O387   O     0.19319   0.54681   0.39812   0.00000  Uiso   1.00
H388   H     0.20500   0.56511   0.42445   0.00000  Uiso   1.00
O389   O     0.00285   0.37785   0.43634   0.00000  Uiso   1.00
H390   H     0.02021   0.35748   0.45285   0.00000  Uiso   1.00
O391   O     0.03477   0.54185   0.03852   0.00000  Uiso   1.00
H392   H     0.05465   0.56520   0.05976   0.00000  Uiso   1.00
O393   O     0.08349   0.42410   0.07460   0.00000  Uiso   1.00
C394   C     0.10966   0.38011   0.07029   0.00000  Uiso   1.00
H395   H     0.12759   0.36817   0.03636   0.00000  Uiso   1.00
H396   H     0.07339   0.34670   0.08368   0.00000  Uiso   1.00
C397   C     0.16001   0.38803   0.09615   0.00000  Uiso   1.00
H398   H     0.16792   0.35018   0.10236   0.00000  Uiso   1.00
H399   H     0.20372   0.41091   0.07816   0.00000  Uiso   1.00
H400   H     0.14695   0.40857   0.12716   0.00000  Uiso   1.00
O401   O     0.25324   0.47454   0.41680   0.00000  Uiso   1.00
C402   C     0.22737   0.42024   0.41497   0.00000  Uiso   1.00
H403   H     0.19537   0.40382   0.44479   0.00000  Uiso   1.00
H404   H     0.26438   0.40028   0.40961   0.00000  Uiso   1.00
C405   C     0.19646   0.40358   0.37671   0.00000  Uiso   1.00
H406   H     0.19652   0.36249   0.36773   0.00000  Uiso   1.00
H407   H     0.14772   0.40467   0.38541   0.00000  Uiso   1.00
H408   H     0.22038   0.42779   0.34875   0.00000  Uiso   1.00
O409   O     0.22859   0.35600   0.28141   0.00000  Uiso   1.00
C410   C     0.27858   0.33621   0.28536   0.00000  Uiso   1.00
H411   H     0.30571   0.66122   0.25317   0.00000  Uiso   1.00
H412   H     0.26138   0.63586   0.30589   0.00000  Uiso   1.00
C413   C     0.32051   0.37393   0.30950   0.00000  Uiso   1.00
H414   H     0.30079   0.36969   0.34410   0.00000  Uiso   1.00
H415   H     0.03254   0.36383   0.30396   0.00000  Uiso   1.00
H416   H     0.32574   0.41400   0.30022   0.00000  Uiso   1.00
O417   O     0.09426   0.64743   0.23227   0.00000  Uiso   1.00
C418   C     0.10527   0.64700   0.18703   0.00000  Uiso   1.00
H419   H     0.15104   0.63879   0.17205   0.00000  Uiso   1.00
H420   H     0.10210   0.35114   0.17677   0.00000  Uiso   1.00
C421   C     0.05620   0.60552   0.17111   0.00000  Uiso   1.00
H422   H     0.06357   0.60641   0.13554   0.00000  Uiso   1.00
H423   H     0.05880   0.56697   0.18004   0.00000  Uiso   1.00
H424   H     0.00983   0.61224   0.18546   0.00000  Uiso   1.00
O425   O     0.32195   0.52038   0.30338   0.00000  Uiso   1.00
C426   C     0.01550   0.57277   0.31106   0.00000  Uiso   1.00
H427   H     0.01065   0.59891   0.28751   0.00000  Uiso   1.00
H428   H     0.06441   0.57698   0.31091   0.00000  Uiso   1.00
C429   C     0.32346   0.59026   0.35635   0.00000  Uiso   1.00
H430   H     0.31807   0.55893   0.37845   0.00000  Uiso   1.00
H431   H     0.02203   0.62535   0.36623   0.00000  Uiso   1.00
H432   H     0.27914   0.60033   0.35816   0.00000  Uiso   1.00
O433   O     0.31966   0.44101   0.22419   0.00000  Uiso   1.00
C434   C     0.01459   0.43013   0.18201   0.00000  Uiso   1.00
H435   H     0.05914   0.42065   0.18139   0.00000  Uiso   1.00
H436   H     0.02120   0.46310   0.16104   0.00000  Uiso   1.00
C437   C     0.30619   0.38346   0.16483   0.00000  Uiso   1.00
H438   H     0.28877   0.35324   0.18908   0.00000  Uiso   1.00
H439   H     0.26645   0.39477   0.15655   0.00000  Uiso   1.00
H440   H     0.33221   0.36650   0.13619   0.00000  Uiso   1.00
O441   O     0.46148   0.57142   0.24686   0.00000  Uiso   1.00
O442   O     0.53852   0.42858   0.25314   0.00000  Uiso   1.00
O443   O     0.56163   0.58086   0.25503   0.00000  Uiso   1.00
O444   O     0.43837   0.41914   0.24498   0.00000  Uiso   1.00
C445   C     0.51429   0.60000   0.25332   0.00000  Uiso   1.00
C446   C     0.48503   0.40030   0.24878   0.00000  Uiso   1.00
O447   O     0.42185   0.49263   0.30855   0.00000  Uiso   1.00
O448   O     0.57815   0.50737   0.19146   0.00000  Uiso   1.00
O449   O     0.52199   0.50207   0.31671   0.00000  Uiso   1.00
O450   O     0.47801   0.49793   0.18329   0.00000  Uiso   1.00
C451   C     0.46276   0.49666   0.33288   0.00000  Uiso   1.00
C452   C     0.53730   0.50585   0.16734   0.00000  Uiso   1.00
Cu453  Cu    0.44071   0.49441   0.24517   0.00000  Uiso   1.00
Cu454  Cu    0.55929   0.50559   0.25484   0.00000  Uiso   1.00
C455   C     0.44071   0.48656   0.37959   0.00000  Uiso   1.00
C456   C     0.55767   0.51178   0.11995   0.00000  Uiso   1.00
C457   C     0.37429   0.42615   0.43223   0.00000  Uiso   1.00
C458   C     0.63966   0.52728   0.05606   0.00000  Uiso   1.00
C459   C     0.38781   0.44858   0.39222   0.00000  Uiso   1.00
C460   C     0.62007   0.52226   0.10079   0.00000  Uiso   1.00
C461   C     0.47807   0.50561   0.40956   0.00000  Uiso   1.00
C462   C     0.51440   0.50766   0.09359   0.00000  Uiso   1.00
C463   C     0.46421   0.48326   0.45080   0.00000  Uiso   1.00
C464   C     0.53239   0.50064   0.04825   0.00000  Uiso   1.00
C465   C     0.40837   0.44782   0.46373   0.00000  Uiso   1.00
C466   C     0.59608   0.51451   0.02909   0.00000  Uiso   1.00
C467   C     0.50763   0.49066   0.47721   0.00000  Uiso   1.00
C468   C     0.48889   0.48130   0.02137   0.00000  Uiso   1.00
C469   C     0.43048   0.44746   0.03537   0.00000  Uiso   1.00
C470   C     0.56986   0.49442   0.45844   0.00000  Uiso   1.00
C471   C     0.38931   0.43200   0.00663   0.00000  Uiso   1.00
C472   C     0.61426   0.51322   0.48342   0.00000  Uiso   1.00
H473   H     0.65403   0.52743   0.12061   0.00000  Uiso   1.00
H474   H     0.36124   0.43233   0.36886   0.00000  Uiso   1.00
C475   C     0.51982   0.65659   0.25926   0.00000  Uiso   1.00
C476   C     0.47839   0.34440   0.24625   0.00000  Uiso   1.00
N477   N     0.64839   0.51401   0.26212   0.00000  Uiso   1.00
N478   N     0.35161   0.48599   0.23788   0.00000  Uiso   1.00
O479   O     0.66004   0.41236   0.02132   0.00000  Uiso   1.00
C480   C     0.64704   0.36336   0.03908   0.00000  Uiso   1.00
H481   H     0.63668   0.36850   0.07449   0.00000  Uiso   1.00
H482   H     0.35181   0.34311   0.02918   0.00000  Uiso   1.00
C483   C     0.58982   0.66253   0.02571   0.00000  Uiso   1.00
H484   H     0.60096   0.64334   0.49388   0.00000  Uiso   1.00
H485   H     0.56745   0.63217   0.04952   0.00000  Uiso   1.00
H486   H     0.55710   0.35246   0.02277   0.00000  Uiso   1.00
O487   O     0.34139   0.53013   0.46262   0.00000  Uiso   1.00
C488   C     0.35375   0.58446   0.46101   0.00000  Uiso   1.00
H489   H     0.34672   0.60226   0.49378   0.00000  Uiso   1.00
H490   H     0.65673   0.59662   0.44302   0.00000  Uiso   1.00
C491   C     0.42025   0.60561   0.43969   0.00000  Uiso   1.00
H492   H     0.42923   0.59081   0.40582   0.00000  Uiso   1.00
H493   H     0.43058   0.64830   0.43965   0.00000  Uiso   1.00
H494   H     0.45076   0.59454   0.45818   0.00000  Uiso   1.00
O495   O     0.45582   0.51252   0.11275   0.00000  Uiso   1.00
H496   H     0.43811   0.52543   0.09143   0.00000  Uiso   1.00
O497   O     0.52652   0.54681   0.39812   0.00000  Uiso   1.00
H498   H     0.53834   0.56511   0.42445   0.00000  Uiso   1.00
O499   O     0.33619   0.37785   0.43634   0.00000  Uiso   1.00
H500   H     0.35354   0.35748   0.45285   0.00000  Uiso   1.00
O501   O     0.36810   0.54185   0.03852   0.00000  Uiso   1.00
H502   H     0.38798   0.56520   0.05976   0.00000  Uiso   1.00
O503   O     0.41683   0.42410   0.07460   0.00000  Uiso   1.00
C504   C     0.44300   0.38011   0.07029   0.00000  Uiso   1.00
H505   H     0.46092   0.36817   0.03636   0.00000  Uiso   1.00
H506   H     0.40672   0.34670   0.08368   0.00000  Uiso   1.00
C507   C     0.49334   0.38803   0.09615   0.00000  Uiso   1.00
H508   H     0.50125   0.35018   0.10236   0.00000  Uiso   1.00
H509   H     0.53705   0.41091   0.07816   0.00000  Uiso   1.00
H510   H     0.48028   0.40857   0.12716   0.00000  Uiso   1.00
O511   O     0.58657   0.47454   0.41680   0.00000  Uiso   1.00
C512   C     0.56070   0.42024   0.41497   0.00000  Uiso   1.00
H513   H     0.52871   0.40382   0.44479   0.00000  Uiso   1.00
H514   H     0.59771   0.40028   0.40961   0.00000  Uiso   1.00
C515   C     0.52979   0.40358   0.37671   0.00000  Uiso   1.00
H516   H     0.52985   0.36249   0.36773   0.00000  Uiso   1.00
H517   H     0.48106   0.40467   0.38541   0.00000  Uiso   1.00
H518   H     0.55371   0.42779   0.34875   0.00000  Uiso   1.00
O519   O     0.56192   0.35600   0.28141   0.00000  Uiso   1.00
C520   C     0.61191   0.33621   0.28536   0.00000  Uiso   1.00
H521   H     0.63905   0.66122   0.25317   0.00000  Uiso   1.00
H522   H     0.59471   0.63586   0.30589   0.00000  Uiso   1.00
C523   C     0.65385   0.37393   0.30950   0.00000  Uiso   1.00
H524   H     0.63413   0.36969   0.34410   0.00000  Uiso   1.00
H525   H     0.36588   0.36383   0.30396   0.00000  Uiso   1.00
H526   H     0.65907   0.41400   0.30022   0.00000  Uiso   1.00
O527   O     0.42759   0.64743   0.23227   0.00000  Uiso   1.00
C528   C     0.43860   0.64700   0.18703   0.00000  Uiso   1.00
H529   H     0.48437   0.63879   0.17205   0.00000  Uiso   1.00
H530   H     0.43543   0.35114   0.17677   0.00000  Uiso   1.00
C531   C     0.38953   0.60552   0.17111   0.00000  Uiso   1.00
H532   H     0.39691   0.60641   0.13554   0.00000  Uiso   1.00
H533   H     0.39213   0.56697   0.18004   0.00000  Uiso   1.00
H534   H     0.34317   0.61224   0.18546   0.00000  Uiso   1.00
O535   O     0.65529   0.52038   0.30338   0.00000  Uiso   1.00
C536   C     0.34883   0.57277   0.31106   0.00000  Uiso   1.00
H537   H     0.34399   0.59891   0.28751   0.00000  Uiso   1.00
H538   H     0.39774   0.57698   0.31091   0.00000  Uiso   1.00
C539   C     0.65679   0.59026   0.35635   0.00000  Uiso   1.00
H540   H     0.65140   0.55893   0.37845   0.00000  Uiso   1.00
H541   H     0.35537   0.62535   0.36623   0.00000  Uiso   1.00
H542   H     0.61247   0.60033   0.35816   0.00000  Uiso   1.00
O543   O     0.65299   0.44101   0.22419   0.00000  Uiso   1.00
C544   C     0.34792   0.43013   0.18201   0.00000  Uiso   1.00
H545   H     0.39247   0.42065   0.18139   0.00000  Uiso   1.00
H546   H     0.35454   0.46310   0.16104   0.00000  Uiso   1.00
C547   C     0.63952   0.38346   0.16483   0.00000  Uiso   1.00
H548   H     0.62210   0.35324   0.18908   0.00000  Uiso   1.00
H549   H     0.59978   0.39477   0.15655   0.00000  Uiso   1.00
H550   H     0.66555   0.36650   0.13619   0.00000  Uiso   1.00
O551   O     0.79482   0.57142   0.24686   0.00000  Uiso   1.00
O552   O     0.87185   0.42858   0.25314   0.00000  Uiso   1.00
O553   O     0.89496   0.58086   0.25503   0.00000  Uiso   1.00
O554   O     0.77171   0.41914   0.24498   0.00000  Uiso   1.00
C555   C     0.84763   0.60000   0.25332   0.00000  Uiso   1.00
C556   C     0.81836   0.40030   0.24878   0.00000  Uiso   1.00
O557   O     0.75518   0.49263   0.30855   0.00000  Uiso   1.00
O558   O     0.91149   0.50737   0.19146   0.00000  Uiso   1.00
O559   O     0.85532   0.50207   0.31671   0.00000  Uiso   1.00
O560   O     0.81134   0.49793   0.18329   0.00000  Uiso   1.00
C561   C     0.79610   0.49666   0.33288   0.00000  Uiso   1.00
C562   C     0.87063   0.50585   0.16734   0.00000  Uiso   1.00
Cu563  Cu    0.77404   0.49441   0.24517   0.00000  Uiso   1.00
Cu564  Cu    0.89263   0.50559   0.25484   0.00000  Uiso   1.00
C565   C     0.77404   0.48656   0.37959   0.00000  Uiso   1.00
C566   C     0.89100   0.51178   0.11995   0.00000  Uiso   1.00
C567   C     0.70762   0.42615   0.43223   0.00000  Uiso   1.00
C568   C     0.97299   0.52728   0.05606   0.00000  Uiso   1.00
C569   C     0.72114   0.44858   0.39222   0.00000  Uiso   1.00
C570   C     0.95340   0.52226   0.10079   0.00000  Uiso   1.00
C571   C     0.81140   0.50561   0.40956   0.00000  Uiso   1.00
C572   C     0.84774   0.50766   0.09359   0.00000  Uiso   1.00
C573   C     0.79754   0.48326   0.45080   0.00000  Uiso   1.00
C574   C     0.86572   0.50064   0.04825   0.00000  Uiso   1.00
C575   C     0.74171   0.44782   0.46373   0.00000  Uiso   1.00
C576   C     0.92942   0.51451   0.02909   0.00000  Uiso   1.00
C577   C     0.84096   0.49066   0.47721   0.00000  Uiso   1.00
C578   C     0.82222   0.48130   0.02137   0.00000  Uiso   1.00
C579   C     0.76382   0.44746   0.03537   0.00000  Uiso   1.00
C580   C     0.90320   0.49442   0.45844   0.00000  Uiso   1.00
C581   C     0.72265   0.43200   0.00663   0.00000  Uiso   1.00
C582   C     0.94759   0.51322   0.48342   0.00000  Uiso   1.00
H583   H     0.98736   0.52743   0.12061   0.00000  Uiso   1.00
H584   H     0.69457   0.43233   0.36886   0.00000  Uiso   1.00
C585   C     0.85315   0.65659   0.25926   0.00000  Uiso   1.00
C586   C     0.81172   0.34440   0.24625   0.00000  Uiso   1.00
N587   N     0.98173   0.51401   0.26212   0.00000  Uiso   1.00
N588   N     0.68494   0.48599   0.23788   0.00000  Uiso   1.00
O589   O     0.99337   0.41236   0.02132   0.00000  Uiso   1.00
C590   C     0.98037   0.36336   0.03908   0.00000  Uiso   1.00
H591   H     0.97002   0.36850   0.07449   0.00000  Uiso   1.00
H592   H     0.68515   0.34311   0.02918   0.00000  Uiso   1.00
C593   C     0.92315   0.66253   0.02571   0.00000  Uiso   1.00
H594   H     0.93430   0.64334   0.49388   0.00000  Uiso   1.00
H595   H     0.90078   0.63217   0.04952   0.00000  Uiso   1.00
H596   H     0.89043   0.35246   0.02277   0.00000  Uiso   1.00
O597   O     0.67472   0.53013   0.46262   0.00000  Uiso   1.00
C598   C     0.68708   0.58446   0.46101   0.00000  Uiso   1.00
H599   H     0.68006   0.60226   0.49378   0.00000  Uiso   1.00
H600   H     0.99006   0.59662   0.44302   0.00000  Uiso   1.00
C601   C     0.75358   0.60561   0.43969   0.00000  Uiso   1.00
H602   H     0.76257   0.59081   0.40582   0.00000  Uiso   1.00
H603   H     0.76391   0.64830   0.43965   0.00000  Uiso   1.00
H604   H     0.78409   0.59454   0.45818   0.00000  Uiso   1.00
O605   O     0.78915   0.51252   0.11275   0.00000  Uiso   1.00
H606   H     0.77144   0.52543   0.09143   0.00000  Uiso   1.00
O607   O     0.85985   0.54681   0.39812   0.00000  Uiso   1.00
H608   H     0.87167   0.56511   0.42445   0.00000  Uiso   1.00
O609   O     0.66952   0.37785   0.43634   0.00000  Uiso   1.00
H610   H     0.68688   0.35748   0.45285   0.00000  Uiso   1.00
O611   O     0.70143   0.54185   0.03852   0.00000  Uiso   1.00
H612   H     0.72131   0.56520   0.05976   0.00000  Uiso   1.00
O613   O     0.75016   0.42410   0.07460   0.00000  Uiso   1.00
C614   C     0.77633   0.38011   0.07029   0.00000  Uiso   1.00
H615   H     0.79426   0.36817   0.03636   0.00000  Uiso   1.00
H616   H     0.74006   0.34670   0.08368   0.00000  Uiso   1.00
C617   C     0.82668   0.38803   0.09615   0.00000  Uiso   1.00
H618   H     0.83459   0.35018   0.10236   0.00000  Uiso   1.00
H619   H     0.87038   0.41091   0.07816   0.00000  Uiso   1.00
H620   H     0.81361   0.40857   0.12716   0.00000  Uiso   1.00
O621   O     0.91990   0.47454   0.41680   0.00000  Uiso   1.00
C622   C     0.89404   0.42024   0.41497   0.00000  Uiso   1.00
H623   H     0.86204   0.40382   0.44479   0.00000  Uiso   1.00
H624   H     0.93105   0.40028   0.40961   0.00000  Uiso   1.00
C625   C     0.86312   0.40358   0.37671   0.00000  Uiso   1.00
H626   H     0.86318   0.36249   0.36773   0.00000  Uiso   1.00
H627   H     0.81439   0.40467   0.38541   0.00000  Uiso   1.00
H628   H     0.88705   0.42779   0.34875   0.00000  Uiso   1.00
O629   O     0.89525   0.35600   0.28141   0.00000  Uiso   1.00
C630   C     0.94525   0.33621   0.28536   0.00000  Uiso   1.00
H631   H     0.97238   0.66122   0.25317   0.00000  Uiso   1.00
H632   H     0.92805   0.63586   0.30589   0.00000  Uiso   1.00
C633   C     0.98718   0.37393   0.30950   0.00000  Uiso   1.00
H634   H     0.96746   0.36969   0.34410   0.00000  Uiso   1.00
H635   H     0.69921   0.36383   0.30396   0.00000  Uiso   1.00
H636   H     0.99241   0.41400   0.30022   0.00000  Uiso   1.00
O637   O     0.76093   0.64743   0.23227   0.00000  Uiso   1.00
C638   C     0.77193   0.64700   0.18703   0.00000  Uiso   1.00
H639   H     0.81770   0.63879   0.17205   0.00000  Uiso   1.00
H640   H     0.76876   0.35114   0.17677   0.00000  Uiso   1.00
C641   C     0.72286   0.60552   0.17111   0.00000  Uiso   1.00
H642   H     0.73024   0.60641   0.13554   0.00000  Uiso   1.00
H643   H     0.72547   0.56697   0.18004   0.00000  Uiso   1.00
H644   H     0.67650   0.61224   0.18546   0.00000  Uiso   1.00
O645   O     0.98862   0.52038   0.30338   0.00000  Uiso   1.00
C646   C     0.68216   0.57277   0.31106   0.00000  Uiso   1.00
H647   H     0.67732   0.59891   0.28751   0.00000  Uiso   1.00
H648   H     0.73108   0.57698   0.31091   0.00000  Uiso   1.00
C649   C     0.99012   0.59026   0.35635   0.00000  Uiso   1.00
H650   H     0.98473   0.55893   0.37845   0.00000  Uiso   1.00
H651   H     0.68870   0.62535   0.36623   0.00000  Uiso   1.00
H652   H     0.94580   0.60033   0.35816   0.00000  Uiso   1.00
O653   O     0.98633   0.44101   0.22419   0.00000  Uiso   1.00
C654   C     0.68126   0.43013   0.18201   0.00000  Uiso   1.00
H655   H     0.72580   0.42065   0.18139   0.00000  Uiso   1.00
H656   H     0.68787   0.46310   0.16104   0.00000  Uiso   1.00
C657   C     0.97285   0.38346   0.16483   0.00000  Uiso   1.00
H658   H     0.95543   0.35324   0.18908   0.00000  Uiso   1.00
H659   H     0.93311   0.39477   0.15655   0.00000  Uiso   1.00
H660   H     0.99888   0.36650   0.13619   0.00000  Uiso   1.00
O661   O     0.12815   0.90476   0.24686   0.00000  Uiso   1.00
O662   O     0.20518   0.76191   0.25314   0.00000  Uiso   1.00
O663   O     0.22829   0.91420   0.25503   0.00000  Uiso   1.00
O664   O     0.10504   0.75247   0.24498   0.00000  Uiso   1.00
C665   C     0.18096   0.93333   0.25332   0.00000  Uiso   1.00
C666   C     0.15170   0.73363   0.24878   0.00000  Uiso   1.00
O667   O     0.08851   0.82597   0.30855   0.00000  Uiso   1.00
O668   O     0.24482   0.84070   0.19146   0.00000  Uiso   1.00
O669   O     0.18866   0.83540   0.31671   0.00000  Uiso   1.00
O670   O     0.14468   0.83126   0.18329   0.00000  Uiso   1.00
C671   C     0.12943   0.82999   0.33288   0.00000  Uiso   1.00
C672   C     0.20397   0.83919   0.16734   0.00000  Uiso   1.00
Cu673  Cu    0.10737   0.82775   0.24517   0.00000  Uiso   1.00
Cu674  Cu    0.22596   0.83892   0.25484   0.00000  Uiso   1.00
C675   C     0.10737   0.81989   0.37959   0.00000  Uiso   1.00
C676   C     0.22434   0.84511   0.11995   0.00000  Uiso   1.00
C677   C     0.04095   0.75949   0.43223   0.00000  Uiso   1.00
C678   C     0.30632   0.86061   0.05606   0.00000  Uiso   1.00
C679   C     0.05448   0.78191   0.39222   0.00000  Uiso   1.00
C680   C     0.28673   0.85559   0.10079   0.00000  Uiso   1.00
C681   C     0.14474   0.83894   0.40956   0.00000  Uiso   1.00
C682   C     0.18107   0.84100   0.09359   0.00000  Uiso   1.00
C683   C     0.13087   0.81660   0.45080   0.00000  Uiso   1.00
C684   C     0.19905   0.83398   0.04825   0.00000  Uiso   1.00
C685   C     0.07504   0.78115   0.46373   0.00000  Uiso   1.00
C686   C     0.26275   0.84784   0.02909   0.00000  Uiso   1.00
C687   C     0.17429   0.82400   0.47721   0.00000  Uiso   1.00
C688   C     0.15556   0.81463   0.02137   0.00000  Uiso   1.00
C689   C     0.09715   0.78080   0.03537   0.00000  Uiso   1.00
C690   C     0.23653   0.82775   0.45844   0.00000  Uiso   1.00
C691   C     0.05598   0.76534   0.00663   0.00000  Uiso   1.00
C692   C     0.28092   0.84655   0.48342   0.00000  Uiso   1.00
H693   H     0.32069   0.86077   0.12061   0.00000  Uiso   1.00
H694   H     0.02790   0.76566   0.36886   0.00000  Uiso   1.00
C695   C     0.18649   0.98993   0.25926   0.00000  Uiso   1.00
C696   C     0.14506   0.67773   0.24625   0.00000  Uiso   1.00
N697   N     0.31506   0.84735   0.26212   0.00000  Uiso   1.00
N698   N     0.01827   0.81932   0.23788   0.00000  Uiso   1.00
O699   O     0.32671   0.74570   0.02132   0.00000  Uiso   1.00
C700   C     0.31371   0.69669   0.03908   0.00000  Uiso   1.00
H701   H     0.30335   0.70183   0.07449   0.00000  Uiso   1.00
H702   H     0.01848   0.67644   0.02918   0.00000  Uiso   1.00
C703   C     0.25649   0.99587   0.02571   0.00000  Uiso   1.00
H704   H     0.26763   0.97667   0.49388   0.00000  Uiso   1.00
H705   H     0.23411   0.96551   0.04952   0.00000  Uiso   1.00
H706   H     0.22377   0.68579   0.02277   0.00000  Uiso   1.00
O707   O     0.00805   0.86346   0.46262   0.00000  Uiso   1.00
C708   C     0.02042   0.91780   0.46101   0.00000  Uiso   1.00
H709   H     0.01339   0.93559   0.49378   0.00000  Uiso   1.00
H710   H     0.32339   0.92995   0.44302   0.00000  Uiso   1.00
C711   C     0.08691   0.93894   0.43969   0.00000  Uiso   1.00
H712   H     0.09590   0.92415   0.40582   0.00000  Uiso   1.00
H713   H     0.09725   0.98164   0.43965   0.00000  Uiso   1.00
H714   H     0.11743   0.92787   0.45818   0.00000  Uiso   1.00
O715   O     0.12249   0.84586   0.11275   0.00000  Uiso   1.00
H716   H     0.10478   0.85876   0.09143   0.00000  Uiso   1.00
O717   O     0.19319   0.88014   0.39812   0.00000  Uiso   1.00
H718   H     0.20500   0.89845   0.42445   0.00000  Uiso   1.00
O719   O     0.00285   0.71118   0.43634   0.00000  Uiso   1.00
H720   H     0.02021   0.69082   0.45285   0.00000  Uiso   1.00
O721   O     0.03477   0.87518   0.03852   0.00000  Uiso   1.00
H722   H     0.05465   0.89853   0.05976   0.00000  Uiso   1.00
O723   O     0.08349   0.75743   0.07460   0.00000  Uiso   1.00
C724   C     0.10966   0.71345   0.07029   0.00000  Uiso   1.00
H725   H     0.12759   0.70150   0.03636   0.00000  Uiso   1.00
H726   H     0.07339   0.68004   0.08368   0.00000  Uiso   1.00
C727   C     0.16001   0.72136   0.09615   0.00000  Uiso   1.00
H728   H     0.16792   0.68351   0.10236   0.00000  Uiso   1.00
H729   H     0.20372   0.74424   0.07816   0.00000  Uiso   1.00
H730   H     0.14695   0.74190   0.12716   0.00000  Uiso   1.00
O731   O     0.25324   0.80788   0.41680   0.00000  Uiso   1.00
C732   C     0.22737   0.75357   0.41497   0.00000  Uiso   1.00
H733   H     0.19537   0.73716   0.44479   0.00000  Uiso   1.00
H734   H     0.26438   0.73361   0.40961   0.00000  Uiso   1.00
C735   C     0.19646   0.73692   0.37671   0.00000  Uiso   1.00
H736   H     0.19652   0.69583   0.36773   0.00000  Uiso   1.00
H737   H     0.14772   0.73800   0.38541   0.00000  Uiso   1.00
H738   H     0.22038   0.76112   0.34875   0.00000  Uiso   1.00
O739   O     0.22859   0.68934   0.28141   0.00000  Uiso   1.00
C740   C     0.27858   0.66954   0.28536   0.00000  Uiso   1.00
H741   H     0.30571   0.99455   0.25317   0.00000  Uiso   1.00
H742   H     0.26138   0.96919   0.30589   0.00000  Uiso   1.00
C743   C     0.32051   0.70727   0.30950   0.00000  Uiso   1.00
H744   H     0.30079   0.70303   0.34410   0.00000  Uiso   1.00
H745   H     0.03254   0.69717   0.30396   0.00000  Uiso   1.00
H746   H     0.32574   0.74733   0.30022   0.00000  Uiso   1.00
O747   O     0.09426   0.98077   0.23227   0.00000  Uiso   1.00
C748   C     0.10527   0.98033   0.18703   0.00000  Uiso   1.00
H749   H     0.15104   0.97212   0.17205   0.00000  Uiso   1.00
H750   H     0.10210   0.68447   0.17677   0.00000  Uiso   1.00
C751   C     0.05620   0.93885   0.17111   0.00000  Uiso   1.00
H752   H     0.06357   0.93974   0.13554   0.00000  Uiso   1.00
H753   H     0.05880   0.90031   0.18004   0.00000  Uiso   1.00
H754   H     0.00983   0.94557   0.18546   0.00000  Uiso   1.00
O755   O     0.32195   0.85371   0.30338   0.00000  Uiso   1.00
C756   C     0.01550   0.90611   0.31106   0.00000  Uiso   1.00
H757   H     0.01065   0.93224   0.28751   0.00000  Uiso   1.00
H758   H     0.06441   0.91031   0.31091   0.00000  Uiso   1.00
C759   C     0.32346   0.92360   0.35635   0.00000  Uiso   1.00
H760   H     0.31807   0.89226   0.37845   0.00000  Uiso   1.00
H761   H     0.02203   0.95868   0.36623   0.00000  Uiso   1.00
H762   H     0.27914   0.93366   0.35816   0.00000  Uiso   1.00
O763   O     0.31966   0.77434   0.22419   0.00000  Uiso   1.00
C764   C     0.01459   0.76346   0.18201   0.00000  Uiso   1.00
H765   H     0.05914   0.75398   0.18139   0.00000  Uiso   1.00
H766   H     0.02120   0.79643   0.16104   0.00000  Uiso   1.00
C767   C     0.30619   0.71680   0.16483   0.00000  Uiso   1.00
H768   H     0.28877   0.68658   0.18908   0.00000  Uiso   1.00
H769   H     0.26645   0.72811   0.15655   0.00000  Uiso   1.00
H770   H     0.33221   0.69983   0.13619   0.00000  Uiso   1.00
O771   O     0.46148   0.90476   0.24686   0.00000  Uiso   1.00
O772   O     0.53852   0.76191   0.25314   0.00000  Uiso   1.00
O773   O     0.56163   0.91420   0.25503   0.00000  Uiso   1.00
O774   O     0.43837   0.75247   0.24498   0.00000  Uiso   1.00
C775   C     0.51429   0.93333   0.25332   0.00000  Uiso   1.00
C776   C     0.48503   0.73363   0.24878   0.00000  Uiso   1.00
O777   O     0.42185   0.82597   0.30855   0.00000  Uiso   1.00
O778   O     0.57815   0.84070   0.19146   0.00000  Uiso   1.00
O779   O     0.52199   0.83540   0.31671   0.00000  Uiso   1.00
O780   O     0.47801   0.83126   0.18329   0.00000  Uiso   1.00
C781   C     0.46276   0.82999   0.33288   0.00000  Uiso   1.00
C782   C     0.53730   0.83919   0.16734   0.00000  Uiso   1.00
Cu783  Cu    0.44071   0.82775   0.24517   0.00000  Uiso   1.00
Cu784  Cu    0.55929   0.83892   0.25484   0.00000  Uiso   1.00
C785   C     0.44071   0.81989   0.37959   0.00000  Uiso   1.00
C786   C     0.55767   0.84511   0.11995   0.00000  Uiso   1.00
C787   C     0.37429   0.75949   0.43223   0.00000  Uiso   1.00
C788   C     0.63966   0.86061   0.05606   0.00000  Uiso   1.00
C789   C     0.38781   0.78191   0.39222   0.00000  Uiso   1.00
C790   C     0.62007   0.85559   0.10079   0.00000  Uiso   1.00
C791   C     0.47807   0.83894   0.40956   0.00000  Uiso   1.00
C792   C     0.51440   0.84100   0.09359   0.00000  Uiso   1.00
C793   C     0.46421   0.81660   0.45080   0.00000  Uiso   1.00
C794   C     0.53239   0.83398   0.04825   0.00000  Uiso   1.00
C795   C     0.40837   0.78115   0.46373   0.00000  Uiso   1.00
C796   C     0.59608   0.84784   0.02909   0.00000  Uiso   1.00
C797   C     0.50763   0.82400   0.47721   0.00000  Uiso   1.00
C798   C     0.48889   0.81463   0.02137   0.00000  Uiso   1.00
C799   C     0.43048   0.78080   0.03537   0.00000  Uiso   1.00
C800   C     0.56986   0.82775   0.45844   0.00000  Uiso   1.00
C801   C     0.38931   0.76534   0.00663   0.00000  Uiso   1.00
C802   C     0.61426   0.84655   0.48342   0.00000  Uiso   1.00
H803   H     0.65403   0.86077   0.12061   0.00000  Uiso   1.00
H804   H     0.36124   0.76566   0.36886   0.00000  Uiso   1.00
C805   C     0.51982   0.98993   0.25926   0.00000  Uiso   1.00
C806   C     0.47839   0.67773   0.24625   0.00000  Uiso   1.00
N807   N     0.64839   0.84735   0.26212   0.00000  Uiso   1.00
N808   N     0.35161   0.81932   0.23788   0.00000  Uiso   1.00
O809   O     0.66004   0.74570   0.02132   0.00000  Uiso   1.00
C810   C     0.64704   0.69669   0.03908   0.00000  Uiso   1.00
H811   H     0.63668   0.70183   0.07449   0.00000  Uiso   1.00
H812   H     0.35181   0.67644   0.02918   0.00000  Uiso   1.00
C813   C     0.58982   0.99587   0.02571   0.00000  Uiso   1.00
H814   H     0.60096   0.97667   0.49388   0.00000  Uiso   1.00
H815   H     0.56745   0.96551   0.04952   0.00000  Uiso   1.00
H816   H     0.55710   0.68579   0.02277   0.00000  Uiso   1.00
O817   O     0.34139   0.86346   0.46262   0.00000  Uiso   1.00
C818   C     0.35375   0.91780   0.46101   0.00000  Uiso   1.00
H819   H     0.34672   0.93559   0.49378   0.00000  Uiso   1.00
H820   H     0.65673   0.92995   0.44302   0.00000  Uiso   1.00
C821   C     0.42025   0.93894   0.43969   0.00000  Uiso   1.00
H822   H     0.42923   0.92415   0.40582   0.00000  Uiso   1.00
H823   H     0.43058   0.98164   0.43965   0.00000  Uiso   1.00
H824   H     0.45076   0.92787   0.45818   0.00000  Uiso   1.00
O825   O     0.45582   0.84586   0.11275   0.00000  Uiso   1.00
H826   H     0.43811   0.85876   0.09143   0.00000  Uiso   1.00
O827   O     0.52652   0.88014   0.39812   0.00000  Uiso   1.00
H828   H     0.53834   0.89845   0.42445   0.00000  Uiso   1.00
O829   O     0.33619   0.71118   0.43634   0.00000  Uiso   1.00
H830   H     0.35354   0.69082   0.45285   0.00000  Uiso   1.00
O831   O     0.36810   0.87518   0.03852   0.00000  Uiso   1.00
H832   H     0.38798   0.89853   0.05976   0.00000  Uiso   1.00
O833   O     0.41683   0.75743   0.07460   0.00000  Uiso   1.00
C834   C     0.44300   0.71345   0.07029   0.00000  Uiso   1.00
H835   H     0.46092   0.70150   0.03636   0.00000  Uiso   1.00
H836   H     0.40672   0.68004   0.08368   0.00000  Uiso   1.00
C837   C     0.49334   0.72136   0.09615   0.00000  Uiso   1.00
H838   H     0.50125   0.68351   0.10236   0.00000  Uiso   1.00
H839   H     0.53705   0.74424   0.07816   0.00000  Uiso   1.00
H840   H     0.48028   0.74190   0.12716   0.00000  Uiso   1.00
O841   O     0.58657   0.80788   0.41680   0.00000  Uiso   1.00
C842   C     0.56070   0.75357   0.41497   0.00000  Uiso   1.00
H843   H     0.52871   0.73716   0.44479   0.00000  Uiso   1.00
H844   H     0.59771   0.73361   0.40961   0.00000  Uiso   1.00
C845   C     0.52979   0.73692   0.37671   0.00000  Uiso   1.00
H846   H     0.52985   0.69583   0.36773   0.00000  Uiso   1.00
H847   H     0.48106   0.73800   0.38541   0.00000  Uiso   1.00
H848   H     0.55371   0.76112   0.34875   0.00000  Uiso   1.00
O849   O     0.56192   0.68934   0.28141   0.00000  Uiso   1.00
C850   C     0.61191   0.66954   0.28536   0.00000  Uiso   1.00
H851   H     0.63905   0.99455   0.25317   0.00000  Uiso   1.00
H852   H     0.59471   0.96919   0.30589   0.00000  Uiso   1.00
C853   C     0.65385   0.70727   0.30950   0.00000  Uiso   1.00
H854   H     0.63413   0.70303   0.34410   0.00000  Uiso   1.00
H855   H     0.36588   0.69717   0.30396   0.00000  Uiso   1.00
H856   H     0.65907   0.74733   0.30022   0.00000  Uiso   1.00
O857   O     0.42759   0.98077   0.23227   0.00000  Uiso   1.00
C858   C     0.43860   0.98033   0.18703   0.00000  Uiso   1.00
H859   H     0.48437   0.97212   0.17205   0.00000  Uiso   1.00
H860   H     0.43543   0.68447   0.17677   0.00000  Uiso   1.00
C861   C     0.38953   0.93885   0.17111   0.00000  Uiso   1.00
H862   H     0.39691   0.93974   0.13554   0.00000  Uiso   1.00
H863   H     0.39213   0.90031   0.18004   0.00000  Uiso   1.00
H864   H     0.34317   0.94557   0.18546   0.00000  Uiso   1.00
O865   O     0.65529   0.85371   0.30338   0.00000  Uiso   1.00
C866   C     0.34883   0.90611   0.31106   0.00000  Uiso   1.00
H867   H     0.34399   0.93224   0.28751   0.00000  Uiso   1.00
H868   H     0.39774   0.91031   0.31091   0.00000  Uiso   1.00
C869   C     0.65679   0.92360   0.35635   0.00000  Uiso   1.00
H870   H     0.65140   0.89226   0.37845   0.00000  Uiso   1.00
H871   H     0.35537   0.95868   0.36623   0.00000  Uiso   1.00
H872   H     0.61247   0.93366   0.35816   0.00000  Uiso   1.00
O873   O     0.65299   0.77434   0.22419   0.00000  Uiso   1.00
C874   C     0.34792   0.76346   0.18201   0.00000  Uiso   1.00
H875   H     0.39247   0.75398   0.18139   0.00000  Uiso   1.00
H876   H     0.35454   0.79643   0.16104   0.00000  Uiso   1.00
C877   C     0.63952   0.71680   0.16483   0.00000  Uiso   1.00
H878   H     0.62210   0.68658   0.18908   0.00000  Uiso   1.00
H879   H     0.59978   0.72811   0.15655   0.00000  Uiso   1.00
H880   H     0.66555   0.69983   0.13619   0.00000  Uiso   1.00
O881   O     0.79482   0.90476   0.24686   0.00000  Uiso   1.00
O882   O     0.87185   0.76191   0.25314   0.00000  Uiso   1.00
O883   O     0.89496   0.91420   0.25503   0.00000  Uiso   1.00
O884   O     0.77171   0.75247   0.24498   0.00000  Uiso   1.00
C885   C     0.84763   0.93333   0.25332   0.00000  Uiso   1.00
C886   C     0.81836   0.73363   0.24878   0.00000  Uiso   1.00
O887   O     0.75518   0.82597   0.30855   0.00000  Uiso   1.00
O888   O     0.91149   0.84070   0.19146   0.00000  Uiso   1.00
O889   O     0.85532   0.83540   0.31671   0.00000  Uiso   1.00
O890   O     0.81134   0.83126   0.18329   0.00000  Uiso   1.00
C891   C     0.79610   0.82999   0.33288   0.00000  Uiso   1.00
C892   C     0.87063   0.83919   0.16734   0.00000  Uiso   1.00
Cu893  Cu    0.77404   0.82775   0.24517   0.00000  Uiso   1.00
Cu894  Cu    0.89263   0.83892   0.25484   0.00000  Uiso   1.00
C895   C     0.77404   0.81989   0.37959   0.00000  Uiso   1.00
C896   C     0.89100   0.84511   0.11995   0.00000  Uiso   1.00
C897   C     0.70762   0.75949   0.43223   0.00000  Uiso   1.00
C898   C     0.97299   0.86061   0.05606   0.00000  Uiso   1.00
C899   C     0.72114   0.78191   0.39222   0.00000  Uiso   1.00
C900   C     0.95340   0.85559   0.10079   0.00000  Uiso   1.00
C901   C     0.81140   0.83894   0.40956   0.00000  Uiso   1.00
C902   C     0.84774   0.84100   0.09359   0.00000  Uiso   1.00
C903   C     0.79754   0.81660   0.45080   0.00000  Uiso   1.00
C904   C     0.86572   0.83398   0.04825   0.00000  Uiso   1.00
C905   C     0.74171   0.78115   0.46373   0.00000  Uiso   1.00
C906   C     0.92942   0.84784   0.02909   0.00000  Uiso   1.00
C907   C     0.84096   0.82400   0.47721   0.00000  Uiso   1.00
C908   C     0.82222   0.81463   0.02137   0.00000  Uiso   1.00
C909   C     0.76382   0.78080   0.03537   0.00000  Uiso   1.00
C910   C     0.90320   0.82775   0.45844   0.00000  Uiso   1.00
C911   C     0.72265   0.76534   0.00663   0.00000  Uiso   1.00
C912   C     0.94759   0.84655   0.48342   0.00000  Uiso   1.00
H913   H     0.98736   0.86077   0.12061   0.00000  Uiso   1.00
H914   H     0.69457   0.76566   0.36886   0.00000  Uiso   1.00
C915   C     0.85315   0.98993   0.25926   0.00000  Uiso   1.00
C916   C     0.81172   0.67773   0.24625   0.00000  Uiso   1.00
N917   N     0.98173   0.84735   0.26212   0.00000  Uiso   1.00
N918   N     0.68494   0.81932   0.23788   0.00000  Uiso   1.00
O919   O     0.99337   0.74570   0.02132   0.00000  Uiso   1.00
C920   C     0.98037   0.69669   0.03908   0.00000  Uiso   1.00
H921   H     0.97002   0.70183   0.07449   0.00000  Uiso   1.00
H922   H     0.68515   0.67644   0.02918   0.00000  Uiso   1.00
C923   C     0.92315   0.99587   0.02571   0.00000  Uiso   1.00
H924   H     0.93430   0.97667   0.49388   0.00000  Uiso   1.00
H925   H     0.90078   0.96551   0.04952   0.00000  Uiso   1.00
H926   H     0.89043   0.68579   0.02277   0.00000  Uiso   1.00
O927   O     0.67472   0.86346   0.46262   0.00000  Uiso   1.00
C928   C     0.68708   0.91780   0.46101   0.00000  Uiso   1.00
H929   H     0.68006   0.93559   0.49378   0.00000  Uiso   1.00
H930   H     0.99006   0.92995   0.44302   0.00000  Uiso   1.00
C931   C     0.75358   0.93894   0.43969   0.00000  Uiso   1.00
H932   H     0.76257   0.92415   0.40582   0.00000  Uiso   1.00
H933   H     0.76391   0.98164   0.43965   0.00000  Uiso   1.00
H934   H     0.78409   0.92787   0.45818   0.00000  Uiso   1.00
O935   O     0.78915   0.84586   0.11275   0.00000  Uiso   1.00
H936   H     0.77144   0.85876   0.09143   0.00000  Uiso   1.00
O937   O     0.85985   0.88014   0.39812   0.00000  Uiso   1.00
H938   H     0.87167   0.89845   0.42445   0.00000  Uiso   1.00
O939   O     0.66952   0.71118   0.43634   0.00000  Uiso   1.00
H940   H     0.68688   0.69082   0.45285   0.00000  Uiso   1.00
O941   O     0.70143   0.87518   0.03852   0.00000  Uiso   1.00
H942   H     0.72131   0.89853   0.05976   0.00000  Uiso   1.00
O943   O     0.75016   0.75743   0.07460   0.00000  Uiso   1.00
C944   C     0.77633   0.71345   0.07029   0.00000  Uiso   1.00
H945   H     0.79426   0.70150   0.03636   0.00000  Uiso   1.00
H946   H     0.74006   0.68004   0.08368   0.00000  Uiso   1.00
C947   C     0.82668   0.72136   0.09615   0.00000  Uiso   1.00
H948   H     0.83459   0.68351   0.10236   0.00000  Uiso   1.00
H949   H     0.87038   0.74424   0.07816   0.00000  Uiso   1.00
H950   H     0.81361   0.74190   0.12716   0.00000  Uiso   1.00
O951   O     0.91990   0.80788   0.41680   0.00000  Uiso   1.00
C952   C     0.89404   0.75357   0.41497   0.00000  Uiso   1.00
H953   H     0.86204   0.73716   0.44479   0.00000  Uiso   1.00
H954   H     0.93105   0.73361   0.40961   0.00000  Uiso   1.00
C955   C     0.86312   0.73692   0.37671   0.00000  Uiso   1.00
H956   H     0.86318   0.69583   0.36773   0.00000  Uiso   1.00
H957   H     0.81439   0.73800   0.38541   0.00000  Uiso   1.00
H958   H     0.88705   0.76112   0.34875   0.00000  Uiso   1.00
O959   O     0.89525   0.68934   0.28141   0.00000  Uiso   1.00
C960   C     0.94525   0.66954   0.28536   0.00000  Uiso   1.00
H961   H     0.97238   0.99455   0.25317   0.00000  Uiso   1.00
H962   H     0.92805   0.96919   0.30589   0.00000  Uiso   1.00
C963   C     0.98718   0.70727   0.30950   0.00000  Uiso   1.00
H964   H     0.96746   0.70303   0.34410   0.00000  Uiso   1.00
H965   H     0.69921   0.69717   0.30396   0.00000  Uiso   1.00
H966   H     0.99241   0.74733   0.30022   0.00000  Uiso   1.00
O967   O     0.76093   0.98077   0.23227   0.00000  Uiso   1.00
C968   C     0.77193   0.98033   0.18703   0.00000  Uiso   1.00
H969   H     0.81770   0.97212   0.17205   0.00000  Uiso   1.00
H970   H     0.76876   0.68447   0.17677   0.00000  Uiso   1.00
C971   C     0.72286   0.93885   0.17111   0.00000  Uiso   1.00
H972   H     0.73024   0.93974   0.13554   0.00000  Uiso   1.00
H973   H     0.72547   0.90031   0.18004   0.00000  Uiso   1.00
H974   H     0.67650   0.94557   0.18546   0.00000  Uiso   1.00
O975   O     0.98862   0.85371   0.30338   0.00000  Uiso   1.00
C976   C     0.68216   0.90611   0.31106   0.00000  Uiso   1.00
H977   H     0.67732   0.93224   0.28751   0.00000  Uiso   1.00
H978   H     0.73108   0.91031   0.31091   0.00000  Uiso   1.00
C979   C     0.99012   0.92360   0.35635   0.00000  Uiso   1.00
H980   H     0.98473   0.89226   0.37845   0.00000  Uiso   1.00
H981   H     0.68870   0.95868   0.36623   0.00000  Uiso   1.00
H982   H     0.94580   0.93366   0.35816   0.00000  Uiso   1.00
O983   O     0.98633   0.77434   0.22419   0.00000  Uiso   1.00
C984   C     0.68126   0.76346   0.18201   0.00000  Uiso   1.00
H985   H     0.72580   0.75398   0.18139   0.00000  Uiso   1.00
H986   H     0.68787   0.79643   0.16104   0.00000  Uiso   1.00
C987   C     0.97285   0.71680   0.16483   0.00000  Uiso   1.00
H988   H     0.95543   0.68658   0.18908   0.00000  Uiso   1.00
H989   H     0.93311   0.72811   0.15655   0.00000  Uiso   1.00
H990   H     0.99888   0.69983   0.13619   0.00000  Uiso   1.00
O991   O     0.12815   0.23809   0.74686   0.00000  Uiso   1.00
O992   O     0.20518   0.09524   0.75314   0.00000  Uiso   1.00
O993   O     0.22829   0.24753   0.75503   0.00000  Uiso   1.00
O994   O     0.10504   0.08580   0.74498   0.00000  Uiso   1.00
C995   C     0.18096   0.26667   0.75332   0.00000  Uiso   1.00
C996   C     0.15170   0.06696   0.74878   0.00000  Uiso   1.00
O997   O     0.08851   0.15930   0.80855   0.00000  Uiso   1.00
O998   O     0.24482   0.17403   0.69146   0.00000  Uiso   1.00
O999   O     0.18866   0.16874   0.81671   0.00000  Uiso   1.00
O1000  O     0.14468   0.16460   0.68329   0.00000  Uiso   1.00
C1001  C     0.12943   0.16332   0.83288   0.00000  Uiso   1.00
C1002  C     0.20397   0.17252   0.66734   0.00000  Uiso   1.00
Cu1003 Cu    0.10737   0.16108   0.74517   0.00000  Uiso   1.00
Cu1004 Cu    0.22596   0.17225   0.75484   0.00000  Uiso   1.00
C1005  C     0.10737   0.15322   0.87959   0.00000  Uiso   1.00
C1006  C     0.22434   0.17845   0.61995   0.00000  Uiso   1.00
C1007  C     0.04095   0.09282   0.93223   0.00000  Uiso   1.00
C1008  C     0.30632   0.19394   0.55606   0.00000  Uiso   1.00
C1009  C     0.05448   0.11524   0.89222   0.00000  Uiso   1.00
C1010  C     0.28673   0.18892   0.60079   0.00000  Uiso   1.00
C1011  C     0.14474   0.17228   0.90956   0.00000  Uiso   1.00
C1012  C     0.18107   0.17433   0.59359   0.00000  Uiso   1.00
C1013  C     0.13087   0.14993   0.95080   0.00000  Uiso   1.00
C1014  C     0.19905   0.16731   0.54825   0.00000  Uiso   1.00
C1015  C     0.07504   0.11449   0.96373   0.00000  Uiso   1.00
C1016  C     0.26275   0.18117   0.52909   0.00000  Uiso   1.00
C1017  C     0.17429   0.15733   0.97721   0.00000  Uiso   1.00
C1018  C     0.15556   0.14796   0.52137   0.00000  Uiso   1.00
C1019  C     0.09715   0.11413   0.53537   0.00000  Uiso   1.00
C1020  C     0.23653   0.16108   0.95844   0.00000  Uiso   1.00
C1021  C     0.05598   0.09867   0.50663   0.00000  Uiso   1.00
C1022  C     0.28092   0.17988   0.98342   0.00000  Uiso   1.00
H1023  H     0.32069   0.19410   0.62061   0.00000  Uiso   1.00
H1024  H     0.02790   0.09899   0.86886   0.00000  Uiso   1.00
C1025  C     0.18649   0.32326   0.75926   0.00000  Uiso   1.00
C1026  C     0.14506   0.01107   0.74625   0.00000  Uiso   1.00
N1027  N     0.31506   0.18068   0.76212   0.00000  Uiso   1.00
N1028  N     0.01827   0.15265   0.73788   0.00000  Uiso   1.00
O1029  O     0.32671   0.07903   0.52132   0.00000  Uiso   1.00
C1030  C     0.31371   0.03003   0.53908   0.00000  Uiso   1.00
H1031  H     0.30335   0.03517   0.57449   0.00000  Uiso   1.00
H1032  H     0.01848   0.00977   0.52918   0.00000  Uiso   1.00
C1033  C     0.25649   0.32920   0.52571   0.00000  Uiso   1.00
H1034  H     0.26763   0.31000   0.99388   0.00000  Uiso   1.00
H1035  H     0.23411   0.29884   0.54952   0.00000  Uiso   1.00
H1036  H     0.22377   0.01913   0.52277   0.00000  Uiso   1.00
O1037  O     0.00805   0.19679   0.96262   0.00000  Uiso   1.00
C1038  C     0.02042   0.25113   0.96101   0.00000  Uiso   1.00
H1039  H     0.01339   0.26893   0.99378   0.00000  Uiso   1.00
H1040  H     0.32339   0.26329   0.94302   0.00000  Uiso   1.00
C1041  C     0.08691   0.27227   0.93969   0.00000  Uiso   1.00
H1042  H     0.09590   0.25748   0.90582   0.00000  Uiso   1.00
H1043  H     0.09725   0.31497   0.93965   0.00000  Uiso   1.00
H1044  H     0.11743   0.26120   0.95818   0.00000  Uiso   1.00
O1045  O     0.12249   0.17919   0.61275   0.00000  Uiso   1.00
H1046  H     0.10478   0.19209   0.59143   0.00000  Uiso   1.00
O1047  O     0.19319   0.21347   0.89812   0.00000  Uiso   1.00
H1048  H     0.20500   0.23178   0.92445   0.00000  Uiso   1.00
O1049  O     0.00285   0.04451   0.93634   0.00000  Uiso   1.00
H1050  H     0.02021   0.02415   0.95285   0.00000  Uiso   1.00
O1051  O     0.03477   0.20851   0.53852   0.00000  Uiso   1.00
H1052  H     0.05465   0.23187   0.55976   0.00000  Uiso   1.00
O1053  O     0.08349   0.09077   0.57460   0.00000  Uiso   1.00
C1054  C     0.10966   0.04678   0.57029   0.00000  Uiso   1.00
H1055  H     0.12759   0.03483   0.53636   0.00000  Uiso   1.00
H1056  H     0.07339   0.01337   0.58368   0.00000  Uiso   1.00
C1057  C     0.16001   0.05469   0.59615   0.00000  Uiso   1.00
H1058  H     0.16792   0.01685   0.60236   0.00000  Uiso   1.00
H1059  H     0.20372   0.07757   0.57816   0.00000  Uiso   1.00
H1060  H     0.14695   0.07523   0.62716   0.00000  Uiso   1.00
O1061  O     0.25324   0.14121   0.91680   0.00000  Uiso   1.00
C1062  C     0.22737   0.08690   0.91497   0.00000  Uiso   1.00
H1063  H     0.19537   0.07049   0.94479   0.00000  Uiso   1.00
H1064  H     0.26438   0.06694   0.90961   0.00000  Uiso   1.00
C1065  C     0.19646   0.07025   0.87671   0.00000  Uiso   1.00
H1066  H     0.19652   0.02916   0.86773   0.00000  Uiso   1.00
H1067  H     0.14772   0.07134   0.88541   0.00000  Uiso   1.00
H1068  H     0.22038   0.09446   0.84875   0.00000  Uiso   1.00
O1069  O     0.22859   0.02267   0.78141   0.00000  Uiso   1.00
C1070  C     0.27858   0.00287   0.78536   0.00000  Uiso   1.00
H1071  H     0.30571   0.32788   0.75317   0.00000  Uiso   1.00
H1072  H     0.26138   0.30253   0.80589   0.00000  Uiso   1.00
C1073  C     0.32051   0.04060   0.80950   0.00000  Uiso   1.00
H1074  H     0.30079   0.03636   0.84410   0.00000  Uiso   1.00
H1075  H     0.03254   0.03050   0.80396   0.00000  Uiso   1.00
H1076  H     0.32574   0.08067   0.80022   0.00000  Uiso   1.00
O1077  O     0.09426   0.31410   0.73227   0.00000  Uiso   1.00
C1078  C     0.10527   0.31367   0.68703   0.00000  Uiso   1.00
H1079  H     0.15104   0.30545   0.67205   0.00000  Uiso   1.00
H1080  H     0.10210   0.01780   0.67677   0.00000  Uiso   1.00
C1081  C     0.05620   0.27219   0.67111   0.00000  Uiso   1.00
H1082  H     0.06357   0.27307   0.63554   0.00000  Uiso   1.00
H1083  H     0.05880   0.23364   0.68004   0.00000  Uiso   1.00
H1084  H     0.00983   0.27891   0.68546   0.00000  Uiso   1.00
O1085  O     0.32195   0.18705   0.80338   0.00000  Uiso   1.00
C1086  C     0.01550   0.23944   0.81106   0.00000  Uiso   1.00
H1087  H     0.01065   0.26558   0.78751   0.00000  Uiso   1.00
H1088  H     0.06441   0.24364   0.81091   0.00000  Uiso   1.00
C1089  C     0.32346   0.25693   0.85635   0.00000  Uiso   1.00
H1090  H     0.31807   0.22560   0.87845   0.00000  Uiso   1.00
H1091  H     0.02203   0.29201   0.86623   0.00000  Uiso   1.00
H1092  H     0.27914   0.26699   0.85816   0.00000  Uiso   1.00
O1093  O     0.31966   0.10768   0.72419   0.00000  Uiso   1.00
C1094  C     0.01459   0.09680   0.68201   0.00000  Uiso   1.00
H1095  H     0.05914   0.08732   0.68139   0.00000  Uiso   1.00
H1096  H     0.02120   0.12976   0.66104   0.00000  Uiso   1.00
C1097  C     0.30619   0.05013   0.66483   0.00000  Uiso   1.00
H1098  H     0.28877   0.01991   0.68908   0.00000  Uiso   1.00
H1099  H     0.26645   0.06144   0.65655   0.00000  Uiso   1.00
H1100  H     0.33221   0.03317   0.63619   0.00000  Uiso   1.00
O1101  O     0.46148   0.23809   0.74686   0.00000  Uiso   1.00
O1102  O     0.53852   0.09524   0.75314   0.00000  Uiso   1.00
O1103  O     0.56163   0.24753   0.75503   0.00000  Uiso   1.00
O1104  O     0.43837   0.08580   0.74498   0.00000  Uiso   1.00
C1105  C     0.51429   0.26667   0.75332   0.00000  Uiso   1.00
C1106  C     0.48503   0.06696   0.74878   0.00000  Uiso   1.00
O1107  O     0.42185   0.15930   0.80855   0.00000  Uiso   1.00
O1108  O     0.57815   0.17403   0.69146   0.00000  Uiso   1.00
O1109  O     0.52199   0.16874   0.81671   0.00000  Uiso   1.00
O1110  O     0.47801   0.16460   0.68329   0.00000  Uiso   1.00
C1111  C     0.46276   0.16332   0.83288   0.00000  Uiso   1.00
C1112  C     0.53730   0.17252   0.66734   0.00000  Uiso   1.00
Cu1113 Cu    0.44071   0.16108   0.74517   0.00000  Uiso   1.00
Cu1114 Cu    0.55929   0.17225   0.75484   0.00000  Uiso   1.00
C1115  C     0.44071   0.15322   0.87959   0.00000  Uiso   1.00
C1116  C     0.55767   0.17845   0.61995   0.00000  Uiso   1.00
C1117  C     0.37429   0.09282   0.93223   0.00000  Uiso   1.00
C1118  C     0.63966   0.19394   0.55606   0.00000  Uiso   1.00
C1119  C     0.38781   0.11524   0.89222   0.00000  Uiso   1.00
C1120  C     0.62007   0.18892   0.60079   0.00000  Uiso   1.00
C1121  C     0.47807   0.17228   0.90956   0.00000  Uiso   1.00
C1122  C     0.51440   0.17433   0.59359   0.00000  Uiso   1.00
C1123  C     0.46421   0.14993   0.95080   0.00000  Uiso   1.00
C1124  C     0.53239   0.16731   0.54825   0.00000  Uiso   1.00
C1125  C     0.40837   0.11449   0.96373   0.00000  Uiso   1.00
C1126  C     0.59608   0.18117   0.52909   0.00000  Uiso   1.00
C1127  C     0.50763   0.15733   0.97721   0.00000  Uiso   1.00
C1128  C     0.48889   0.14796   0.52137   0.00000  Uiso   1.00
C1129  C     0.43048   0.11413   0.53537   0.00000  Uiso   1.00
C1130  C     0.56986   0.16108   0.95844   0.00000  Uiso   1.00
C1131  C     0.38931   0.09867   0.50663   0.00000  Uiso   1.00
C1132  C     0.61426   0.17988   0.98342   0.00000  Uiso   1.00
H1133  H     0.65403   0.19410   0.62061   0.00000  Uiso   1.00
H1134  H     0.36124   0.09899   0.86886   0.00000  Uiso   1.00
C1135  C     0.51982   0.32326   0.75926   0.00000  Uiso   1.00
C1136  C     0.47839   0.01107   0.74625   0.00000  Uiso   1.00
N1137  N     0.64839   0.18068   0.76212   0.00000  Uiso   1.00
N1138  N     0.35161   0.15265   0.73788   0.00000  Uiso   1.00
O1139  O     0.66004   0.07903   0.52132   0.00000  Uiso   1.00
C1140  C     0.64704   0.03003   0.53908   0.00000  Uiso   1.00
H1141  H     0.63668   0.03517   0.57449   0.00000  Uiso   1.00
H1142  H     0.35181   0.00977   0.52918   0.00000  Uiso   1.00
C1143  C     0.58982   0.32920   0.52571   0.00000  Uiso   1.00
H1144  H     0.60096   0.31000   0.99388   0.00000  Uiso   1.00
H1145  H     0.56745   0.29884   0.54952   0.00000  Uiso   1.00
H1146  H     0.55710   0.01913   0.52277   0.00000  Uiso   1.00
O1147  O     0.34139   0.19679   0.96262   0.00000  Uiso   1.00
C1148  C     0.35375   0.25113   0.96101   0.00000  Uiso   1.00
H1149  H     0.34672   0.26893   0.99378   0.00000  Uiso   1.00
H1150  H     0.65673   0.26329   0.94302   0.00000  Uiso   1.00
C1151  C     0.42025   0.27227   0.93969   0.00000  Uiso   1.00
H1152  H     0.42923   0.25748   0.90582   0.00000  Uiso   1.00
H1153  H     0.43058   0.31497   0.93965   0.00000  Uiso   1.00
H1154  H     0.45076   0.26120   0.95818   0.00000  Uiso   1.00
O1155  O     0.45582   0.17919   0.61275   0.00000  Uiso   1.00
H1156  H     0.43811   0.19209   0.59143   0.00000  Uiso   1.00
O1157  O     0.52652   0.21347   0.89812   0.00000  Uiso   1.00
H1158  H     0.53834   0.23178   0.92445   0.00000  Uiso   1.00
O1159  O     0.33619   0.04451   0.93634   0.00000  Uiso   1.00
H1160  H     0.35354   0.02415   0.95285   0.00000  Uiso   1.00
O1161  O     0.36810   0.20851   0.53852   0.00000  Uiso   1.00
H1162  H     0.38798   0.23187   0.55976   0.00000  Uiso   1.00
O1163  O     0.41683   0.09077   0.57460   0.00000  Uiso   1.00
C1164  C     0.44300   0.04678   0.57029   0.00000  Uiso   1.00
H1165  H     0.46092   0.03483   0.53636   0.00000  Uiso   1.00
H1166  H     0.40672   0.01337   0.58368   0.00000  Uiso   1.00
C1167  C     0.49334   0.05469   0.59615   0.00000  Uiso   1.00
H1168  H     0.50125   0.01685   0.60236   0.00000  Uiso   1.00
H1169  H     0.53705   0.07757   0.57816   0.00000  Uiso   1.00
H1170  H     0.48028   0.07523   0.62716   0.00000  Uiso   1.00
O1171  O     0.58657   0.14121   0.91680   0.00000  Uiso   1.00
C1172  C     0.56070   0.08690   0.91497   0.00000  Uiso   1.00
H1173  H     0.52871   0.07049   0.94479   0.00000  Uiso   1.00
H1174  H     0.59771   0.06694   0.90961   0.00000  Uiso   1.00
C1175  C     0.52979   0.07025   0.87671   0.00000  Uiso   1.00
H1176  H     0.52985   0.02916   0.86773   0.00000  Uiso   1.00
H1177  H     0.48106   0.07134   0.88541   0.00000  Uiso   1.00
H1178  H     0.55371   0.09446   0.84875   0.00000  Uiso   1.00
O1179  O     0.56192   0.02267   0.78141   0.00000  Uiso   1.00
C1180  C     0.61191   0.00287   0.78536   0.00000  Uiso   1.00
H1181  H     0.63905   0.32788   0.75317   0.00000  Uiso   1.00
H1182  H     0.59471   0.30253   0.80589   0.00000  Uiso   1.00
C1183  C     0.65385   0.04060   0.80950   0.00000  Uiso   1.00
H1184  H     0.63413   0.03636   0.84410   0.00000  Uiso   1.00
H1185  H     0.36588   0.03050   0.80396   0.00000  Uiso   1.00
H1186  H     0.65907   0.08067   0.80022   0.00000  Uiso   1.00
O1187  O     0.42759   0.31410   0.73227   0.00000  Uiso   1.00
C1188  C     0.43860   0.31367   0.68703   0.00000  Uiso   1.00
H1189  H     0.48437   0.30545   0.67205   0.00000  Uiso   1.00
H1190  H     0.43543   0.01780   0.67677   0.00000  Uiso   1.00
C1191  C     0.38953   0.27219   0.67111   0.00000  Uiso   1.00
H1192  H     0.39691   0.27307   0.63554   0.00000  Uiso   1.00
H1193  H     0.39213   0.23364   0.68004   0.00000  Uiso   1.00
H1194  H     0.34317   0.27891   0.68546   0.00000  Uiso   1.00
O1195  O     0.65529   0.18705   0.80338   0.00000  Uiso   1.00
C1196  C     0.34883   0.23944   0.81106   0.00000  Uiso   1.00
H1197  H     0.34399   0.26558   0.78751   0.00000  Uiso   1.00
H1198  H     0.39774   0.24364   0.81091   0.00000  Uiso   1.00
C1199  C     0.65679   0.25693   0.85635   0.00000  Uiso   1.00
H1200  H     0.65140   0.22560   0.87845   0.00000  Uiso   1.00
H1201  H     0.35537   0.29201   0.86623   0.00000  Uiso   1.00
H1202  H     0.61247   0.26699   0.85816   0.00000  Uiso   1.00
O1203  O     0.65299   0.10768   0.72419   0.00000  Uiso   1.00
C1204  C     0.34792   0.09680   0.68201   0.00000  Uiso   1.00
H1205  H     0.39247   0.08732   0.68139   0.00000  Uiso   1.00
H1206  H     0.35454   0.12976   0.66104   0.00000  Uiso   1.00
C1207  C     0.63952   0.05013   0.66483   0.00000  Uiso   1.00
H1208  H     0.62210   0.01991   0.68908   0.00000  Uiso   1.00
H1209  H     0.59978   0.06144   0.65655   0.00000  Uiso   1.00
H1210  H     0.66555   0.03317   0.63619   0.00000  Uiso   1.00
O1211  O     0.79482   0.23809   0.74686   0.00000  Uiso   1.00
O1212  O     0.87185   0.09524   0.75314   0.00000  Uiso   1.00
O1213  O     0.89496   0.24753   0.75503   0.00000  Uiso   1.00
O1214  O     0.77171   0.08580   0.74498   0.00000  Uiso   1.00
C1215  C     0.84763   0.26667   0.75332   0.00000  Uiso   1.00
C1216  C     0.81836   0.06696   0.74878   0.00000  Uiso   1.00
O1217  O     0.75518   0.15930   0.80855   0.00000  Uiso   1.00
O1218  O     0.91149   0.17403   0.69146   0.00000  Uiso   1.00
O1219  O     0.85532   0.16874   0.81671   0.00000  Uiso   1.00
O1220  O     0.81134   0.16460   0.68329   0.00000  Uiso   1.00
C1221  C     0.79610   0.16332   0.83288   0.00000  Uiso   1.00
C1222  C     0.87063   0.17252   0.66734   0.00000  Uiso   1.00
Cu1223 Cu    0.77404   0.16108   0.74517   0.00000  Uiso   1.00
Cu1224 Cu    0.89263   0.17225   0.75484   0.00000  Uiso   1.00
C1225  C     0.77404   0.15322   0.87959   0.00000  Uiso   1.00
C1226  C     0.89100   0.17845   0.61995   0.00000  Uiso   1.00
C1227  C     0.70762   0.09282   0.93223   0.00000  Uiso   1.00
C1228  C     0.97299   0.19394   0.55606   0.00000  Uiso   1.00
C1229  C     0.72114   0.11524   0.89222   0.00000  Uiso   1.00
C1230  C     0.95340   0.18892   0.60079   0.00000  Uiso   1.00
C1231  C     0.81140   0.17228   0.90956   0.00000  Uiso   1.00
C1232  C     0.84774   0.17433   0.59359   0.00000  Uiso   1.00
C1233  C     0.79754   0.14993   0.95080   0.00000  Uiso   1.00
C1234  C     0.86572   0.16731   0.54825   0.00000  Uiso   1.00
C1235  C     0.74171   0.11449   0.96373   0.00000  Uiso   1.00
C1236  C     0.92942   0.18117   0.52909   0.00000  Uiso   1.00
C1237  C     0.84096   0.15733   0.97721   0.00000  Uiso   1.00
C1238  C     0.82222   0.14796   0.52137   0.00000  Uiso   1.00
C1239  C     0.76382   0.11413   0.53537   0.00000  Uiso   1.00
C1240  C     0.90320   0.16108   0.95844   0.00000  Uiso   1.00
C1241  C     0.72265   0.09867   0.50663   0.00000  Uiso   1.00
C1242  C     0.94759   0.17988   0.98342   0.00000  Uiso   1.00
H1243  H     0.98736   0.19410   0.62061   0.00000  Uiso   1.00
H1244  H     0.69457   0.09899   0.86886   0.00000  Uiso   1.00
C1245  C     0.85315   0.32326   0.75926   0.00000  Uiso   1.00
C1246  C     0.81172   0.01107   0.74625   0.00000  Uiso   1.00
N1247  N     0.98173   0.18068   0.76212   0.00000  Uiso   1.00
N1248  N     0.68494   0.15265   0.73788   0.00000  Uiso   1.00
O1249  O     0.99337   0.07903   0.52132   0.00000  Uiso   1.00
C1250  C     0.98037   0.03003   0.53908   0.00000  Uiso   1.00
H1251  H     0.97002   0.03517   0.57449   0.00000  Uiso   1.00
H1252  H     0.68515   0.00977   0.52918   0.00000  Uiso   1.00
C1253  C     0.92315   0.32920   0.52571   0.00000  Uiso   1.00
H1254  H     0.93430   0.31000   0.99388   0.00000  Uiso   1.00
H1255  H     0.90078   0.29884   0.54952   0.00000  Uiso   1.00
H1256  H     0.89043   0.01913   0.52277   0.00000  Uiso   1.00
O1257  O     0.67472   0.19679   0.96262   0.00000  Uiso   1.00
C1258  C     0.68708   0.25113   0.96101   0.00000  Uiso   1.00
H1259  H     0.68006   0.26893   0.99378   0.00000  Uiso   1.00
H1260  H     0.99006   0.26329   0.94302   0.00000  Uiso   1.00
C1261  C     0.75358   0.27227   0.93969   0.00000  Uiso   1.00
H1262  H     0.76257   0.25748   0.90582   0.00000  Uiso   1.00
H1263  H     0.76391   0.31497   0.93965   0.00000  Uiso   1.00
H1264  H     0.78409   0.26120   0.95818   0.00000  Uiso   1.00
O1265  O     0.78915   0.17919   0.61275   0.00000  Uiso   1.00
H1266  H     0.77144   0.19209   0.59143   0.00000  Uiso   1.00
O1267  O     0.85985   0.21347   0.89812   0.00000  Uiso   1.00
H1268  H     0.87167   0.23178   0.92445   0.00000  Uiso   1.00
O1269  O     0.66952   0.04451   0.93634   0.00000  Uiso   1.00
H1270  H     0.68688   0.02415   0.95285   0.00000  Uiso   1.00
O1271  O     0.70143   0.20851   0.53852   0.00000  Uiso   1.00
H1272  H     0.72131   0.23187   0.55976   0.00000  Uiso   1.00
O1273  O     0.75016   0.09077   0.57460   0.00000  Uiso   1.00
C1274  C     0.77633   0.04678   0.57029   0.00000  Uiso   1.00
H1275  H     0.79426   0.03483   0.53636   0.00000  Uiso   1.00
H1276  H     0.74006   0.01337   0.58368   0.00000  Uiso   1.00
C1277  C     0.82668   0.05469   0.59615   0.00000  Uiso   1.00
H1278  H     0.83459   0.01685   0.60236   0.00000  Uiso   1.00
H1279  H     0.87038   0.07757   0.57816   0.00000  Uiso   1.00
H1280  H     0.81361   0.07523   0.62716   0.00000  Uiso   1.00
O1281  O     0.91990   0.14121   0.91680   0.00000  Uiso   1.00
C1282  C     0.89404   0.08690   0.91497   0.00000  Uiso   1.00
H1283  H     0.86204   0.07049   0.94479   0.00000  Uiso   1.00
H1284  H     0.93105   0.06694   0.90961   0.00000  Uiso   1.00
C1285  C     0.86312   0.07025   0.87671   0.00000  Uiso   1.00
H1286  H     0.86318   0.02916   0.86773   0.00000  Uiso   1.00
H1287  H     0.81439   0.07134   0.88541   0.00000  Uiso   1.00
H1288  H     0.88705   0.09446   0.84875   0.00000  Uiso   1.00
O1289  O     0.89525   0.02267   0.78141   0.00000  Uiso   1.00
C1290  C     0.94525   0.00287   0.78536   0.00000  Uiso   1.00
H1291  H     0.97238   0.32788   0.75317   0.00000  Uiso   1.00
H1292  H     0.92805   0.30253   0.80589   0.00000  Uiso   1.00
C1293  C     0.98718   0.04060   0.80950   0.00000  Uiso   1.00
H1294  H     0.96746   0.03636   0.84410   0.00000  Uiso   1.00
H1295  H     0.69921   0.03050   0.80396   0.00000  Uiso   1.00
H1296  H     0.99241   0.08067   0.80022   0.00000  Uiso   1.00
O1297  O     0.76093   0.31410   0.73227   0.00000  Uiso   1.00
C1298  C     0.77193   0.31367   0.68703   0.00000  Uiso   1.00
H1299  H     0.81770   0.30545   0.67205   0.00000  Uiso   1.00
H1300  H     0.76876   0.01780   0.67677   0.00000  Uiso   1.00
C1301  C     0.72286   0.27219   0.67111   0.00000  Uiso   1.00
H1302  H     0.73024   0.27307   0.63554   0.00000  Uiso   1.00
H1303  H     0.72547   0.23364   0.68004   0.00000  Uiso   1.00
H1304  H     0.67650   0.27891   0.68546   0.00000  Uiso   1.00
O1305  O     0.98862   0.18705   0.80338   0.00000  Uiso   1.00
C1306  C     0.68216   0.23944   0.81106   0.00000  Uiso   1.00
H1307  H     0.67732   0.26558   0.78751   0.00000  Uiso   1.00
H1308  H     0.73108   0.24364   0.81091   0.00000  Uiso   1.00
C1309  C     0.99012   0.25693   0.85635   0.00000  Uiso   1.00
H1310  H     0.98473   0.22560   0.87845   0.00000  Uiso   1.00
H1311  H     0.68870   0.29201   0.86623   0.00000  Uiso   1.00
H1312  H     0.94580   0.26699   0.85816   0.00000  Uiso   1.00
O1313  O     0.98633   0.10768   0.72419   0.00000  Uiso   1.00
C1314  C     0.68126   0.09680   0.68201   0.00000  Uiso   1.00
H1315  H     0.72580   0.08732   0.68139   0.00000  Uiso   1.00
H1316  H     0.68787   0.12976   0.66104   0.00000  Uiso   1.00
C1317  C     0.97285   0.05013   0.66483   0.00000  Uiso   1.00
H1318  H     0.95543   0.01991   0.68908   0.00000  Uiso   1.00
H1319  H     0.93311   0.06144   0.65655   0.00000  Uiso   1.00
H1320  H     0.99888   0.03317   0.63619   0.00000  Uiso   1.00
O1321  O     0.12815   0.57142   0.74686   0.00000  Uiso   1.00
O1322  O     0.20518   0.42858   0.75314   0.00000  Uiso   1.00
O1323  O     0.22829   0.58086   0.75503   0.00000  Uiso   1.00
O1324  O     0.10504   0.41914   0.74498   0.00000  Uiso   1.00
C1325  C     0.18096   0.60000   0.75332   0.00000  Uiso   1.00
C1326  C     0.15170   0.40030   0.74878   0.00000  Uiso   1.00
O1327  O     0.08851   0.49263   0.80855   0.00000  Uiso   1.00
O1328  O     0.24482   0.50737   0.69146   0.00000  Uiso   1.00
O1329  O     0.18866   0.50207   0.81671   0.00000  Uiso   1.00
O1330  O     0.14468   0.49793   0.68329   0.00000  Uiso   1.00
C1331  C     0.12943   0.49666   0.83288   0.00000  Uiso   1.00
C1332  C     0.20397   0.50585   0.66734   0.00000  Uiso   1.00
Cu1333 Cu    0.10737   0.49441   0.74517   0.00000  Uiso   1.00
Cu1334 Cu    0.22596   0.50559   0.75484   0.00000  Uiso   1.00
C1335  C     0.10737   0.48656   0.87959   0.00000  Uiso   1.00
C1336  C     0.22434   0.51178   0.61995   0.00000  Uiso   1.00
C1337  C     0.04095   0.42615   0.93223   0.00000  Uiso   1.00
C1338  C     0.30632   0.52728   0.55606   0.00000  Uiso   1.00
C1339  C     0.05448   0.44858   0.89222   0.00000  Uiso   1.00
C1340  C     0.28673   0.52226   0.60079   0.00000  Uiso   1.00
C1341  C     0.14474   0.50561   0.90956   0.00000  Uiso   1.00
C1342  C     0.18107   0.50766   0.59359   0.00000  Uiso   1.00
C1343  C     0.13087   0.48326   0.95080   0.00000  Uiso   1.00
C1344  C     0.19905   0.50064   0.54825   0.00000  Uiso   1.00
C1345  C     0.07504   0.44782   0.96373   0.00000  Uiso   1.00
C1346  C     0.26275   0.51451   0.52909   0.00000  Uiso   1.00
C1347  C     0.17429   0.49066   0.97721   0.00000  Uiso   1.00
C1348  C     0.15556   0.48130   0.52137   0.00000  Uiso   1.00
C1349  C     0.09715   0.44746   0.53537   0.00000  Uiso   1.00
C1350  C     0.23653   0.49442   0.95844   0.00000  Uiso   1.00
C1351  C     0.05598   0.43200   0.50663   0.00000  Uiso   1.00
C1352  C     0.28092   0.51322   0.98342   0.00000  Uiso   1.00
H1353  H     0.32069   0.52743   0.62061   0.00000  Uiso   1.00
H1354  H     0.02790   0.43233   0.86886   0.00000  Uiso   1.00
C1355  C     0.18649   0.65659   0.75926   0.00000  Uiso   1.00
C1356  C     0.14506   0.34440   0.74625   0.00000  Uiso   1.00
N1357  N     0.31506   0.51401   0.76212   0.00000  Uiso   1.00
N1358  N     0.01827   0.48599   0.73788   0.00000  Uiso   1.00
O1359  O     0.32671   0.41236   0.52132   0.00000  Uiso   1.00
C1360  C     0.31371   0.36336   0.53908   0.00000  Uiso   1.00
H1361  H     0.30335   0.36850   0.57449   0.00000  Uiso   1.00
H1362  H     0.01848   0.34311   0.52918   0.00000  Uiso   1.00
C1363  C     0.25649   0.66253   0.52571   0.00000  Uiso   1.00
H1364  H     0.26763   0.64334   0.99388   0.00000  Uiso   1.00
H1365  H     0.23411   0.63217   0.54952   0.00000  Uiso   1.00
H1366  H     0.22377   0.35246   0.52277   0.00000  Uiso   1.00
O1367  O     0.00805   0.53013   0.96262   0.00000  Uiso   1.00
C1368  C     0.02042   0.58446   0.96101   0.00000  Uiso   1.00
H1369  H     0.01339   0.60226   0.99378   0.00000  Uiso   1.00
H1370  H     0.32339   0.59662   0.94302   0.00000  Uiso   1.00
C1371  C     0.08691   0.60561   0.93969   0.00000  Uiso   1.00
H1372  H     0.09590   0.59081   0.90582   0.00000  Uiso   1.00
H1373  H     0.09725   0.64830   0.93965   0.00000  Uiso   1.00
H1374  H     0.11743   0.59454   0.95818   0.00000  Uiso   1.00
O1375  O     0.12249   0.51252   0.61275   0.00000  Uiso   1.00
H1376  H     0.10478   0.52543   0.59143   0.00000  Uiso   1.00
O1377  O     0.19319   0.54681   0.89812   0.00000  Uiso   1.00
H1378  H     0.20500   0.56511   0.92445   0.00000  Uiso   1.00
O1379  O     0.00285   0.37785   0.93634   0.00000  Uiso   1.00
H1380  H     0.02021   0.35748   0.95285   0.00000  Uiso   1.00
O1381  O     0.03477   0.54185   0.53852   0.00000  Uiso   1.00
H1382  H     0.05465   0.56520   0.55976   0.00000  Uiso   1.00
O1383  O     0.08349   0.42410   0.57460   0.00000  Uiso   1.00
C1384  C     0.10966   0.38011   0.57029   0.00000  Uiso   1.00
H1385  H     0.12759   0.36817   0.53636   0.00000  Uiso   1.00
H1386  H     0.07339   0.34670   0.58368   0.00000  Uiso   1.00
C1387  C     0.16001   0.38803   0.59615   0.00000  Uiso   1.00
H1388  H     0.16792   0.35018   0.60236   0.00000  Uiso   1.00
H1389  H     0.20372   0.41091   0.57816   0.00000  Uiso   1.00
H1390  H     0.14695   0.40857   0.62716   0.00000  Uiso   1.00
O1391  O     0.25324   0.47454   0.91680   0.00000  Uiso   1.00
C1392  C     0.22737   0.42024   0.91497   0.00000  Uiso   1.00
H1393  H     0.19537   0.40382   0.94479   0.00000  Uiso   1.00
H1394  H     0.26438   0.40028   0.90961   0.00000  Uiso   1.00
C1395  C     0.19646   0.40358   0.87671   0.00000  Uiso   1.00
H1396  H     0.19652   0.36249   0.86773   0.00000  Uiso   1.00
H1397  H     0.14772   0.40467   0.88541   0.00000  Uiso   1.00
H1398  H     0.22038   0.42779   0.84875   0.00000  Uiso   1.00
O1399  O     0.22859   0.35600   0.78141   0.00000  Uiso   1.00
C1400  C     0.27858   0.33621   0.78536   0.00000  Uiso   1.00
H1401  H     0.30571   0.66122   0.75317   0.00000  Uiso   1.00
H1402  H     0.26138   0.63586   0.80589   0.00000  Uiso   1.00
C1403  C     0.32051   0.37393   0.80950   0.00000  Uiso   1.00
H1404  H     0.30079   0.36969   0.84410   0.00000  Uiso   1.00
H1405  H     0.03254   0.36383   0.80396   0.00000  Uiso   1.00
H1406  H     0.32574   0.41400   0.80022   0.00000  Uiso   1.00
O1407  O     0.09426   0.64743   0.73227   0.00000  Uiso   1.00
C1408  C     0.10527   0.64700   0.68703   0.00000  Uiso   1.00
H1409  H     0.15104   0.63879   0.67205   0.00000  Uiso   1.00
H1410  H     0.10210   0.35114   0.67677   0.00000  Uiso   1.00
C1411  C     0.05620   0.60552   0.67111   0.00000  Uiso   1.00
H1412  H     0.06357   0.60641   0.63554   0.00000  Uiso   1.00
H1413  H     0.05880   0.56697   0.68004   0.00000  Uiso   1.00
H1414  H     0.00983   0.61224   0.68546   0.00000  Uiso   1.00
O1415  O     0.32195   0.52038   0.80338   0.00000  Uiso   1.00
C1416  C     0.01550   0.57277   0.81106   0.00000  Uiso   1.00
H1417  H     0.01065   0.59891   0.78751   0.00000  Uiso   1.00
H1418  H     0.06441   0.57698   0.81091   0.00000  Uiso   1.00
C1419  C     0.32346   0.59026   0.85635   0.00000  Uiso   1.00
H1420  H     0.31807   0.55893   0.87845   0.00000  Uiso   1.00
H1421  H     0.02203   0.62535   0.86623   0.00000  Uiso   1.00
H1422  H     0.27914   0.60033   0.85816   0.00000  Uiso   1.00
O1423  O     0.31966   0.44101   0.72419   0.00000  Uiso   1.00
C1424  C     0.01459   0.43013   0.68201   0.00000  Uiso   1.00
H1425  H     0.05914   0.42065   0.68139   0.00000  Uiso   1.00
H1426  H     0.02120   0.46310   0.66104   0.00000  Uiso   1.00
C1427  C     0.30619   0.38346   0.66483   0.00000  Uiso   1.00
H1428  H     0.28877   0.35324   0.68908   0.00000  Uiso   1.00
H1429  H     0.26645   0.39477   0.65655   0.00000  Uiso   1.00
H1430  H     0.33221   0.36650   0.63619   0.00000  Uiso   1.00
O1431  O     0.46148   0.57142   0.74686   0.00000  Uiso   1.00
O1432  O     0.53852   0.42858   0.75314   0.00000  Uiso   1.00
O1433  O     0.56163   0.58086   0.75503   0.00000  Uiso   1.00
O1434  O     0.43837   0.41914   0.74498   0.00000  Uiso   1.00
C1435  C     0.51429   0.60000   0.75332   0.00000  Uiso   1.00
C1436  C     0.48503   0.40030   0.74878   0.00000  Uiso   1.00
O1437  O     0.42185   0.49263   0.80855   0.00000  Uiso   1.00
O1438  O     0.57815   0.50737   0.69146   0.00000  Uiso   1.00
O1439  O     0.52199   0.50207   0.81671   0.00000  Uiso   1.00
O1440  O     0.47801   0.49793   0.68329   0.00000  Uiso   1.00
C1441  C     0.46276   0.49666   0.83288   0.00000  Uiso   1.00
C1442  C     0.53730   0.50585   0.66734   0.00000  Uiso   1.00
Cu1443 Cu    0.44071   0.49441   0.74517   0.00000  Uiso   1.00
Cu1444 Cu    0.55929   0.50559   0.75484   0.00000  Uiso   1.00
C1445  C     0.44071   0.48656   0.87959   0.00000  Uiso   1.00
C1446  C     0.55767   0.51178   0.61995   0.00000  Uiso   1.00
C1447  C     0.37429   0.42615   0.93223   0.00000  Uiso   1.00
C1448  C     0.63966   0.52728   0.55606   0.00000  Uiso   1.00
C1449  C     0.38781   0.44858   0.89222   0.00000  Uiso   1.00
C1450  C     0.62007   0.52226   0.60079   0.00000  Uiso   1.00
C1451  C     0.47807   0.50561   0.90956   0.00000  Uiso   1.00
C1452  C     0.51440   0.50766   0.59359   0.00000  Uiso   1.00
C1453  C     0.46421   0.48326   0.95080   0.00000  Uiso   1.00
C1454  C     0.53239   0.50064   0.54825   0.00000  Uiso   1.00
C1455  C     0.40837   0.44782   0.96373   0.00000  Uiso   1.00
C1456  C     0.59608   0.51451   0.52909   0.00000  Uiso   1.00
C1457  C     0.50763   0.49066   0.97721   0.00000  Uiso   1.00
C1458  C     0.48889   0.48130   0.52137   0.00000  Uiso   1.00
C1459  C     0.43048   0.44746   0.53537   0.00000  Uiso   1.00
C1460  C     0.56986   0.49442   0.95844   0.00000  Uiso   1.00
C1461  C     0.38931   0.43200   0.50663   0.00000  Uiso   1.00
C1462  C     0.61426   0.51322   0.98342   0.00000  Uiso   1.00
H1463  H     0.65403   0.52743   0.62061   0.00000  Uiso   1.00
H1464  H     0.36124   0.43233   0.86886   0.00000  Uiso   1.00
C1465  C     0.51982   0.65659   0.75926   0.00000  Uiso   1.00
C1466  C     0.47839   0.34440   0.74625   0.00000  Uiso   1.00
N1467  N     0.64839   0.51401   0.76212   0.00000  Uiso   1.00
N1468  N     0.35161   0.48599   0.73788   0.00000  Uiso   1.00
O1469  O     0.66004   0.41236   0.52132   0.00000  Uiso   1.00
C1470  C     0.64704   0.36336   0.53908   0.00000  Uiso   1.00
H1471  H     0.63668   0.36850   0.57449   0.00000  Uiso   1.00
H1472  H     0.35181   0.34311   0.52918   0.00000  Uiso   1.00
C1473  C     0.58982   0.66253   0.52571   0.00000  Uiso   1.00
H1474  H     0.60096   0.64334   0.99388   0.00000  Uiso   1.00
H1475  H     0.56745   0.63217   0.54952   0.00000  Uiso   1.00
H1476  H     0.55710   0.35246   0.52277   0.00000  Uiso   1.00
O1477  O     0.34139   0.53013   0.96262   0.00000  Uiso   1.00
C1478  C     0.35375   0.58446   0.96101   0.00000  Uiso   1.00
H1479  H     0.34672   0.60226   0.99378   0.00000  Uiso   1.00
H1480  H     0.65673   0.59662   0.94302   0.00000  Uiso   1.00
C1481  C     0.42025   0.60561   0.93969   0.00000  Uiso   1.00
H1482  H     0.42923   0.59081   0.90582   0.00000  Uiso   1.00
H1483  H     0.43058   0.64830   0.93965   0.00000  Uiso   1.00
H1484  H     0.45076   0.59454   0.95818   0.00000  Uiso   1.00
O1485  O     0.45582   0.51252   0.61275   0.00000  Uiso   1.00
H1486  H     0.43811   0.52543   0.59143   0.00000  Uiso   1.00
O1487  O     0.52652   0.54681   0.89812   0.00000  Uiso   1.00
H1488  H     0.53834   0.56511   0.92445   0.00000  Uiso   1.00
O1489  O     0.33619   0.37785   0.93634   0.00000  Uiso   1.00
H1490  H     0.35354   0.35748   0.95285   0.00000  Uiso   1.00
O1491  O     0.36810   0.54185   0.53852   0.00000  Uiso   1.00
H1492  H     0.38798   0.56520   0.55976   0.00000  Uiso   1.00
O1493  O     0.41683   0.42410   0.57460   0.00000  Uiso   1.00
C1494  C     0.44300   0.38011   0.57029   0.00000  Uiso   1.00
H1495  H     0.46092   0.36817   0.53636   0.00000  Uiso   1.00
H1496  H     0.40672   0.34670   0.58368   0.00000  Uiso   1.00
C1497  C     0.49334   0.38803   0.59615   0.00000  Uiso   1.00
H1498  H     0.50125   0.35018   0.60236   0.00000  Uiso   1.00
H1499  H     0.53705   0.41091   0.57816   0.00000  Uiso   1.00
H1500  H     0.48028   0.40857   0.62716   0.00000  Uiso   1.00
O1501  O     0.58657   0.47454   0.91680   0.00000  Uiso   1.00
C1502  C     0.56070   0.42024   0.91497   0.00000  Uiso   1.00
H1503  H     0.52871   0.40382   0.94479   0.00000  Uiso   1.00
H1504  H     0.59771   0.40028   0.90961   0.00000  Uiso   1.00
C1505  C     0.52979   0.40358   0.87671   0.00000  Uiso   1.00
H1506  H     0.52985   0.36249   0.86773   0.00000  Uiso   1.00
H1507  H     0.48106   0.40467   0.88541   0.00000  Uiso   1.00
H1508  H     0.55371   0.42779   0.84875   0.00000  Uiso   1.00
O1509  O     0.56192   0.35600   0.78141   0.00000  Uiso   1.00
C1510  C     0.61191   0.33621   0.78536   0.00000  Uiso   1.00
H1511  H     0.63905   0.66122   0.75317   0.00000  Uiso   1.00
H1512  H     0.59471   0.63586   0.80589   0.00000  Uiso   1.00
C1513  C     0.65385   0.37393   0.80950   0.00000  Uiso   1.00
H1514  H     0.63413   0.36969   0.84410   0.00000  Uiso   1.00
H1515  H     0.36588   0.36383   0.80396   0.00000  Uiso   1.00
H1516  H     0.65907   0.41400   0.80022   0.00000  Uiso   1.00
O1517  O     0.42759   0.64743   0.73227   0.00000  Uiso   1.00
C1518  C     0.43860   0.64700   0.68703   0.00000  Uiso   1.00
H1519  H     0.48437   0.63879   0.67205   0.00000  Uiso   1.00
H1520  H     0.43543   0.35114   0.67677   0.00000  Uiso   1.00
C1521  C     0.38953   0.60552   0.67111   0.00000  Uiso   1.00
H1522  H     0.39691   0.60641   0.63554   0.00000  Uiso   1.00
H1523  H     0.39213   0.56697   0.68004   0.00000  Uiso   1.00
H1524  H     0.34317   0.61224   0.68546   0.00000  Uiso   1.00
O1525  O     0.65529   0.52038   0.80338   0.00000  Uiso   1.00
C1526  C     0.34883   0.57277   0.81106   0.00000  Uiso   1.00
H1527  H     0.34399   0.59891   0.78751   0.00000  Uiso   1.00
H1528  H     0.39774   0.57698   0.81091   0.00000  Uiso   1.00
C1529  C     0.65679   0.59026   0.85635   0.00000  Uiso   1.00
H1530  H     0.65140   0.55893   0.87845   0.00000  Uiso   1.00
H1531  H     0.35537   0.62535   0.86623   0.00000  Uiso   1.00
H1532  H     0.61247   0.60033   0.85816   0.00000  Uiso   1.00
O1533  O     0.65299   0.44101   0.72419   0.00000  Uiso   1.00
C1534  C     0.34792   0.43013   0.68201   0.00000  Uiso   1.00
H1535  H     0.39247   0.42065   0.68139   0.00000  Uiso   1.00
H1536  H     0.35454   0.46310   0.66104   0.00000  Uiso   1.00
C1537  C     0.63952   0.38346   0.66483   0.00000  Uiso   1.00
H1538  H     0.62210   0.35324   0.68908   0.00000  Uiso   1.00
H1539  H     0.59978   0.39477   0.65655   0.00000  Uiso   1.00
H1540  H     0.66555   0.36650   0.63619   0.00000  Uiso   1.00
O1541  O     0.79482   0.57142   0.74686   0.00000  Uiso   1.00
O1542  O     0.87185   0.42858   0.75314   0.00000  Uiso   1.00
O1543  O     0.89496   0.58086   0.75503   0.00000  Uiso   1.00
O1544  O     0.77171   0.41914   0.74498   0.00000  Uiso   1.00
C1545  C     0.84763   0.60000   0.75332   0.00000  Uiso   1.00
C1546  C     0.81836   0.40030   0.74878   0.00000  Uiso   1.00
O1547  O     0.75518   0.49263   0.80855   0.00000  Uiso   1.00
O1548  O     0.91149   0.50737   0.69146   0.00000  Uiso   1.00
O1549  O     0.85532   0.50207   0.81671   0.00000  Uiso   1.00
O1550  O     0.81134   0.49793   0.68329   0.00000  Uiso   1.00
C1551  C     0.79610   0.49666   0.83288   0.00000  Uiso   1.00
C1552  C     0.87063   0.50585   0.66734   0.00000  Uiso   1.00
Cu1553 Cu    0.77404   0.49441   0.74517   0.00000  Uiso   1.00
Cu1554 Cu    0.89263   0.50559   0.75484   0.00000  Uiso   1.00
C1555  C     0.77404   0.48656   0.87959   0.00000  Uiso   1.00
C1556  C     0.89100   0.51178   0.61995   0.00000  Uiso   1.00
C1557  C     0.70762   0.42615   0.93223   0.00000  Uiso   1.00
C1558  C     0.97299   0.52728   0.55606   0.00000  Uiso   1.00
C1559  C     0.72114   0.44858   0.89222   0.00000  Uiso   1.00
C1560  C     0.95340   0.52226   0.60079   0.00000  Uiso   1.00
C1561  C     0.81140   0.50561   0.90956   0.00000  Uiso   1.00
C1562  C     0.84774   0.50766   0.59359   0.00000  Uiso   1.00
C1563  C     0.79754   0.48326   0.95080   0.00000  Uiso   1.00
C1564  C     0.86572   0.50064   0.54825   0.00000  Uiso   1.00
C1565  C     0.74171   0.44782   0.96373   0.00000  Uiso   1.00
C1566  C     0.92942   0.51451   0.52909   0.00000  Uiso   1.00
C1567  C     0.84096   0.49066   0.97721   0.00000  Uiso   1.00
C1568  C     0.82222   0.48130   0.52137   0.00000  Uiso   1.00
C1569  C     0.76382   0.44746   0.53537   0.00000  Uiso   1.00
C1570  C     0.90320   0.49442   0.95844   0.00000  Uiso   1.00
C1571  C     0.72265   0.43200   0.50663   0.00000  Uiso   1.00
C1572  C     0.94759   0.51322   0.98342   0.00000  Uiso   1.00
H1573  H     0.98736   0.52743   0.62061   0.00000  Uiso   1.00
H1574  H     0.69457   0.43233   0.86886   0.00000  Uiso   1.00
C1575  C     0.85315   0.65659   0.75926   0.00000  Uiso   1.00
C1576  C     0.81172   0.34440   0.74625   0.00000  Uiso   1.00
N1577  N     0.98173   0.51401   0.76212   0.00000  Uiso   1.00
N1578  N     0.68494   0.48599   0.73788   0.00000  Uiso   1.00
O1579  O     0.99337   0.41236   0.52132   0.00000  Uiso   1.00
C1580  C     0.98037   0.36336   0.53908   0.00000  Uiso   1.00
H1581  H     0.97002   0.36850   0.57449   0.00000  Uiso   1.00
H1582  H     0.68515   0.34311   0.52918   0.00000  Uiso   1.00
C1583  C     0.92315   0.66253   0.52571   0.00000  Uiso   1.00
H1584  H     0.93430   0.64334   0.99388   0.00000  Uiso   1.00
H1585  H     0.90078   0.63217   0.54952   0.00000  Uiso   1.00
H1586  H     0.89043   0.35246   0.52277   0.00000  Uiso   1.00
O1587  O     0.67472   0.53013   0.96262   0.00000  Uiso   1.00
C1588  C     0.68708   0.58446   0.96101   0.00000  Uiso   1.00
H1589  H     0.68006   0.60226   0.99378   0.00000  Uiso   1.00
H1590  H     0.99006   0.59662   0.94302   0.00000  Uiso   1.00
C1591  C     0.75358   0.60561   0.93969   0.00000  Uiso   1.00
H1592  H     0.76257   0.59081   0.90582   0.00000  Uiso   1.00
H1593  H     0.76391   0.64830   0.93965   0.00000  Uiso   1.00
H1594  H     0.78409   0.59454   0.95818   0.00000  Uiso   1.00
O1595  O     0.78915   0.51252   0.61275   0.00000  Uiso   1.00
H1596  H     0.77144   0.52543   0.59143   0.00000  Uiso   1.00
O1597  O     0.85985   0.54681   0.89812   0.00000  Uiso   1.00
H1598  H     0.87167   0.56511   0.92445   0.00000  Uiso   1.00
O1599  O     0.66952   0.37785   0.93634   0.00000  Uiso   1.00
H1600  H     0.68688   0.35748   0.95285   0.00000  Uiso   1.00
O1601  O     0.70143   0.54185   0.53852   0.00000  Uiso   1.00
H1602  H     0.72131   0.56520   0.55976   0.00000  Uiso   1.00
O1603  O     0.75016   0.42410   0.57460   0.00000  Uiso   1.00
C1604  C     0.77633   0.38011   0.57029   0.00000  Uiso   1.00
H1605  H     0.79426   0.36817   0.53636   0.00000  Uiso   1.00
H1606  H     0.74006   0.34670   0.58368   0.00000  Uiso   1.00
C1607  C     0.82668   0.38803   0.59615   0.00000  Uiso   1.00
H1608  H     0.83459   0.35018   0.60236   0.00000  Uiso   1.00
H1609  H     0.87038   0.41091   0.57816   0.00000  Uiso   1.00
H1610  H     0.81361   0.40857   0.62716   0.00000  Uiso   1.00
O1611  O     0.91990   0.47454   0.91680   0.00000  Uiso   1.00
C1612  C     0.89404   0.42024   0.91497   0.00000  Uiso   1.00
H1613  H     0.86204   0.40382   0.94479   0.00000  Uiso   1.00
H1614  H     0.93105   0.40028   0.90961   0.00000  Uiso   1.00
C1615  C     0.86312   0.40358   0.87671   0.00000  Uiso   1.00
H1616  H     0.86318   0.36249   0.86773   0.00000  Uiso   1.00
H1617  H     0.81439   0.40467   0.88541   0.00000  Uiso   1.00
H1618  H     0.88705   0.42779   0.84875   0.00000  Uiso   1.00
O1619  O     0.89525   0.35600   0.78141   0.00000  Uiso   1.00
C1620  C     0.94525   0.33621   0.78536   0.00000  Uiso   1.00
H1621  H     0.97238   0.66122   0.75317   0.00000  Uiso   1.00
H1622  H     0.92805   0.63586   0.80589   0.00000  Uiso   1.00
C1623  C     0.98718   0.37393   0.80950   0.00000  Uiso   1.00
H1624  H     0.96746   0.36969   0.84410   0.00000  Uiso   1.00
H1625  H     0.69921   0.36383   0.80396   0.00000  Uiso   1.00
H1626  H     0.99241   0.41400   0.80022   0.00000  Uiso   1.00
O1627  O     0.76093   0.64743   0.73227   0.00000  Uiso   1.00
C1628  C     0.77193   0.64700   0.68703   0.00000  Uiso   1.00
H1629  H     0.81770   0.63879   0.67205   0.00000  Uiso   1.00
H1630  H     0.76876   0.35114   0.67677   0.00000  Uiso   1.00
C1631  C     0.72286   0.60552   0.67111   0.00000  Uiso   1.00
H1632  H     0.73024   0.60641   0.63554   0.00000  Uiso   1.00
H1633  H     0.72547   0.56697   0.68004   0.00000  Uiso   1.00
H1634  H     0.67650   0.61224   0.68546   0.00000  Uiso   1.00
O1635  O     0.98862   0.52038   0.80338   0.00000  Uiso   1.00
C1636  C     0.68216   0.57277   0.81106   0.00000  Uiso   1.00
H1637  H     0.67732   0.59891   0.78751   0.00000  Uiso   1.00
H1638  H     0.73108   0.57698   0.81091   0.00000  Uiso   1.00
C1639  C     0.99012   0.59026   0.85635   0.00000  Uiso   1.00
H1640  H     0.98473   0.55893   0.87845   0.00000  Uiso   1.00
H1641  H     0.68870   0.62535   0.86623   0.00000  Uiso   1.00
H1642  H     0.94580   0.60033   0.85816   0.00000  Uiso   1.00
O1643  O     0.98633   0.44101   0.72419   0.00000  Uiso   1.00
C1644  C     0.68126   0.43013   0.68201   0.00000  Uiso   1.00
H1645  H     0.72580   0.42065   0.68139   0.00000  Uiso   1.00
H1646  H     0.68787   0.46310   0.66104   0.00000  Uiso   1.00
C1647  C     0.97285   0.38346   0.66483   0.00000  Uiso   1.00
H1648  H     0.95543   0.35324   0.68908   0.00000  Uiso   1.00
H1649  H     0.93311   0.39477   0.65655   0.00000  Uiso   1.00
H1650  H     0.99888   0.36650   0.63619   0.00000  Uiso   1.00
O1651  O     0.12815   0.90476   0.74686   0.00000  Uiso   1.00
O1652  O     0.20518   0.76191   0.75314   0.00000  Uiso   1.00
O1653  O     0.22829   0.91420   0.75503   0.00000  Uiso   1.00
O1654  O     0.10504   0.75247   0.74498   0.00000  Uiso   1.00
C1655  C     0.18096   0.93333   0.75332   0.00000  Uiso   1.00
C1656  C     0.15170   0.73363   0.74878   0.00000  Uiso   1.00
O1657  O     0.08851   0.82597   0.80855   0.00000  Uiso   1.00
O1658  O     0.24482   0.84070   0.69146   0.00000  Uiso   1.00
O1659  O     0.18866   0.83540   0.81671   0.00000  Uiso   1.00
O1660  O     0.14468   0.83126   0.68329   0.00000  Uiso   1.00
C1661  C     0.12943   0.82999   0.83288   0.00000  Uiso   1.00
C1662  C     0.20397   0.83919   0.66734   0.00000  Uiso   1.00
Cu1663 Cu    0.10737   0.82775   0.74517   0.00000  Uiso   1.00
Cu1664 Cu    0.22596   0.83892   0.75484   0.00000  Uiso   1.00
C1665  C     0.10737   0.81989   0.87959   0.00000  Uiso   1.00
C1666  C     0.22434   0.84511   0.61995   0.00000  Uiso   1.00
C1667  C     0.04095   0.75949   0.93223   0.00000  Uiso   1.00
C1668  C     0.30632   0.86061   0.55606   0.00000  Uiso   1.00
C1669  C     0.05448   0.78191   0.89222   0.00000  Uiso   1.00
C1670  C     0.28673   0.85559   0.60079   0.00000  Uiso   1.00
C1671  C     0.14474   0.83894   0.90956   0.00000  Uiso   1.00
C1672  C     0.18107   0.84100   0.59359   0.00000  Uiso   1.00
C1673  C     0.13087   0.81660   0.95080   0.00000  Uiso   1.00
C1674  C     0.19905   0.83398   0.54825   0.00000  Uiso   1.00
C1675  C     0.07504   0.78115   0.96373   0.00000  Uiso   1.00
C1676  C     0.26275   0.84784   0.52909   0.00000  Uiso   1.00
C1677  C     0.17429   0.82400   0.97721   0.00000  Uiso   1.00
C1678  C     0.15556   0.81463   0.52137   0.00000  Uiso   1.00
C1679  C     0.09715   0.78080   0.53537   0.00000  Uiso   1.00
C1680  C     0.23653   0.82775   0.95844   0.00000  Uiso   1.00
C1681  C     0.05598   0.76534   0.50663   0.00000  Uiso   1.00
C1682  C     0.28092   0.84655   0.98342   0.00000  Uiso   1.00
H1683  H     0.32069   0.86077   0.62061   0.00000  Uiso   1.00
H1684  H     0.02790   0.76566   0.86886   0.00000  Uiso   1.00
C1685  C     0.18649   0.98993   0.75926   0.00000  Uiso   1.00
C1686  C     0.14506   0.67773   0.74625   0.00000  Uiso   1.00
N1687  N     0.31506   0.84735   0.76212   0.00000  Uiso   1.00
N1688  N     0.01827   0.81932   0.73788   0.00000  Uiso   1.00
O1689  O     0.32671   0.74570   0.52132   0.00000  Uiso   1.00
C1690  C     0.31371   0.69669   0.53908   0.00000  Uiso   1.00
H1691  H     0.30335   0.70183   0.57449   0.00000  Uiso   1.00
H1692  H     0.01848   0.67644   0.52918   0.00000  Uiso   1.00
C1693  C     0.25649   0.99587   0.52571   0.00000  Uiso   1.00
H1694  H     0.26763   0.97667   0.99388   0.00000  Uiso   1.00
H1695  H     0.23411   0.96551   0.54952   0.00000  Uiso   1.00
H1696  H     0.22377   0.68579   0.52277   0.00000  Uiso   1.00
O1697  O     0.00805   0.86346   0.96262   0.00000  Uiso   1.00
C1698  C     0.02042   0.91780   0.96101   0.00000  Uiso   1.00
H1699  H     0.01339   0.93559   0.99378   0.00000  Uiso   1.00
H1700  H     0.32339   0.92995   0.94302   0.00000  Uiso   1.00
C1701  C     0.08691   0.93894   0.93969   0.00000  Uiso   1.00
H1702  H     0.09590   0.92415   0.90582   0.00000  Uiso   1.00
H1703  H     0.09725   0.98164   0.93965   0.00000  Uiso   1.00
H1704  H     0.11743   0.92787   0.95818   0.00000  Uiso   1.00
O1705  O     0.12249   0.84586   0.61275   0.00000  Uiso   1.00
H1706  H     0.10478   0.85876   0.59143   0.00000  Uiso   1.00
O1707  O     0.19319   0.88014   0.89812   0.00000  Uiso   1.00
H1708  H     0.20500   0.89845   0.92445   0.00000  Uiso   1.00
O1709  O     0.00285   0.71118   0.93634   0.00000  Uiso   1.00
H1710  H     0.02021   0.69082   0.95285   0.00000  Uiso   1.00
O1711  O     0.03477   0.87518   0.53852   0.00000  Uiso   1.00
H1712  H     0.05465   0.89853   0.55976   0.00000  Uiso   1.00
O1713  O     0.08349   0.75743   0.57460   0.00000  Uiso   1.00
C1714  C     0.10966   0.71345   0.57029   0.00000  Uiso   1.00
H1715  H     0.12759   0.70150   0.53636   0.00000  Uiso   1.00
H1716  H     0.07339   0.68004   0.58368   0.00000  Uiso   1.00
C1717  C     0.16001   0.72136   0.59615   0.00000  Uiso   1.00
H1718  H     0.16792   0.68351   0.60236   0.00000  Uiso   1.00
H1719  H     0.20372   0.74424   0.57816   0.00000  Uiso   1.00
H1720  H     0.14695   0.74190   0.62716   0.00000  Uiso   1.00
O1721  O     0.25324   0.80788   0.91680   0.00000  Uiso   1.00
C1722  C     0.22737   0.75357   0.91497   0.00000  Uiso   1.00
H1723  H     0.19537   0.73716   0.94479   0.00000  Uiso   1.00
H1724  H     0.26438   0.73361   0.90961   0.00000  Uiso   1.00
C1725  C     0.19646   0.73692   0.87671   0.00000  Uiso   1.00
H1726  H     0.19652   0.69583   0.86773   0.00000  Uiso   1.00
H1727  H     0.14772   0.73800   0.88541   0.00000  Uiso   1.00
H1728  H     0.22038   0.76112   0.84875   0.00000  Uiso   1.00
O1729  O     0.22859   0.68934   0.78141   0.00000  Uiso   1.00
C1730  C     0.27858   0.66954   0.78536   0.00000  Uiso   1.00
H1731  H     0.30571   0.99455   0.75317   0.00000  Uiso   1.00
H1732  H     0.26138   0.96919   0.80589   0.00000  Uiso   1.00
C1733  C     0.32051   0.70727   0.80950   0.00000  Uiso   1.00
H1734  H     0.30079   0.70303   0.84410   0.00000  Uiso   1.00
H1735  H     0.03254   0.69717   0.80396   0.00000  Uiso   1.00
H1736  H     0.32574   0.74733   0.80022   0.00000  Uiso   1.00
O1737  O     0.09426   0.98077   0.73227   0.00000  Uiso   1.00
C1738  C     0.10527   0.98033   0.68703   0.00000  Uiso   1.00
H1739  H     0.15104   0.97212   0.67205   0.00000  Uiso   1.00
H1740  H     0.10210   0.68447   0.67677   0.00000  Uiso   1.00
C1741  C     0.05620   0.93885   0.67111   0.00000  Uiso   1.00
H1742  H     0.06357   0.93974   0.63554   0.00000  Uiso   1.00
H1743  H     0.05880   0.90031   0.68004   0.00000  Uiso   1.00
H1744  H     0.00983   0.94557   0.68546   0.00000  Uiso   1.00
O1745  O     0.32195   0.85371   0.80338   0.00000  Uiso   1.00
C1746  C     0.01550   0.90611   0.81106   0.00000  Uiso   1.00
H1747  H     0.01065   0.93224   0.78751   0.00000  Uiso   1.00
H1748  H     0.06441   0.91031   0.81091   0.00000  Uiso   1.00
C1749  C     0.32346   0.92360   0.85635   0.00000  Uiso   1.00
H1750  H     0.31807   0.89226   0.87845   0.00000  Uiso   1.00
H1751  H     0.02203   0.95868   0.86623   0.00000  Uiso   1.00
H1752  H     0.27914   0.93366   0.85816   0.00000  Uiso   1.00
O1753  O     0.31966   0.77434   0.72419   0.00000  Uiso   1.00
C1754  C     0.01459   0.76346   0.68201   0.00000  Uiso   1.00
H1755  H     0.05914   0.75398   0.68139   0.00000  Uiso   1.00
H1756  H     0.02120   0.79643   0.66104   0.00000  Uiso   1.00
C1757  C     0.30619   0.71680   0.66483   0.00000  Uiso   1.00
H1758  H     0.28877   0.68658   0.68908   0.00000  Uiso   1.00
H1759  H     0.26645   0.72811   0.65655   0.00000  Uiso   1.00
H1760  H     0.33221   0.69983   0.63619   0.00000  Uiso   1.00
O1761  O     0.46148   0.90476   0.74686   0.00000  Uiso   1.00
O1762  O     0.53852   0.76191   0.75314   0.00000  Uiso   1.00
O1763  O     0.56163   0.91420   0.75503   0.00000  Uiso   1.00
O1764  O     0.43837   0.75247   0.74498   0.00000  Uiso   1.00
C1765  C     0.51429   0.93333   0.75332   0.00000  Uiso   1.00
C1766  C     0.48503   0.73363   0.74878   0.00000  Uiso   1.00
O1767  O     0.42185   0.82597   0.80855   0.00000  Uiso   1.00
O1768  O     0.57815   0.84070   0.69146   0.00000  Uiso   1.00
O1769  O     0.52199   0.83540   0.81671   0.00000  Uiso   1.00
O1770  O     0.47801   0.83126   0.68329   0.00000  Uiso   1.00
C1771  C     0.46276   0.82999   0.83288   0.00000  Uiso   1.00
C1772  C     0.53730   0.83919   0.66734   0.00000  Uiso   1.00
Cu1773 Cu    0.44071   0.82775   0.74517   0.00000  Uiso   1.00
Cu1774 Cu    0.55929   0.83892   0.75484   0.00000  Uiso   1.00
C1775  C     0.44071   0.81989   0.87959   0.00000  Uiso   1.00
C1776  C     0.55767   0.84511   0.61995   0.00000  Uiso   1.00
C1777  C     0.37429   0.75949   0.93223   0.00000  Uiso   1.00
C1778  C     0.63966   0.86061   0.55606   0.00000  Uiso   1.00
C1779  C     0.38781   0.78191   0.89222   0.00000  Uiso   1.00
C1780  C     0.62007   0.85559   0.60079   0.00000  Uiso   1.00
C1781  C     0.47807   0.83894   0.90956   0.00000  Uiso   1.00
C1782  C     0.51440   0.84100   0.59359   0.00000  Uiso   1.00
C1783  C     0.46421   0.81660   0.95080   0.00000  Uiso   1.00
C1784  C     0.53239   0.83398   0.54825   0.00000  Uiso   1.00
C1785  C     0.40837   0.78115   0.96373   0.00000  Uiso   1.00
C1786  C     0.59608   0.84784   0.52909   0.00000  Uiso   1.00
C1787  C     0.50763   0.82400   0.97721   0.00000  Uiso   1.00
C1788  C     0.48889   0.81463   0.52137   0.00000  Uiso   1.00
C1789  C     0.43048   0.78080   0.53537   0.00000  Uiso   1.00
C1790  C     0.56986   0.82775   0.95844   0.00000  Uiso   1.00
C1791  C     0.38931   0.76534   0.50663   0.00000  Uiso   1.00
C1792  C     0.61426   0.84655   0.98342   0.00000  Uiso   1.00
H1793  H     0.65403   0.86077   0.62061   0.00000  Uiso   1.00
H1794  H     0.36124   0.76566   0.86886   0.00000  Uiso   1.00
C1795  C     0.51982   0.98993   0.75926   0.00000  Uiso   1.00
C1796  C     0.47839   0.67773   0.74625   0.00000  Uiso   1.00
N1797  N     0.64839   0.84735   0.76212   0.00000  Uiso   1.00
N1798  N     0.35161   0.81932   0.73788   0.00000  Uiso   1.00
O1799  O     0.66004   0.74570   0.52132   0.00000  Uiso   1.00
C1800  C     0.64704   0.69669   0.53908   0.00000  Uiso   1.00
H1801  H     0.63668   0.70183   0.57449   0.00000  Uiso   1.00
H1802  H     0.35181   0.67644   0.52918   0.00000  Uiso   1.00
C1803  C     0.58982   0.99587   0.52571   0.00000  Uiso   1.00
H1804  H     0.60096   0.97667   0.99388   0.00000  Uiso   1.00
H1805  H     0.56745   0.96551   0.54952   0.00000  Uiso   1.00
H1806  H     0.55710   0.68579   0.52277   0.00000  Uiso   1.00
O1807  O     0.34139   0.86346   0.96262   0.00000  Uiso   1.00
C1808  C     0.35375   0.91780   0.96101   0.00000  Uiso   1.00
H1809  H     0.34672   0.93559   0.99378   0.00000  Uiso   1.00
H1810  H     0.65673   0.92995   0.94302   0.00000  Uiso   1.00
C1811  C     0.42025   0.93894   0.93969   0.00000  Uiso   1.00
H1812  H     0.42923   0.92415   0.90582   0.00000  Uiso   1.00
H1813  H     0.43058   0.98164   0.93965   0.00000  Uiso   1.00
H1814  H     0.45076   0.92787   0.95818   0.00000  Uiso   1.00
O1815  O     0.45582   0.84586   0.61275   0.00000  Uiso   1.00
H1816  H     0.43811   0.85876   0.59143   0.00000  Uiso   1.00
O1817  O     0.52652   0.88014   0.89812   0.00000  Uiso   1.00
H1818  H     0.53834   0.89845   0.92445   0.00000  Uiso   1.00
O1819  O     0.33619   0.71118   0.93634   0.00000  Uiso   1.00
H1820  H     0.35354   0.69082   0.95285   0.00000  Uiso   1.00
O1821  O     0.36810   0.87518   0.53852   0.00000  Uiso   1.00
H1822  H     0.38798   0.89853   0.55976   0.00000  Uiso   1.00
O1823  O     0.41683   0.75743   0.57460   0.00000  Uiso   1.00
C1824  C     0.44300   0.71345   0.57029   0.00000  Uiso   1.00
H1825  H     0.46092   0.70150   0.53636   0.00000  Uiso   1.00
H1826  H     0.40672   0.68004   0.58368   0.00000  Uiso   1.00
C1827  C     0.49334   0.72136   0.59615   0.00000  Uiso   1.00
H1828  H     0.50125   0.68351   0.60236   0.00000  Uiso   1.00
H1829  H     0.53705   0.74424   0.57816   0.00000  Uiso   1.00
H1830  H     0.48028   0.74190   0.62716   0.00000  Uiso   1.00
O1831  O     0.58657   0.80788   0.91680   0.00000  Uiso   1.00
C1832  C     0.56070   0.75357   0.91497   0.00000  Uiso   1.00
H1833  H     0.52871   0.73716   0.94479   0.00000  Uiso   1.00
H1834  H     0.59771   0.73361   0.90961   0.00000  Uiso   1.00
C1835  C     0.52979   0.73692   0.87671   0.00000  Uiso   1.00
H1836  H     0.52985   0.69583   0.86773   0.00000  Uiso   1.00
H1837  H     0.48106   0.73800   0.88541   0.00000  Uiso   1.00
H1838  H     0.55371   0.76112   0.84875   0.00000  Uiso   1.00
O1839  O     0.56192   0.68934   0.78141   0.00000  Uiso   1.00
C1840  C     0.61191   0.66954   0.78536   0.00000  Uiso   1.00
H1841  H     0.63905   0.99455   0.75317   0.00000  Uiso   1.00
H1842  H     0.59471   0.96919   0.80589   0.00000  Uiso   1.00
C1843  C     0.65385   0.70727   0.80950   0.00000  Uiso   1.00
H1844  H     0.63413   0.70303   0.84410   0.00000  Uiso   1.00
H1845  H     0.36588   0.69717   0.80396   0.00000  Uiso   1.00
H1846  H     0.65907   0.74733   0.80022   0.00000  Uiso   1.00
O1847  O     0.42759   0.98077   0.73227   0.00000  Uiso   1.00
C1848  C     0.43860   0.98033   0.68703   0.00000  Uiso   1.00
H1849  H     0.48437   0.97212   0.67205   0.00000  Uiso   1.00
H1850  H     0.43543   0.68447   0.67677   0.00000  Uiso   1.00
C1851  C     0.38953   0.93885   0.67111   0.00000  Uiso   1.00
H1852  H     0.39691   0.93974   0.63554   0.00000  Uiso   1.00
H1853  H     0.39213   0.90031   0.68004   0.00000  Uiso   1.00
H1854  H     0.34317   0.94557   0.68546   0.00000  Uiso   1.00
O1855  O     0.65529   0.85371   0.80338   0.00000  Uiso   1.00
C1856  C     0.34883   0.90611   0.81106   0.00000  Uiso   1.00
H1857  H     0.34399   0.93224   0.78751   0.00000  Uiso   1.00
H1858  H     0.39774   0.91031   0.81091   0.00000  Uiso   1.00
C1859  C     0.65679   0.92360   0.85635   0.00000  Uiso   1.00
H1860  H     0.65140   0.89226   0.87845   0.00000  Uiso   1.00
H1861  H     0.35537   0.95868   0.86623   0.00000  Uiso   1.00
H1862  H     0.61247   0.93366   0.85816   0.00000  Uiso   1.00
O1863  O     0.65299   0.77434   0.72419   0.00000  Uiso   1.00
C1864  C     0.34792   0.76346   0.68201   0.00000  Uiso   1.00
H1865  H     0.39247   0.75398   0.68139   0.00000  Uiso   1.00
H1866  H     0.35454   0.79643   0.66104   0.00000  Uiso   1.00
C1867  C     0.63952   0.71680   0.66483   0.00000  Uiso   1.00
H1868  H     0.62210   0.68658   0.68908   0.00000  Uiso   1.00
H1869  H     0.59978   0.72811   0.65655   0.00000  Uiso   1.00
H1870  H     0.66555   0.69983   0.63619   0.00000  Uiso   1.00
O1871  O     0.79482   0.90476   0.74686   0.00000  Uiso   1.00
O1872  O     0.87185   0.76191   0.75314   0.00000  Uiso   1.00
O1873  O     0.89496   0.91420   0.75503   0.00000  Uiso   1.00
O1874  O     0.77171   0.75247   0.74498   0.00000  Uiso   1.00
C1875  C     0.84763   0.93333   0.75332   0.00000  Uiso   1.00
C1876  C     0.81836   0.73363   0.74878   0.00000  Uiso   1.00
O1877  O     0.75518   0.82597   0.80855   0.00000  Uiso   1.00
O1878  O     0.91149   0.84070   0.69146   0.00000  Uiso   1.00
O1879  O     0.85532   0.83540   0.81671   0.00000  Uiso   1.00
O1880  O     0.81134   0.83126   0.68329   0.00000  Uiso   1.00
C1881  C     0.79610   0.82999   0.83288   0.00000  Uiso   1.00
C1882  C     0.87063   0.83919   0.66734   0.00000  Uiso   1.00
Cu1883 Cu    0.77404   0.82775   0.74517   0.00000  Uiso   1.00
Cu1884 Cu    0.89263   0.83892   0.75484   0.00000  Uiso   1.00
C1885  C     0.77404   0.81989   0.87959   0.00000  Uiso   1.00
C1886  C     0.89100   0.84511   0.61995   0.00000  Uiso   1.00
C1887  C     0.70762   0.75949   0.93223   0.00000  Uiso   1.00
C1888  C     0.97299   0.86061   0.55606   0.00000  Uiso   1.00
C1889  C     0.72114   0.78191   0.89222   0.00000  Uiso   1.00
C1890  C     0.95340   0.85559   0.60079   0.00000  Uiso   1.00
C1891  C     0.81140   0.83894   0.90956   0.00000  Uiso   1.00
C1892  C     0.84774   0.84100   0.59359   0.00000  Uiso   1.00
C1893  C     0.79754   0.81660   0.95080   0.00000  Uiso   1.00
C1894  C     0.86572   0.83398   0.54825   0.00000  Uiso   1.00
C1895  C     0.74171   0.78115   0.96373   0.00000  Uiso   1.00
C1896  C     0.92942   0.84784   0.52909   0.00000  Uiso   1.00
C1897  C     0.84096   0.82400   0.97721   0.00000  Uiso   1.00
C1898  C     0.82222   0.81463   0.52137   0.00000  Uiso   1.00
C1899  C     0.76382   0.78080   0.53537   0.00000  Uiso   1.00
C1900  C     0.90320   0.82775   0.95844   0.00000  Uiso   1.00
C1901  C     0.72265   0.76534   0.50663   0.00000  Uiso   1.00
C1902  C     0.94759   0.84655   0.98342   0.00000  Uiso   1.00
H1903  H     0.98736   0.86077   0.62061   0.00000  Uiso   1.00
H1904  H     0.69457   0.76566   0.86886   0.00000  Uiso   1.00
C1905  C     0.85315   0.98993   0.75926   0.00000  Uiso   1.00
C1906  C     0.81172   0.67773   0.74625   0.00000  Uiso   1.00
N1907  N     0.98173   0.84735   0.76212   0.00000  Uiso   1.00
N1908  N     0.68494   0.81932   0.73788   0.00000  Uiso   1.00
O1909  O     0.99337   0.74570   0.52132   0.00000  Uiso   1.00
C1910  C     0.98037   0.69669   0.53908   0.00000  Uiso   1.00
H1911  H     0.97002   0.70183   0.57449   0.00000  Uiso   1.00
H1912  H     0.68515   0.67644   0.52918   0.00000  Uiso   1.00
C1913  C     0.92315   0.99587   0.52571   0.00000  Uiso   1.00
H1914  H     0.93430   0.97667   0.99388   0.00000  Uiso   1.00
H1915  H     0.90078   0.96551   0.54952   0.00000  Uiso   1.00
H1916  H     0.89043   0.68579   0.52277   0.00000  Uiso   1.00
O1917  O     0.67472   0.86346   0.96262   0.00000  Uiso   1.00
C1918  C     0.68708   0.91780   0.96101   0.00000  Uiso   1.00
H1919  H     0.68006   0.93559   0.99378   0.00000  Uiso   1.00
H1920  H     0.99006   0.92995   0.94302   0.00000  Uiso   1.00
C1921  C     0.75358   0.93894   0.93969   0.00000  Uiso   1.00
H1922  H     0.76257   0.92415   0.90582   0.00000  Uiso   1.00
H1923  H     0.76391   0.98164   0.93965   0.00000  Uiso   1.00
H1924  H     0.78409   0.92787   0.95818   0.00000  Uiso   1.00
O1925  O     0.78915   0.84586   0.61275   0.00000  Uiso   1.00
H1926  H     0.77144   0.85876   0.59143   0.00000  Uiso   1.00
O1927  O     0.85985   0.88014   0.89812   0.00000  Uiso   1.00
H1928  H     0.87167   0.89845   0.92445   0.00000  Uiso   1.00
O1929  O     0.66952   0.71118   0.93634   0.00000  Uiso   1.00
H1930  H     0.68688   0.69082   0.95285   0.00000  Uiso   1.00
O1931  O     0.70143   0.87518   0.53852   0.00000  Uiso   1.00
H1932  H     0.72131   0.89853   0.55976   0.00000  Uiso   1.00
O1933  O     0.75016   0.75743   0.57460   0.00000  Uiso   1.00
C1934  C     0.77633   0.71345   0.57029   0.00000  Uiso   1.00
H1935  H     0.79426   0.70150   0.53636   0.00000  Uiso   1.00
H1936  H     0.74006   0.68004   0.58368   0.00000  Uiso   1.00
C1937  C     0.82668   0.72136   0.59615   0.00000  Uiso   1.00
H1938  H     0.83459   0.68351   0.60236   0.00000  Uiso   1.00
H1939  H     0.87038   0.74424   0.57816   0.00000  Uiso   1.00
H1940  H     0.81361   0.74190   0.62716   0.00000  Uiso   1.00
O1941  O     0.91990   0.80788   0.91680   0.00000  Uiso   1.00
C1942  C     0.89404   0.75357   0.91497   0.00000  Uiso   1.00
H1943  H     0.86204   0.73716   0.94479   0.00000  Uiso   1.00
H1944  H     0.93105   0.73361   0.90961   0.00000  Uiso   1.00
C1945  C     0.86312   0.73692   0.87671   0.00000  Uiso   1.00
H1946  H     0.86318   0.69583   0.86773   0.00000  Uiso   1.00
H1947  H     0.81439   0.73800   0.88541   0.00000  Uiso   1.00
H1948  H     0.88705   0.76112   0.84875   0.00000  Uiso   1.00
O1949  O     0.89525   0.68934   0.78141   0.00000  Uiso   1.00
C1950  C     0.94525   0.66954   0.78536   0.00000  Uiso   1.00
H1951  H     0.97238   0.99455   0.75317   0.00000  Uiso   1.00
H1952  H     0.92805   0.96919   0.80589   0.00000  Uiso   1.00
C1953  C     0.98718   0.70727   0.80950   0.00000  Uiso   1.00
H1954  H     0.96746   0.70303   0.84410   0.00000  Uiso   1.00
H1955  H     0.69921   0.69717   0.80396   0.00000  Uiso   1.00
H1956  H     0.99241   0.74733   0.80022   0.00000  Uiso   1.00
O1957  O     0.76093   0.98077   0.73227   0.00000  Uiso   1.00
C1958  C     0.77193   0.98033   0.68703   0.00000  Uiso   1.00
H1959  H     0.81770   0.97212   0.67205   0.00000  Uiso   1.00
H1960  H     0.76876   0.68447   0.67677   0.00000  Uiso   1.00
C1961  C     0.72286   0.93885   0.67111   0.00000  Uiso   1.00
H1962  H     0.73024   0.93974   0.63554   0.00000  Uiso   1.00
H1963  H     0.72547   0.90031   0.68004   0.00000  Uiso   1.00
H1964  H     0.67650   0.94557   0.68546   0.00000  Uiso   1.00
O1965  O     0.98862   0.85371   0.80338   0.00000  Uiso   1.00
C1966  C     0.68216   0.90611   0.81106   0.00000  Uiso   1.00
H1967  H     0.67732   0.93224   0.78751   0.00000  Uiso   1.00
H1968  H     0.73108   0.91031   0.81091   0.00000  Uiso   1.00
C1969  C     0.99012   0.92360   0.85635   0.00000  Uiso   1.00
H1970  H     0.98473   0.89226   0.87845   0.00000  Uiso   1.00
H1971  H     0.68870   0.95868   0.86623   0.00000  Uiso   1.00
H1972  H     0.94580   0.93366   0.85816   0.00000  Uiso   1.00
O1973  O     0.98633   0.77434   0.72419   0.00000  Uiso   1.00
C1974  C     0.68126   0.76346   0.68201   0.00000  Uiso   1.00
H1975  H     0.72580   0.75398   0.68139   0.00000  Uiso   1.00
H1976  H     0.68787   0.79643   0.66104   0.00000  Uiso   1.00
C1977  C     0.97285   0.71680   0.66483   0.00000  Uiso   1.00
H1978  H     0.95543   0.68658   0.68908   0.00000  Uiso   1.00
H1979  H     0.93311   0.72811   0.65655   0.00000  Uiso   1.00
H1980  H     0.99888   0.69983   0.63619   0.00000  Uiso   1.00
loop_
_geom_bond_atom_site_label_1
_geom_bond_atom_site_label_2
_geom_bond_distance
_geom_bond_site_symmetry_2
_ccdc_geom_bond_type
O1     C5      1.315   .     A
O1     Cu13    1.997   .     S
O2     C6      1.306   .     A
O2     Cu14    1.997   .     S
O3     Cu14    1.998   .     S
O3     C5      1.315   .     A
O4     Cu13    1.998   .     S
O4     C6      1.315   .     A
C5     C35     1.485   .     S
C6     C36     1.461   .     S
O7     C11     1.320   .     A
O7     Cu13    1.972   .     S
O8     Cu14    1.972   .     S
O8     C12     1.325   .     A
O9     Cu14    1.970   .     S
O9     C11     1.319   .     A
O10    C12     1.314   .     A
O10    Cu13    1.970   .     S
C11    C15     1.489   .     S
C12    C16     1.490   .     S
Cu13   Cu14    2.742   .     S
Cu13   N38     2.060   .     S
Cu14   N37     2.060   .     S
C15    C19     1.390   .     A
C15    C21     1.402   .     A
C16    C20     1.397   .     A
C16    C22     1.411   .     A
C17    C19     1.396   .     A
C17    O59     1.374   .     S
C17    C25     1.406   .     A
C18    C26     1.418   .     A
C18    C20     1.405   .     A
C18    O171    1.377   .     S
C19    H34     1.062   .     S
C20    H33     1.081   .     S
C21    O57     1.374   .     S
C21    C23     1.430   .     A
C22    C24     1.421   .     A
C22    O55     1.378   .     S
C23    C27     1.406   .     A
C23    C25     1.401   .     A
C24    C26     1.425   .     A
C24    C28     1.429   .     A
C25    C1021   1.409   .     S
C26    C1022   1.423   1_554 S
C27    C30     1.403   .     A
C27    C1018   1.404   .     S
C28    C29     1.428   .     A
C28    C1017   1.404   1_554 S
C29    O63     1.385   .     S
C29    C31     1.422   .     A
C30    O71     1.393   .     S
C30    C32     1.400   .     A
C31    C1015   1.409   1_554 S
C31    O259    1.393   1_455 S
C32    C1016   1.423   .     S
C32    O157    1.383   .     S
C35    C366    1.362   .     S
C35    O409    1.408   .     S
C36    C695    1.362   1_545 S
C36    O747    1.387   1_545 S
N37    O95     1.348   .     S
N37    N148    1.331   .     S
N38    N257    1.331   1_455 S
N38    O323    1.342   1_455 S
O39    C40     1.411   .     S
O39    C141    1.393   .     S
C40    H41     1.104   .     S
C40    H152    1.108   .     S
C40    C703    1.530   1_545 S
H42    C260    1.108   1_455 S
C43    H45     1.111   .     S
C43    C370    1.530   .     S
C43    H1034   1.102   1_554 S
C43    H376    1.103   .     S
H44    C1033   1.102   .     S
H46    C703    1.103   1_545 S
O47    C48     1.414   .     S
O47    C252    1.383   1_455 S
C48    C51     1.518   .     S
C48    H49     1.104   .     S
C48    H270    1.108   1_455 S
H50    C158    1.108   .     S
C51    H52     1.109   .     S
C51    H53     1.108   .     S
C51    H54     1.108   .     S
O55    H56     0.985   .     S
O57    H58     0.990   .     S
O59    H60     0.986   .     S
O61    H62     0.990   .     S
O61    C238    1.377   1_455 S
O63    C64     1.424   .     S
C64    C67     1.523   .     S
C64    H66     1.108   .     S
C64    H65     1.117   .     S
C67    H68     1.109   .     S
C67    H70     1.105   .     S
C67    H69     1.106   .     S
O71    C72     1.432   .     S
C72    H74     1.080   .     S
C72    C75     1.522   .     S
C72    H73     1.117   .     S
C75    H76     1.110   .     S
C75    H77     1.096   .     S
C75    H78     1.109   .     S
O79    C80     1.402   .     S
O79    C695    1.408   1_545 S
C80    C83     1.502   .     S
C80    H741    1.111   1_545 S
C80    H742    1.101   1_545 S
H81    C410    1.111   .     S
H82    C410    1.101   .     S
C83    H84     1.100   .     S
C83    H86     1.107   .     S
C83    H195    1.107   .     S
H85    C303    1.107   1_455 S
O87    C88     1.407   .     S
O87    C366    1.387   .     S
C88    C91     1.519   .     S
C88    H89     1.116   .     S
C88    H420    1.102   .     S
H90    C748    1.102   1_545 S
C91    H93     1.109   .     S
C91    H92     1.110   .     S
C91    H94     1.110   .     S
O95    C206    1.412   .     S
C96    H98     1.097   .     S
C96    H97     1.107   .     S
C96    O315    1.412   1_455 S
C96    C319    1.511   1_455 S
C99    H100    1.107   .     S
C99    H102    1.098   .     S
C99    C206    1.511   .     S
C99    H211    1.112   .     S
H101   C319    1.112   1_455 S
O103   N148    1.342   .     S
O103   C214    1.397   .     S
C104   H106    1.112   .     S
C104   H105    1.103   .     S
C104   O323    1.397   1_455 S
C104   C327    1.520   1_455 S
C107   H108    1.108   .     S
C107   H109    1.112   .     S
C107   H110    1.101   .     S
C107   C214    1.520   .     S
O111   C115    1.315   .     A
O111   Cu123   1.997   .     S
O112   C116    1.306   .     A
O112   Cu124   1.997   .     S
O113   Cu124   1.998   .     S
O113   C115    1.315   .     A
O114   Cu123   1.998   .     S
O114   C116    1.315   .     A
C115   C145    1.485   .     S
C116   C146    1.461   .     S
O117   C121    1.320   .     A
O117   Cu123   1.972   .     S
O118   Cu124   1.972   .     S
O118   C122    1.325   .     A
O119   Cu124   1.970   .     S
O119   C121    1.319   .     A
O120   C122    1.314   .     A
O120   Cu123   1.970   .     S
C121   C125    1.489   .     S
C122   C126    1.490   .     S
Cu123  Cu124   2.742   .     S
Cu123  N148    2.060   .     S
Cu124  N147    2.060   .     S
C125   C129    1.390   .     A
C125   C131    1.402   .     A
C126   C130    1.397   .     A
C126   C132    1.411   .     A
C127   C129    1.396   .     A
C127   O169    1.374   .     S
C127   C135    1.406   .     A
C128   C136    1.418   .     A
C128   C130    1.405   .     A
C128   O281    1.377   .     S
C129   H144    1.062   .     S
C130   H143    1.081   .     S
C131   O167    1.374   .     S
C131   C133    1.430   .     A
C132   C134    1.421   .     A
C132   O165    1.378   .     S
C133   C137    1.406   .     A
C133   C135    1.401   .     A
C134   C136    1.425   .     A
C134   C138    1.429   .     A
C135   C1131   1.409   .     S
C136   C1132   1.423   1_554 S
C137   C140    1.403   .     A
C137   C1128   1.404   .     S
C138   C139    1.428   .     A
C138   C1127   1.404   1_554 S
C139   O173    1.385   .     S
C139   C141    1.422   .     A
C140   O181    1.393   .     S
C140   C142    1.400   .     A
C141   C1125   1.409   1_554 S
C142   C1126   1.423   .     S
C142   O267    1.383   .     S
C145   C476    1.362   .     S
C145   O519    1.408   .     S
C146   C805    1.362   1_545 S
C146   O857    1.387   1_545 S
N147   O205    1.348   .     S
N147   N258    1.331   .     S
O149   C150    1.411   .     S
O149   C251    1.393   .     S
C150   H151    1.104   .     S
C150   H262    1.108   .     S
C150   C813    1.530   1_545 S
C153   H155    1.111   .     S
C153   C480    1.530   .     S
C153   H1144   1.102   1_554 S
C153   H486    1.103   .     S
H154   C1143   1.102   .     S
H156   C813    1.103   1_545 S
O157   C158    1.414   .     S
C158   C161    1.518   .     S
C158   H159    1.104   .     S
H160   C268    1.108   .     S
C161   H162    1.109   .     S
C161   H163    1.108   .     S
C161   H164    1.108   .     S
O165   H166    0.985   .     S
O167   H168    0.990   .     S
O169   H170    0.986   .     S
O171   H172    0.990   .     S
O173   C174    1.424   .     S
C174   C177    1.523   .     S
C174   H176    1.108   .     S
C174   H175    1.117   .     S
C177   H178    1.109   .     S
C177   H180    1.105   .     S
C177   H179    1.106   .     S
O181   C182    1.432   .     S
C182   H184    1.080   .     S
C182   C185    1.522   .     S
C182   H183    1.117   .     S
C185   H186    1.110   .     S
C185   H187    1.096   .     S
C185   H188    1.109   .     S
O189   C190    1.402   .     S
O189   C805    1.408   1_545 S
C190   C193    1.502   .     S
C190   H851    1.111   1_545 S
C190   H852    1.101   1_545 S
H191   C520    1.111   .     S
H192   C520    1.101   .     S
C193   H194    1.100   .     S
C193   H196    1.107   .     S
C193   H305    1.107   .     S
O197   C198    1.407   .     S
O197   C476    1.387   .     S
C198   C201    1.519   .     S
C198   H199    1.116   .     S
C198   H530    1.102   .     S
H200   C858    1.102   1_545 S
C201   H203    1.109   .     S
C201   H202    1.110   .     S
C201   H204    1.110   .     S
O205   C316    1.412   .     S
C206   H208    1.097   .     S
C206   H207    1.107   .     S
C209   H210    1.107   .     S
C209   H212    1.098   .     S
C209   C316    1.511   .     S
C209   H321    1.112   .     S
O213   N258    1.342   .     S
O213   C324    1.397   .     S
C214   H216    1.112   .     S
C214   H215    1.103   .     S
C217   H218    1.108   .     S
C217   H219    1.112   .     S
C217   H220    1.101   .     S
C217   C324    1.520   .     S
O221   C225    1.315   .     A
O221   Cu233   1.997   .     S
O222   C226    1.306   .     A
O222   Cu234   1.997   .     S
O223   Cu234   1.998   .     S
O223   C225    1.315   .     A
O224   Cu233   1.998   .     S
O224   C226    1.315   .     A
C225   C255    1.485   .     S
C226   C256    1.461   .     S
O227   C231    1.320   .     A
O227   Cu233   1.972   .     S
O228   Cu234   1.972   .     S
O228   C232    1.325   .     A
O229   Cu234   1.970   .     S
O229   C231    1.319   .     A
O230   C232    1.314   .     A
O230   Cu233   1.970   .     S
C231   C235    1.489   .     S
C232   C236    1.490   .     S
Cu233  Cu234   2.742   .     S
Cu233  N258    2.060   .     S
Cu234  N257    2.060   .     S
C235   C239    1.390   .     A
C235   C241    1.402   .     A
C236   C240    1.397   .     A
C236   C242    1.411   .     A
C237   C239    1.396   .     A
C237   O279    1.374   .     S
C237   C245    1.406   .     A
C238   C246    1.418   .     A
C238   C240    1.405   .     A
C238   O61     1.377   1_655 S
C239   H254    1.062   .     S
C240   H253    1.081   .     S
C241   O277    1.374   .     S
C241   C243    1.430   .     A
C242   C244    1.421   .     A
C242   O275    1.378   .     S
C243   C247    1.406   .     A
C243   C245    1.401   .     A
C244   C246    1.425   .     A
C244   C248    1.429   .     A
C245   C1241   1.409   .     S
C246   C1242   1.423   1_554 S
C247   C250    1.403   .     A
C247   C1238   1.404   .     S
C248   C249    1.428   .     A
C248   C1237   1.404   1_554 S
C249   O283    1.385   .     S
C249   C251    1.422   .     A
C250   O291    1.393   .     S
C250   C252    1.400   .     A
C251   C1235   1.409   1_554 S
C252   C1236   1.423   .     S
C252   O47     1.383   1_655 S
C255   C586    1.362   .     S
C255   O629    1.408   .     S
C256   C915    1.362   1_545 S
C256   O967    1.387   1_545 S
N257   O315    1.348   .     S
N257   N38     1.331   1_655 S
O259   C260    1.411   .     S
O259   C31     1.393   1_655 S
C260   H261    1.104   .     S
C260   H42     1.108   1_655 S
C260   C923    1.530   1_545 S
C263   H265    1.111   .     S
C263   C590    1.530   .     S
C263   H1254   1.102   1_554 S
C263   H596    1.103   .     S
H264   C1253   1.102   .     S
H266   C923    1.103   1_545 S
O267   C268    1.414   .     S
C268   C271    1.518   .     S
C268   H269    1.104   .     S
H270   C48     1.108   1_655 S
C271   H272    1.109   .     S
C271   H273    1.108   .     S
C271   H274    1.108   .     S
O275   H276    0.985   .     S
O277   H278    0.990   .     S
O279   H280    0.986   .     S
O281   H282    0.990   .     S
O283   C284    1.424   .     S
C284   C287    1.523   .     S
C284   H286    1.108   .     S
C284   H285    1.117   .     S
C287   H288    1.109   .     S
C287   H290    1.105   .     S
C287   H289    1.106   .     S
O291   C292    1.432   .     S
C292   H294    1.080   .     S
C292   C295    1.522   .     S
C292   H293    1.117   .     S
C295   H296    1.110   .     S
C295   H297    1.096   .     S
C295   H298    1.109   .     S
O299   C300    1.402   .     S
O299   C915    1.408   1_545 S
C300   C303    1.502   .     S
C300   H961    1.111   1_545 S
C300   H962    1.101   1_545 S
H301   C630    1.111   .     S
H302   C630    1.101   .     S
C303   H304    1.100   .     S
C303   H306    1.107   .     S
C303   H85     1.107   1_655 S
O307   C308    1.407   .     S
O307   C586    1.387   .     S
C308   C311    1.519   .     S
C308   H309    1.116   .     S
C308   H640    1.102   .     S
H310   C968    1.102   1_545 S
C311   H313    1.109   .     S
C311   H312    1.110   .     S
C311   H314    1.110   .     S
O315   C96     1.412   1_655 S
C316   H318    1.097   .     S
C316   H317    1.107   .     S
C319   H320    1.107   .     S
C319   H322    1.098   .     S
C319   C96     1.511   1_655 S
C319   H101    1.112   1_655 S
O323   N38     1.342   1_655 S
O323   C104    1.397   1_655 S
C324   H326    1.112   .     S
C324   H325    1.103   .     S
C327   H328    1.108   .     S
C327   H329    1.112   .     S
C327   H330    1.101   .     S
C327   C104    1.520   1_655 S
O331   C335    1.315   .     A
O331   Cu343   1.997   .     S
O332   C336    1.306   .     A
O332   Cu344   1.997   .     S
O333   Cu344   1.998   .     S
O333   C335    1.315   .     A
O334   Cu343   1.998   .     S
O334   C336    1.315   .     A
C335   C365    1.485   .     S
C336   C366    1.461   .     S
O337   C341    1.320   .     A
O337   Cu343   1.972   .     S
O338   Cu344   1.972   .     S
O338   C342    1.325   .     A
O339   Cu344   1.970   .     S
O339   C341    1.319   .     A
O340   C342    1.314   .     A
O340   Cu343   1.970   .     S
C341   C345    1.489   .     S
C342   C346    1.490   .     S
Cu343  Cu344   2.742   .     S
Cu343  N368    2.060   .     S
Cu344  N367    2.060   .     S
C345   C349    1.390   .     A
C345   C351    1.402   .     A
C346   C350    1.397   .     A
C346   C352    1.411   .     A
C347   C349    1.396   .     A
C347   O389    1.374   .     S
C347   C355    1.406   .     A
C348   C356    1.418   .     A
C348   C350    1.405   .     A
C348   O501    1.377   .     S
C349   H364    1.062   .     S
C350   H363    1.081   .     S
C351   O387    1.374   .     S
C351   C353    1.430   .     A
C352   C354    1.421   .     A
C352   O385    1.378   .     S
C353   C357    1.406   .     A
C353   C355    1.401   .     A
C354   C356    1.425   .     A
C354   C358    1.429   .     A
C355   C1351   1.409   .     S
C356   C1352   1.423   1_554 S
C357   C360    1.403   .     A
C357   C1348   1.404   .     S
C358   C359    1.428   .     A
C358   C1347   1.404   1_554 S
C359   O393    1.385   .     S
C359   C361    1.422   .     A
C360   O401    1.393   .     S
C360   C362    1.400   .     A
C361   C1345   1.409   1_554 S
C361   O589    1.393   1_455 S
C362   C1346   1.423   .     S
C362   O487    1.383   .     S
C365   C696    1.362   .     S
C365   O739    1.408   .     S
N367   O425    1.348   .     S
N367   N478    1.331   .     S
N368   N587    1.331   1_455 S
N368   O653    1.342   1_455 S
O369   C370    1.411   .     S
O369   C471    1.393   .     S
C370   H371    1.104   .     S
C370   H482    1.108   .     S
H372   C590    1.108   1_455 S
C373   H375    1.111   .     S
C373   C700    1.530   .     S
C373   H1364   1.102   1_554 S
C373   H706    1.103   .     S
H374   C1363   1.102   .     S
O377   C378    1.414   .     S
O377   C582    1.383   1_455 S
C378   C381    1.518   .     S
C378   H379    1.104   .     S
C378   H600    1.108   1_455 S
H380   C488    1.108   .     S
C381   H382    1.109   .     S
C381   H383    1.108   .     S
C381   H384    1.108   .     S
O385   H386    0.985   .     S
O387   H388    0.990   .     S
O389   H390    0.986   .     S
O391   H392    0.990   .     S
O391   C568    1.377   1_455 S
O393   C394    1.424   .     S
C394   C397    1.523   .     S
C394   H396    1.108   .     S
C394   H395    1.117   .     S
C397   H398    1.109   .     S
C397   H400    1.105   .     S
C397   H399    1.106   .     S
O401   C402    1.432   .     S
C402   H404    1.080   .     S
C402   C405    1.522   .     S
C402   H403    1.117   .     S
C405   H406    1.110   .     S
C405   H407    1.096   .     S
C405   H408    1.109   .     S
O409   C410    1.402   .     S
C410   C413    1.502   .     S
H411   C740    1.111   .     S
H412   C740    1.101   .     S
C413   H414    1.100   .     S
C413   H416    1.107   .     S
C413   H525    1.107   .     S
H415   C633    1.107   1_455 S
O417   C418    1.407   .     S
O417   C696    1.387   .     S
C418   C421    1.519   .     S
C418   H419    1.116   .     S
C418   H750    1.102   .     S
C421   H423    1.109   .     S
C421   H422    1.110   .     S
C421   H424    1.110   .     S
O425   C536    1.412   .     S
C426   H428    1.097   .     S
C426   H427    1.107   .     S
C426   O645    1.412   1_455 S
C426   C649    1.511   1_455 S
C429   H430    1.107   .     S
C429   H432    1.098   .     S
C429   C536    1.511   .     S
C429   H541    1.112   .     S
H431   C649    1.112   1_455 S
O433   N478    1.342   .     S
O433   C544    1.397   .     S
C434   H436    1.112   .     S
C434   H435    1.103   .     S
C434   O653    1.397   1_455 S
C434   C657    1.520   1_455 S
C437   H438    1.108   .     S
C437   H439    1.112   .     S
C437   H440    1.101   .     S
C437   C544    1.520   .     S
O441   C445    1.315   .     A
O441   Cu453   1.997   .     S
O442   C446    1.306   .     A
O442   Cu454   1.997   .     S
O443   Cu454   1.998   .     S
O443   C445    1.315   .     A
O444   Cu453   1.998   .     S
O444   C446    1.315   .     A
C445   C475    1.485   .     S
C446   C476    1.461   .     S
O447   C451    1.320   .     A
O447   Cu453   1.972   .     S
O448   Cu454   1.972   .     S
O448   C452    1.325   .     A
O449   Cu454   1.970   .     S
O449   C451    1.319   .     A
O450   C452    1.314   .     A
O450   Cu453   1.970   .     S
C451   C455    1.489   .     S
C452   C456    1.490   .     S
Cu453  Cu454   2.742   .     S
Cu453  N478    2.060   .     S
Cu454  N477    2.060   .     S
C455   C459    1.390   .     A
C455   C461    1.402   .     A
C456   C460    1.397   .     A
C456   C462    1.411   .     A
C457   C459    1.396   .     A
C457   O499    1.374   .     S
C457   C465    1.406   .     A
C458   C466    1.418   .     A
C458   C460    1.405   .     A
C458   O611    1.377   .     S
C459   H474    1.062   .     S
C460   H473    1.081   .     S
C461   O497    1.374   .     S
C461   C463    1.430   .     A
C462   C464    1.421   .     A
C462   O495    1.378   .     S
C463   C467    1.406   .     A
C463   C465    1.401   .     A
C464   C466    1.425   .     A
C464   C468    1.429   .     A
C465   C1461   1.409   .     S
C466   C1462   1.423   1_554 S
C467   C470    1.403   .     A
C467   C1458   1.404   .     S
C468   C469    1.428   .     A
C468   C1457   1.404   1_554 S
C469   O503    1.385   .     S
C469   C471    1.422   .     A
C470   O511    1.393   .     S
C470   C472    1.400   .     A
C471   C1455   1.409   1_554 S
C472   C1456   1.423   .     S
C472   O597    1.383   .     S
C475   C806    1.362   .     S
C475   O849    1.408   .     S
N477   O535    1.348   .     S
N477   N588    1.331   .     S
O479   C480    1.411   .     S
O479   C581    1.393   .     S
C480   H481    1.104   .     S
C480   H592    1.108   .     S
C483   H485    1.111   .     S
C483   C810    1.530   .     S
C483   H1474   1.102   1_554 S
C483   H816    1.103   .     S
H484   C1473   1.102   .     S
O487   C488    1.414   .     S
C488   C491    1.518   .     S
C488   H489    1.104   .     S
H490   C598    1.108   .     S
C491   H492    1.109   .     S
C491   H493    1.108   .     S
C491   H494    1.108   .     S
O495   H496    0.985   .     S
O497   H498    0.990   .     S
O499   H500    0.986   .     S
O501   H502    0.990   .     S
O503   C504    1.424   .     S
C504   C507    1.523   .     S
C504   H506    1.108   .     S
C504   H505    1.117   .     S
C507   H508    1.109   .     S
C507   H510    1.105   .     S
C507   H509    1.106   .     S
O511   C512    1.432   .     S
C512   H514    1.080   .     S
C512   C515    1.522   .     S
C512   H513    1.117   .     S
C515   H516    1.110   .     S
C515   H517    1.096   .     S
C515   H518    1.109   .     S
O519   C520    1.402   .     S
C520   C523    1.502   .     S
H521   C850    1.111   .     S
H522   C850    1.101   .     S
C523   H524    1.100   .     S
C523   H526    1.107   .     S
C523   H635    1.107   .     S
O527   C528    1.407   .     S
O527   C806    1.387   .     S
C528   C531    1.519   .     S
C528   H529    1.116   .     S
C528   H860    1.102   .     S
C531   H533    1.109   .     S
C531   H532    1.110   .     S
C531   H534    1.110   .     S
O535   C646    1.412   .     S
C536   H538    1.097   .     S
C536   H537    1.107   .     S
C539   H540    1.107   .     S
C539   H542    1.098   .     S
C539   C646    1.511   .     S
C539   H651    1.112   .     S
O543   N588    1.342   .     S
O543   C654    1.397   .     S
C544   H546    1.112   .     S
C544   H545    1.103   .     S
C547   H548    1.108   .     S
C547   H549    1.112   .     S
C547   H550    1.101   .     S
C547   C654    1.520   .     S
O551   C555    1.315   .     A
O551   Cu563   1.997   .     S
O552   C556    1.306   .     A
O552   Cu564   1.997   .     S
O553   Cu564   1.998   .     S
O553   C555    1.315   .     A
O554   Cu563   1.998   .     S
O554   C556    1.315   .     A
C555   C585    1.485   .     S
C556   C586    1.461   .     S
O557   C561    1.320   .     A
O557   Cu563   1.972   .     S
O558   Cu564   1.972   .     S
O558   C562    1.325   .     A
O559   Cu564   1.970   .     S
O559   C561    1.319   .     A
O560   C562    1.314   .     A
O560   Cu563   1.970   .     S
C561   C565    1.489   .     S
C562   C566    1.490   .     S
Cu563  Cu564   2.742   .     S
Cu563  N588    2.060   .     S
Cu564  N587    2.060   .     S
C565   C569    1.390   .     A
C565   C571    1.402   .     A
C566   C570    1.397   .     A
C566   C572    1.411   .     A
C567   C569    1.396   .     A
C567   O609    1.374   .     S
C567   C575    1.406   .     A
C568   C576    1.418   .     A
C568   C570    1.405   .     A
C568   O391    1.377   1_655 S
C569   H584    1.062   .     S
C570   H583    1.081   .     S
C571   O607    1.374   .     S
C571   C573    1.430   .     A
C572   C574    1.421   .     A
C572   O605    1.378   .     S
C573   C577    1.406   .     A
C573   C575    1.401   .     A
C574   C576    1.425   .     A
C574   C578    1.429   .     A
C575   C1571   1.409   .     S
C576   C1572   1.423   1_554 S
C577   C580    1.403   .     A
C577   C1568   1.404   .     S
C578   C579    1.428   .     A
C578   C1567   1.404   1_554 S
C579   O613    1.385   .     S
C579   C581    1.422   .     A
C580   O621    1.393   .     S
C580   C582    1.400   .     A
C581   C1565   1.409   1_554 S
C582   C1566   1.423   .     S
C582   O377    1.383   1_655 S
C585   C916    1.362   .     S
C585   O959    1.408   .     S
N587   O645    1.348   .     S
N587   N368    1.331   1_655 S
O589   C590    1.411   .     S
O589   C361    1.393   1_655 S
C590   H591    1.104   .     S
C590   H372    1.108   1_655 S
C593   H595    1.111   .     S
C593   C920    1.530   .     S
C593   H1584   1.102   1_554 S
C593   H926    1.103   .     S
H594   C1583   1.102   .     S
O597   C598    1.414   .     S
C598   C601    1.518   .     S
C598   H599    1.104   .     S
H600   C378    1.108   1_655 S
C601   H602    1.109   .     S
C601   H603    1.108   .     S
C601   H604    1.108   .     S
O605   H606    0.985   .     S
O607   H608    0.990   .     S
O609   H610    0.986   .     S
O611   H612    0.990   .     S
O613   C614    1.424   .     S
C614   C617    1.523   .     S
C614   H616    1.108   .     S
C614   H615    1.117   .     S
C617   H618    1.109   .     S
C617   H620    1.105   .     S
C617   H619    1.106   .     S
O621   C622    1.432   .     S
C622   H624    1.080   .     S
C622   C625    1.522   .     S
C622   H623    1.117   .     S
C625   H626    1.110   .     S
C625   H627    1.096   .     S
C625   H628    1.109   .     S
O629   C630    1.402   .     S
C630   C633    1.502   .     S
H631   C960    1.111   .     S
H632   C960    1.101   .     S
C633   H634    1.100   .     S
C633   H636    1.107   .     S
C633   H415    1.107   1_655 S
O637   C638    1.407   .     S
O637   C916    1.387   .     S
C638   C641    1.519   .     S
C638   H639    1.116   .     S
C638   H970    1.102   .     S
C641   H643    1.109   .     S
C641   H642    1.110   .     S
C641   H644    1.110   .     S
O645   C426    1.412   1_655 S
C646   H648    1.097   .     S
C646   H647    1.107   .     S
C649   H650    1.107   .     S
C649   H652    1.098   .     S
C649   C426    1.511   1_655 S
C649   H431    1.112   1_655 S
O653   N368    1.342   1_655 S
O653   C434    1.397   1_655 S
C654   H656    1.112   .     S
C654   H655    1.103   .     S
C657   H658    1.108   .     S
C657   H659    1.112   .     S
C657   H660    1.101   .     S
C657   C434    1.520   1_655 S
O661   C665    1.315   .     A
O661   Cu673   1.997   .     S
O662   C666    1.306   .     A
O662   Cu674   1.997   .     S
O663   Cu674   1.998   .     S
O663   C665    1.315   .     A
O664   Cu673   1.998   .     S
O664   C666    1.315   .     A
C665   C695    1.485   .     S
C666   C696    1.461   .     S
O667   C671    1.320   .     A
O667   Cu673   1.972   .     S
O668   Cu674   1.972   .     S
O668   C672    1.325   .     A
O669   Cu674   1.970   .     S
O669   C671    1.319   .     A
O670   C672    1.314   .     A
O670   Cu673   1.970   .     S
C671   C675    1.489   .     S
C672   C676    1.490   .     S
Cu673  Cu674   2.742   .     S
Cu673  N698    2.060   .     S
Cu674  N697    2.060   .     S
C675   C679    1.390   .     A
C675   C681    1.402   .     A
C676   C680    1.397   .     A
C676   C682    1.411   .     A
C677   C679    1.396   .     A
C677   O719    1.374   .     S
C677   C685    1.406   .     A
C678   C686    1.418   .     A
C678   C680    1.405   .     A
C678   O831    1.377   .     S
C679   H694    1.062   .     S
C680   H693    1.081   .     S
C681   O717    1.374   .     S
C681   C683    1.430   .     A
C682   C684    1.421   .     A
C682   O715    1.378   .     S
C683   C687    1.406   .     A
C683   C685    1.401   .     A
C684   C686    1.425   .     A
C684   C688    1.429   .     A
C685   C1681   1.409   .     S
C686   C1682   1.423   1_554 S
C687   C690    1.403   .     A
C687   C1678   1.404   .     S
C688   C689    1.428   .     A
C688   C1677   1.404   1_554 S
C689   O723    1.385   .     S
C689   C691    1.422   .     A
C690   O731    1.393   .     S
C690   C692    1.400   .     A
C691   C1675   1.409   1_554 S
C691   O919    1.393   1_455 S
C692   C1676   1.423   .     S
C692   O817    1.383   .     S
C695   C36     1.362   1_565 S
C695   O79     1.408   1_565 S
N697   O755    1.348   .     S
N697   N808    1.331   .     S
N698   N917    1.331   1_455 S
N698   O983    1.342   1_455 S
O699   C700    1.411   .     S
O699   C801    1.393   .     S
C700   H701    1.104   .     S
C700   H812    1.108   .     S
H702   C920    1.108   1_455 S
C703   H705    1.111   .     S
C703   C40     1.530   1_565 S
C703   H1694   1.102   1_554 S
C703   H46     1.103   1_565 S
H704   C1693   1.102   .     S
O707   C708    1.414   .     S
O707   C912    1.383   1_455 S
C708   C711    1.518   .     S
C708   H709    1.104   .     S
C708   H930    1.108   1_455 S
H710   C818    1.108   .     S
C711   H712    1.109   .     S
C711   H713    1.108   .     S
C711   H714    1.108   .     S
O715   H716    0.985   .     S
O717   H718    0.990   .     S
O719   H720    0.986   .     S
O721   H722    0.990   .     S
O721   C898    1.377   1_455 S
O723   C724    1.424   .     S
C724   C727    1.523   .     S
C724   H726    1.108   .     S
C724   H725    1.117   .     S
C727   H728    1.109   .     S
C727   H730    1.105   .     S
C727   H729    1.106   .     S
O731   C732    1.432   .     S
C732   H734    1.080   .     S
C732   C735    1.522   .     S
C732   H733    1.117   .     S
C735   H736    1.110   .     S
C735   H737    1.096   .     S
C735   H738    1.109   .     S
O739   C740    1.402   .     S
C740   C743    1.502   .     S
H741   C80     1.111   1_565 S
H742   C80     1.101   1_565 S
C743   H744    1.100   .     S
C743   H746    1.107   .     S
C743   H855    1.107   .     S
H745   C963    1.107   1_455 S
O747   C748    1.407   .     S
O747   C36     1.387   1_565 S
C748   C751    1.519   .     S
C748   H749    1.116   .     S
C748   H90     1.102   1_565 S
C751   H753    1.109   .     S
C751   H752    1.110   .     S
C751   H754    1.110   .     S
O755   C866    1.412   .     S
C756   H758    1.097   .     S
C756   H757    1.107   .     S
C756   O975    1.412   1_455 S
C756   C979    1.511   1_455 S
C759   H760    1.107   .     S
C759   H762    1.098   .     S
C759   C866    1.511   .     S
C759   H871    1.112   .     S
H761   C979    1.112   1_455 S
O763   N808    1.342   .     S
O763   C874    1.397   .     S
C764   H766    1.112   .     S
C764   H765    1.103   .     S
C764   O983    1.397   1_455 S
C764   C987    1.520   1_455 S
C767   H768    1.108   .     S
C767   H769    1.112   .     S
C767   H770    1.101   .     S
C767   C874    1.520   .     S
O771   C775    1.315   .     A
O771   Cu783   1.997   .     S
O772   C776    1.306   .     A
O772   Cu784   1.997   .     S
O773   Cu784   1.998   .     S
O773   C775    1.315   .     A
O774   Cu783   1.998   .     S
O774   C776    1.315   .     A
C775   C805    1.485   .     S
C776   C806    1.461   .     S
O777   C781    1.320   .     A
O777   Cu783   1.972   .     S
O778   Cu784   1.972   .     S
O778   C782    1.325   .     A
O779   Cu784   1.970   .     S
O779   C781    1.319   .     A
O780   C782    1.314   .     A
O780   Cu783   1.970   .     S
C781   C785    1.489   .     S
C782   C786    1.490   .     S
Cu783  Cu784   2.742   .     S
Cu783  N808    2.060   .     S
Cu784  N807    2.060   .     S
C785   C789    1.390   .     A
C785   C791    1.402   .     A
C786   C790    1.397   .     A
C786   C792    1.411   .     A
C787   C789    1.396   .     A
C787   O829    1.374   .     S
C787   C795    1.406   .     A
C788   C796    1.418   .     A
C788   C790    1.405   .     A
C788   O941    1.377   .     S
C789   H804    1.062   .     S
C790   H803    1.081   .     S
C791   O827    1.374   .     S
C791   C793    1.430   .     A
C792   C794    1.421   .     A
C792   O825    1.378   .     S
C793   C797    1.406   .     A
C793   C795    1.401   .     A
C794   C796    1.425   .     A
C794   C798    1.429   .     A
C795   C1791   1.409   .     S
C796   C1792   1.423   1_554 S
C797   C800    1.403   .     A
C797   C1788   1.404   .     S
C798   C799    1.428   .     A
C798   C1787   1.404   1_554 S
C799   O833    1.385   .     S
C799   C801    1.422   .     A
C800   O841    1.393   .     S
C800   C802    1.400   .     A
C801   C1785   1.409   1_554 S
C802   C1786   1.423   .     S
C802   O927    1.383   .     S
C805   C146    1.362   1_565 S
C805   O189    1.408   1_565 S
N807   O865    1.348   .     S
N807   N918    1.331   .     S
O809   C810    1.411   .     S
O809   C911    1.393   .     S
C810   H811    1.104   .     S
C810   H922    1.108   .     S
C813   H815    1.111   .     S
C813   C150    1.530   1_565 S
C813   H1804   1.102   1_554 S
C813   H156    1.103   1_565 S
H814   C1803   1.102   .     S
O817   C818    1.414   .     S
C818   C821    1.518   .     S
C818   H819    1.104   .     S
H820   C928    1.108   .     S
C821   H822    1.109   .     S
C821   H823    1.108   .     S
C821   H824    1.108   .     S
O825   H826    0.985   .     S
O827   H828    0.990   .     S
O829   H830    0.986   .     S
O831   H832    0.990   .     S
O833   C834    1.424   .     S
C834   C837    1.523   .     S
C834   H836    1.108   .     S
C834   H835    1.117   .     S
C837   H838    1.109   .     S
C837   H840    1.105   .     S
C837   H839    1.106   .     S
O841   C842    1.432   .     S
C842   H844    1.080   .     S
C842   C845    1.522   .     S
C842   H843    1.117   .     S
C845   H846    1.110   .     S
C845   H847    1.096   .     S
C845   H848    1.109   .     S
O849   C850    1.402   .     S
C850   C853    1.502   .     S
H851   C190    1.111   1_565 S
H852   C190    1.101   1_565 S
C853   H854    1.100   .     S
C853   H856    1.107   .     S
C853   H965    1.107   .     S
O857   C858    1.407   .     S
O857   C146    1.387   1_565 S
C858   C861    1.519   .     S
C858   H859    1.116   .     S
C858   H200    1.102   1_565 S
C861   H863    1.109   .     S
C861   H862    1.110   .     S
C861   H864    1.110   .     S
O865   C976    1.412   .     S
C866   H868    1.097   .     S
C866   H867    1.107   .     S
C869   H870    1.107   .     S
C869   H872    1.098   .     S
C869   C976    1.511   .     S
C869   H981    1.112   .     S
O873   N918    1.342   .     S
O873   C984    1.397   .     S
C874   H876    1.112   .     S
C874   H875    1.103   .     S
C877   H878    1.108   .     S
C877   H879    1.112   .     S
C877   H880    1.101   .     S
C877   C984    1.520   .     S
O881   C885    1.315   .     A
O881   Cu893   1.997   .     S
O882   C886    1.306   .     A
O882   Cu894   1.997   .     S
O883   Cu894   1.998   .     S
O883   C885    1.315   .     A
O884   Cu893   1.998   .     S
O884   C886    1.315   .     A
C885   C915    1.485   .     S
C886   C916    1.461   .     S
O887   C891    1.320   .     A
O887   Cu893   1.972   .     S
O888   Cu894   1.972   .     S
O888   C892    1.325   .     A
O889   Cu894   1.970   .     S
O889   C891    1.319   .     A
O890   C892    1.314   .     A
O890   Cu893   1.970   .     S
C891   C895    1.489   .     S
C892   C896    1.490   .     S
Cu893  Cu894   2.742   .     S
Cu893  N918    2.060   .     S
Cu894  N917    2.060   .     S
C895   C899    1.390   .     A
C895   C901    1.402   .     A
C896   C900    1.397   .     A
C896   C902    1.411   .     A
C897   C899    1.396   .     A
C897   O939    1.374   .     S
C897   C905    1.406   .     A
C898   C906    1.418   .     A
C898   C900    1.405   .     A
C898   O721    1.377   1_655 S
C899   H914    1.062   .     S
C900   H913    1.081   .     S
C901   O937    1.374   .     S
C901   C903    1.430   .     A
C902   C904    1.421   .     A
C902   O935    1.378   .     S
C903   C907    1.406   .     A
C903   C905    1.401   .     A
C904   C906    1.425   .     A
C904   C908    1.429   .     A
C905   C1901   1.409   .     S
C906   C1902   1.423   1_554 S
C907   C910    1.403   .     A
C907   C1898   1.404   .     S
C908   C909    1.428   .     A
C908   C1897   1.404   1_554 S
C909   O943    1.385   .     S
C909   C911    1.422   .     A
C910   O951    1.393   .     S
C910   C912    1.400   .     A
C911   C1895   1.409   1_554 S
C912   C1896   1.423   .     S
C912   O707    1.383   1_655 S
C915   C256    1.362   1_565 S
C915   O299    1.408   1_565 S
N917   O975    1.348   .     S
N917   N698    1.331   1_655 S
O919   C920    1.411   .     S
O919   C691    1.393   1_655 S
C920   H921    1.104   .     S
C920   H702    1.108   1_655 S
C923   H925    1.111   .     S
C923   C260    1.530   1_565 S
C923   H1914   1.102   1_554 S
C923   H266    1.103   1_565 S
H924   C1913   1.102   .     S
O927   C928    1.414   .     S
C928   C931    1.518   .     S
C928   H929    1.104   .     S
H930   C708    1.108   1_655 S
C931   H932    1.109   .     S
C931   H933    1.108   .     S
C931   H934    1.108   .     S
O935   H936    0.985   .     S
O937   H938    0.990   .     S
O939   H940    0.986   .     S
O941   H942    0.990   .     S
O943   C944    1.424   .     S
C944   C947    1.523   .     S
C944   H946    1.108   .     S
C944   H945    1.117   .     S
C947   H948    1.109   .     S
C947   H950    1.105   .     S
C947   H949    1.106   .     S
O951   C952    1.432   .     S
C952   H954    1.080   .     S
C952   C955    1.522   .     S
C952   H953    1.117   .     S
C955   H956    1.110   .     S
C955   H957    1.096   .     S
C955   H958    1.109   .     S
O959   C960    1.402   .     S
C960   C963    1.502   .     S
H961   C300    1.111   1_565 S
H962   C300    1.101   1_565 S
C963   H964    1.100   .     S
C963   H966    1.107   .     S
C963   H745    1.107   1_655 S
O967   C968    1.407   .     S
O967   C256    1.387   1_565 S
C968   C971    1.519   .     S
C968   H969    1.116   .     S
C968   H310    1.102   1_565 S
C971   H973    1.109   .     S
C971   H972    1.110   .     S
C971   H974    1.110   .     S
O975   C756    1.412   1_655 S
C976   H978    1.097   .     S
C976   H977    1.107   .     S
C979   H980    1.107   .     S
C979   H982    1.098   .     S
C979   C756    1.511   1_655 S
C979   H761    1.112   1_655 S
O983   N698    1.342   1_655 S
O983   C764    1.397   1_655 S
C984   H986    1.112   .     S
C984   H985    1.103   .     S
C987   H988    1.108   .     S
C987   H989    1.112   .     S
C987   H990    1.101   .     S
C987   C764    1.520   1_655 S
O991   C995    1.315   .     A
O991   Cu1003  1.997   .     S
O992   C996    1.306   .     A
O992   Cu1004  1.997   .     S
O993   Cu1004  1.998   .     S
O993   C995    1.315   .     A
O994   Cu1003  1.998   .     S
O994   C996    1.315   .     A
C995   C1025   1.485   .     S
C996   C1026   1.461   .     S
O997   C1001   1.320   .     A
O997   Cu1003  1.972   .     S
O998   Cu1004  1.972   .     S
O998   C1002   1.325   .     A
O999   Cu1004  1.970   .     S
O999   C1001   1.319   .     A
O1000  C1002   1.314   .     A
O1000  Cu1003  1.970   .     S
C1001  C1005   1.489   .     S
C1002  C1006   1.490   .     S
Cu1003 Cu1004  2.742   .     S
Cu1003 N1028   2.060   .     S
Cu1004 N1027   2.060   .     S
C1005  C1009   1.390   .     A
C1005  C1011   1.402   .     A
C1006  C1010   1.397   .     A
C1006  C1012   1.411   .     A
C1007  C1009   1.396   .     A
C1007  O1049   1.374   .     S
C1007  C1015   1.406   .     A
C1008  C1016   1.418   .     A
C1008  C1010   1.405   .     A
C1008  O1161   1.377   .     S
C1009  H1024   1.062   .     S
C1010  H1023   1.081   .     S
C1011  O1047   1.374   .     S
C1011  C1013   1.430   .     A
C1012  C1014   1.421   .     A
C1012  O1045   1.378   .     S
C1013  C1017   1.406   .     A
C1013  C1015   1.401   .     A
C1014  C1016   1.425   .     A
C1014  C1018   1.429   .     A
C1015  C31     1.409   1_556 S
C1017  C1020   1.403   .     A
C1017  C28     1.404   1_556 S
C1018  C1019   1.428   .     A
C1019  O1053   1.385   .     S
C1019  C1021   1.422   .     A
C1020  O1061   1.393   .     S
C1020  C1022   1.400   .     A
C1021  O1249   1.393   1_455 S
C1022  C26     1.423   1_556 S
C1022  O1147   1.383   .     S
C1025  C1356   1.362   .     S
C1025  O1399   1.408   .     S
C1026  C1685   1.362   1_545 S
C1026  O1737   1.387   1_545 S
N1027  O1085   1.348   .     S
N1027  N1138   1.331   .     S
N1028  N1247   1.331   1_455 S
N1028  O1313   1.342   1_455 S
O1029  C1030   1.411   .     S
O1029  C1131   1.393   .     S
C1030  H1031   1.104   .     S
C1030  H1142   1.108   .     S
C1030  C1693   1.530   1_545 S
H1032  C1250   1.108   1_455 S
C1033  H1035   1.111   .     S
C1033  C1360   1.530   .     S
C1033  H1366   1.103   .     S
H1034  C43     1.102   1_556 S
H1036  C1693   1.103   1_545 S
O1037  C1038   1.414   .     S
O1037  C1242   1.383   1_455 S
C1038  C1041   1.518   .     S
C1038  H1039   1.104   .     S
C1038  H1260   1.108   1_455 S
H1040  C1148   1.108   .     S
C1041  H1042   1.109   .     S
C1041  H1043   1.108   .     S
C1041  H1044   1.108   .     S
O1045  H1046   0.985   .     S
O1047  H1048   0.990   .     S
O1049  H1050   0.986   .     S
O1051  H1052   0.990   .     S
O1051  C1228   1.377   1_455 S
O1053  C1054   1.424   .     S
C1054  C1057   1.523   .     S
C1054  H1056   1.108   .     S
C1054  H1055   1.117   .     S
C1057  H1058   1.109   .     S
C1057  H1060   1.105   .     S
C1057  H1059   1.106   .     S
O1061  C1062   1.432   .     S
C1062  H1064   1.080   .     S
C1062  C1065   1.522   .     S
C1062  H1063   1.117   .     S
C1065  H1066   1.110   .     S
C1065  H1067   1.096   .     S
C1065  H1068   1.109   .     S
O1069  C1070   1.402   .     S
O1069  C1685   1.408   1_545 S
C1070  C1073   1.502   .     S
C1070  H1731   1.111   1_545 S
C1070  H1732   1.101   1_545 S
H1071  C1400   1.111   .     S
H1072  C1400   1.101   .     S
C1073  H1074   1.100   .     S
C1073  H1076   1.107   .     S
C1073  H1185   1.107   .     S
H1075  C1293   1.107   1_455 S
O1077  C1078   1.407   .     S
O1077  C1356   1.387   .     S
C1078  C1081   1.519   .     S
C1078  H1079   1.116   .     S
C1078  H1410   1.102   .     S
H1080  C1738   1.102   1_545 S
C1081  H1083   1.109   .     S
C1081  H1082   1.110   .     S
C1081  H1084   1.110   .     S
O1085  C1196   1.412   .     S
C1086  H1088   1.097   .     S
C1086  H1087   1.107   .     S
C1086  O1305   1.412   1_455 S
C1086  C1309   1.511   1_455 S
C1089  H1090   1.107   .     S
C1089  H1092   1.098   .     S
C1089  C1196   1.511   .     S
C1089  H1201   1.112   .     S
H1091  C1309   1.112   1_455 S
O1093  N1138   1.342   .     S
O1093  C1204   1.397   .     S
C1094  H1096   1.112   .     S
C1094  H1095   1.103   .     S
C1094  O1313   1.397   1_455 S
C1094  C1317   1.520   1_455 S
C1097  H1098   1.108   .     S
C1097  H1099   1.112   .     S
C1097  H1100   1.101   .     S
C1097  C1204   1.520   .     S
O1101  C1105   1.315   .     A
O1101  Cu1113  1.997   .     S
O1102  C1106   1.306   .     A
O1102  Cu1114  1.997   .     S
O1103  Cu1114  1.998   .     S
O1103  C1105   1.315   .     A
O1104  Cu1113  1.998   .     S
O1104  C1106   1.315   .     A
C1105  C1135   1.485   .     S
C1106  C1136   1.461   .     S
O1107  C1111   1.320   .     A
O1107  Cu1113  1.972   .     S
O1108  Cu1114  1.972   .     S
O1108  C1112   1.325   .     A
O1109  Cu1114  1.970   .     S
O1109  C1111   1.319   .     A
O1110  C1112   1.314   .     A
O1110  Cu1113  1.970   .     S
C1111  C1115   1.489   .     S
C1112  C1116   1.490   .     S
Cu1113 Cu1114  2.742   .     S
Cu1113 N1138   2.060   .     S
Cu1114 N1137   2.060   .     S
C1115  C1119   1.390   .     A
C1115  C1121   1.402   .     A
C1116  C1120   1.397   .     A
C1116  C1122   1.411   .     A
C1117  C1119   1.396   .     A
C1117  O1159   1.374   .     S
C1117  C1125   1.406   .     A
C1118  C1126   1.418   .     A
C1118  C1120   1.405   .     A
C1118  O1271   1.377   .     S
C1119  H1134   1.062   .     S
C1120  H1133   1.081   .     S
C1121  O1157   1.374   .     S
C1121  C1123   1.430   .     A
C1122  C1124   1.421   .     A
C1122  O1155   1.378   .     S
C1123  C1127   1.406   .     A
C1123  C1125   1.401   .     A
C1124  C1126   1.425   .     A
C1124  C1128   1.429   .     A
C1125  C141    1.409   1_556 S
C1127  C1130   1.403   .     A
C1127  C138    1.404   1_556 S
C1128  C1129   1.428   .     A
C1129  O1163   1.385   .     S
C1129  C1131   1.422   .     A
C1130  O1171   1.393   .     S
C1130  C1132   1.400   .     A
C1132  C136    1.423   1_556 S
C1132  O1257   1.383   .     S
C1135  C1466   1.362   .     S
C1135  O1509   1.408   .     S
C1136  C1795   1.362   1_545 S
C1136  O1847   1.387   1_545 S
N1137  O1195   1.348   .     S
N1137  N1248   1.331   .     S
O1139  C1140   1.411   .     S
O1139  C1241   1.393   .     S
C1140  H1141   1.104   .     S
C1140  H1252   1.108   .     S
C1140  C1803   1.530   1_545 S
C1143  H1145   1.111   .     S
C1143  C1470   1.530   .     S
C1143  H1476   1.103   .     S
H1144  C153    1.102   1_556 S
H1146  C1803   1.103   1_545 S
O1147  C1148   1.414   .     S
C1148  C1151   1.518   .     S
C1148  H1149   1.104   .     S
H1150  C1258   1.108   .     S
C1151  H1152   1.109   .     S
C1151  H1153   1.108   .     S
C1151  H1154   1.108   .     S
O1155  H1156   0.985   .     S
O1157  H1158   0.990   .     S
O1159  H1160   0.986   .     S
O1161  H1162   0.990   .     S
O1163  C1164   1.424   .     S
C1164  C1167   1.523   .     S
C1164  H1166   1.108   .     S
C1164  H1165   1.117   .     S
C1167  H1168   1.109   .     S
C1167  H1170   1.105   .     S
C1167  H1169   1.106   .     S
O1171  C1172   1.432   .     S
C1172  H1174   1.080   .     S
C1172  C1175   1.522   .     S
C1172  H1173   1.117   .     S
C1175  H1176   1.110   .     S
C1175  H1177   1.096   .     S
C1175  H1178   1.109   .     S
O1179  C1180   1.402   .     S
O1179  C1795   1.408   1_545 S
C1180  C1183   1.502   .     S
C1180  H1841   1.111   1_545 S
C1180  H1842   1.101   1_545 S
H1181  C1510   1.111   .     S
H1182  C1510   1.101   .     S
C1183  H1184   1.100   .     S
C1183  H1186   1.107   .     S
C1183  H1295   1.107   .     S
O1187  C1188   1.407   .     S
O1187  C1466   1.387   .     S
C1188  C1191   1.519   .     S
C1188  H1189   1.116   .     S
C1188  H1520   1.102   .     S
H1190  C1848   1.102   1_545 S
C1191  H1193   1.109   .     S
C1191  H1192   1.110   .     S
C1191  H1194   1.110   .     S
O1195  C1306   1.412   .     S
C1196  H1198   1.097   .     S
C1196  H1197   1.107   .     S
C1199  H1200   1.107   .     S
C1199  H1202   1.098   .     S
C1199  C1306   1.511   .     S
C1199  H1311   1.112   .     S
O1203  N1248   1.342   .     S
O1203  C1314   1.397   .     S
C1204  H1206   1.112   .     S
C1204  H1205   1.103   .     S
C1207  H1208   1.108   .     S
C1207  H1209   1.112   .     S
C1207  H1210   1.101   .     S
C1207  C1314   1.520   .     S
O1211  C1215   1.315   .     A
O1211  Cu1223  1.997   .     S
O1212  C1216   1.306   .     A
O1212  Cu1224  1.997   .     S
O1213  Cu1224  1.998   .     S
O1213  C1215   1.315   .     A
O1214  Cu1223  1.998   .     S
O1214  C1216   1.315   .     A
C1215  C1245   1.485   .     S
C1216  C1246   1.461   .     S
O1217  C1221   1.320   .     A
O1217  Cu1223  1.972   .     S
O1218  Cu1224  1.972   .     S
O1218  C1222   1.325   .     A
O1219  Cu1224  1.970   .     S
O1219  C1221   1.319   .     A
O1220  C1222   1.314   .     A
O1220  Cu1223  1.970   .     S
C1221  C1225   1.489   .     S
C1222  C1226   1.490   .     S
Cu1223 Cu1224  2.742   .     S
Cu1223 N1248   2.060   .     S
Cu1224 N1247   2.060   .     S
C1225  C1229   1.390   .     A
C1225  C1231   1.402   .     A
C1226  C1230   1.397   .     A
C1226  C1232   1.411   .     A
C1227  C1229   1.396   .     A
C1227  O1269   1.374   .     S
C1227  C1235   1.406   .     A
C1228  C1236   1.418   .     A
C1228  C1230   1.405   .     A
C1228  O1051   1.377   1_655 S
C1229  H1244   1.062   .     S
C1230  H1243   1.081   .     S
C1231  O1267   1.374   .     S
C1231  C1233   1.430   .     A
C1232  C1234   1.421   .     A
C1232  O1265   1.378   .     S
C1233  C1237   1.406   .     A
C1233  C1235   1.401   .     A
C1234  C1236   1.425   .     A
C1234  C1238   1.429   .     A
C1235  C251    1.409   1_556 S
C1237  C1240   1.403   .     A
C1237  C248    1.404   1_556 S
C1238  C1239   1.428   .     A
C1239  O1273   1.385   .     S
C1239  C1241   1.422   .     A
C1240  O1281   1.393   .     S
C1240  C1242   1.400   .     A
C1242  C246    1.423   1_556 S
C1242  O1037   1.383   1_655 S
C1245  C1576   1.362   .     S
C1245  O1619   1.408   .     S
C1246  C1905   1.362   1_545 S
C1246  O1957   1.387   1_545 S
N1247  O1305   1.348   .     S
N1247  N1028   1.331   1_655 S
O1249  C1250   1.411   .     S
O1249  C1021   1.393   1_655 S
C1250  H1251   1.104   .     S
C1250  H1032   1.108   1_655 S
C1250  C1913   1.530   1_545 S
C1253  H1255   1.111   .     S
C1253  C1580   1.530   .     S
C1253  H1586   1.103   .     S
H1254  C263    1.102   1_556 S
H1256  C1913   1.103   1_545 S
O1257  C1258   1.414   .     S
C1258  C1261   1.518   .     S
C1258  H1259   1.104   .     S
H1260  C1038   1.108   1_655 S
C1261  H1262   1.109   .     S
C1261  H1263   1.108   .     S
C1261  H1264   1.108   .     S
O1265  H1266   0.985   .     S
O1267  H1268   0.990   .     S
O1269  H1270   0.986   .     S
O1271  H1272   0.990   .     S
O1273  C1274   1.424   .     S
C1274  C1277   1.523   .     S
C1274  H1276   1.108   .     S
C1274  H1275   1.117   .     S
C1277  H1278   1.109   .     S
C1277  H1280   1.105   .     S
C1277  H1279   1.106   .     S
O1281  C1282   1.432   .     S
C1282  H1284   1.080   .     S
C1282  C1285   1.522   .     S
C1282  H1283   1.117   .     S
C1285  H1286   1.110   .     S
C1285  H1287   1.096   .     S
C1285  H1288   1.109   .     S
O1289  C1290   1.402   .     S
O1289  C1905   1.408   1_545 S
C1290  C1293   1.502   .     S
C1290  H1951   1.111   1_545 S
C1290  H1952   1.101   1_545 S
H1291  C1620   1.111   .     S
H1292  C1620   1.101   .     S
C1293  H1294   1.100   .     S
C1293  H1296   1.107   .     S
C1293  H1075   1.107   1_655 S
O1297  C1298   1.407   .     S
O1297  C1576   1.387   .     S
C1298  C1301   1.519   .     S
C1298  H1299   1.116   .     S
C1298  H1630   1.102   .     S
H1300  C1958   1.102   1_545 S
C1301  H1303   1.109   .     S
C1301  H1302   1.110   .     S
C1301  H1304   1.110   .     S
O1305  C1086   1.412   1_655 S
C1306  H1308   1.097   .     S
C1306  H1307   1.107   .     S
C1309  H1310   1.107   .     S
C1309  H1312   1.098   .     S
C1309  C1086   1.511   1_655 S
C1309  H1091   1.112   1_655 S
O1313  N1028   1.342   1_655 S
O1313  C1094   1.397   1_655 S
C1314  H1316   1.112   .     S
C1314  H1315   1.103   .     S
C1317  H1318   1.108   .     S
C1317  H1319   1.112   .     S
C1317  H1320   1.101   .     S
C1317  C1094   1.520   1_655 S
O1321  C1325   1.315   .     A
O1321  Cu1333  1.997   .     S
O1322  C1326   1.306   .     A
O1322  Cu1334  1.997   .     S
O1323  Cu1334  1.998   .     S
O1323  C1325   1.315   .     A
O1324  Cu1333  1.998   .     S
O1324  C1326   1.315   .     A
C1325  C1355   1.485   .     S
C1326  C1356   1.461   .     S
O1327  C1331   1.320   .     A
O1327  Cu1333  1.972   .     S
O1328  Cu1334  1.972   .     S
O1328  C1332   1.325   .     A
O1329  Cu1334  1.970   .     S
O1329  C1331   1.319   .     A
O1330  C1332   1.314   .     A
O1330  Cu1333  1.970   .     S
C1331  C1335   1.489   .     S
C1332  C1336   1.490   .     S
Cu1333 Cu1334  2.742   .     S
Cu1333 N1358   2.060   .     S
Cu1334 N1357   2.060   .     S
C1335  C1339   1.390   .     A
C1335  C1341   1.402   .     A
C1336  C1340   1.397   .     A
C1336  C1342   1.411   .     A
C1337  C1339   1.396   .     A
C1337  O1379   1.374   .     S
C1337  C1345   1.406   .     A
C1338  C1346   1.418   .     A
C1338  C1340   1.405   .     A
C1338  O1491   1.377   .     S
C1339  H1354   1.062   .     S
C1340  H1353   1.081   .     S
C1341  O1377   1.374   .     S
C1341  C1343   1.430   .     A
C1342  C1344   1.421   .     A
C1342  O1375   1.378   .     S
C1343  C1347   1.406   .     A
C1343  C1345   1.401   .     A
C1344  C1346   1.425   .     A
C1344  C1348   1.429   .     A
C1345  C361    1.409   1_556 S
C1347  C1350   1.403   .     A
C1347  C358    1.404   1_556 S
C1348  C1349   1.428   .     A
C1349  O1383   1.385   .     S
C1349  C1351   1.422   .     A
C1350  O1391   1.393   .     S
C1350  C1352   1.400   .     A
C1351  O1579   1.393   1_455 S
C1352  C356    1.423   1_556 S
C1352  O1477   1.383   .     S
C1355  C1686   1.362   .     S
C1355  O1729   1.408   .     S
N1357  O1415   1.348   .     S
N1357  N1468   1.331   .     S
N1358  N1577   1.331   1_455 S
N1358  O1643   1.342   1_455 S
O1359  C1360   1.411   .     S
O1359  C1461   1.393   .     S
C1360  H1361   1.104   .     S
C1360  H1472   1.108   .     S
H1362  C1580   1.108   1_455 S
C1363  H1365   1.111   .     S
C1363  C1690   1.530   .     S
C1363  H1696   1.103   .     S
H1364  C373    1.102   1_556 S
O1367  C1368   1.414   .     S
O1367  C1572   1.383   1_455 S
C1368  C1371   1.518   .     S
C1368  H1369   1.104   .     S
C1368  H1590   1.108   1_455 S
H1370  C1478   1.108   .     S
C1371  H1372   1.109   .     S
C1371  H1373   1.108   .     S
C1371  H1374   1.108   .     S
O1375  H1376   0.985   .     S
O1377  H1378   0.990   .     S
O1379  H1380   0.986   .     S
O1381  H1382   0.990   .     S
O1381  C1558   1.377   1_455 S
O1383  C1384   1.424   .     S
C1384  C1387   1.523   .     S
C1384  H1386   1.108   .     S
C1384  H1385   1.117   .     S
C1387  H1388   1.109   .     S
C1387  H1390   1.105   .     S
C1387  H1389   1.106   .     S
O1391  C1392   1.432   .     S
C1392  H1394   1.080   .     S
C1392  C1395   1.522   .     S
C1392  H1393   1.117   .     S
C1395  H1396   1.110   .     S
C1395  H1397   1.096   .     S
C1395  H1398   1.109   .     S
O1399  C1400   1.402   .     S
C1400  C1403   1.502   .     S
H1401  C1730   1.111   .     S
H1402  C1730   1.101   .     S
C1403  H1404   1.100   .     S
C1403  H1406   1.107   .     S
C1403  H1515   1.107   .     S
H1405  C1623   1.107   1_455 S
O1407  C1408   1.407   .     S
O1407  C1686   1.387   .     S
C1408  C1411   1.519   .     S
C1408  H1409   1.116   .     S
C1408  H1740   1.102   .     S
C1411  H1413   1.109   .     S
C1411  H1412   1.110   .     S
C1411  H1414   1.110   .     S
O1415  C1526   1.412   .     S
C1416  H1418   1.097   .     S
C1416  H1417   1.107   .     S
C1416  O1635   1.412   1_455 S
C1416  C1639   1.511   1_455 S
C1419  H1420   1.107   .     S
C1419  H1422   1.098   .     S
C1419  C1526   1.511   .     S
C1419  H1531   1.112   .     S
H1421  C1639   1.112   1_455 S
O1423  N1468   1.342   .     S
O1423  C1534   1.397   .     S
C1424  H1426   1.112   .     S
C1424  H1425   1.103   .     S
C1424  O1643   1.397   1_455 S
C1424  C1647   1.520   1_455 S
C1427  H1428   1.108   .     S
C1427  H1429   1.112   .     S
C1427  H1430   1.101   .     S
C1427  C1534   1.520   .     S
O1431  C1435   1.315   .     A
O1431  Cu1443  1.997   .     S
O1432  C1436   1.306   .     A
O1432  Cu1444  1.997   .     S
O1433  Cu1444  1.998   .     S
O1433  C1435   1.315   .     A
O1434  Cu1443  1.998   .     S
O1434  C1436   1.315   .     A
C1435  C1465   1.485   .     S
C1436  C1466   1.461   .     S
O1437  C1441   1.320   .     A
O1437  Cu1443  1.972   .     S
O1438  Cu1444  1.972   .     S
O1438  C1442   1.325   .     A
O1439  Cu1444  1.970   .     S
O1439  C1441   1.319   .     A
O1440  C1442   1.314   .     A
O1440  Cu1443  1.970   .     S
C1441  C1445   1.489   .     S
C1442  C1446   1.490   .     S
Cu1443 Cu1444  2.742   .     S
Cu1443 N1468   2.060   .     S
Cu1444 N1467   2.060   .     S
C1445  C1449   1.390   .     A
C1445  C1451   1.402   .     A
C1446  C1450   1.397   .     A
C1446  C1452   1.411   .     A
C1447  C1449   1.396   .     A
C1447  O1489   1.374   .     S
C1447  C1455   1.406   .     A
C1448  C1456   1.418   .     A
C1448  C1450   1.405   .     A
C1448  O1601   1.377   .     S
C1449  H1464   1.062   .     S
C1450  H1463   1.081   .     S
C1451  O1487   1.374   .     S
C1451  C1453   1.430   .     A
C1452  C1454   1.421   .     A
C1452  O1485   1.378   .     S
C1453  C1457   1.406   .     A
C1453  C1455   1.401   .     A
C1454  C1456   1.425   .     A
C1454  C1458   1.429   .     A
C1455  C471    1.409   1_556 S
C1457  C1460   1.403   .     A
C1457  C468    1.404   1_556 S
C1458  C1459   1.428   .     A
C1459  O1493   1.385   .     S
C1459  C1461   1.422   .     A
C1460  O1501   1.393   .     S
C1460  C1462   1.400   .     A
C1462  C466    1.423   1_556 S
C1462  O1587   1.383   .     S
C1465  C1796   1.362   .     S
C1465  O1839   1.408   .     S
N1467  O1525   1.348   .     S
N1467  N1578   1.331   .     S
O1469  C1470   1.411   .     S
O1469  C1571   1.393   .     S
C1470  H1471   1.104   .     S
C1470  H1582   1.108   .     S
C1473  H1475   1.111   .     S
C1473  C1800   1.530   .     S
C1473  H1806   1.103   .     S
H1474  C483    1.102   1_556 S
O1477  C1478   1.414   .     S
C1478  C1481   1.518   .     S
C1478  H1479   1.104   .     S
H1480  C1588   1.108   .     S
C1481  H1482   1.109   .     S
C1481  H1483   1.108   .     S
C1481  H1484   1.108   .     S
O1485  H1486   0.985   .     S
O1487  H1488   0.990   .     S
O1489  H1490   0.986   .     S
O1491  H1492   0.990   .     S
O1493  C1494   1.424   .     S
C1494  C1497   1.523   .     S
C1494  H1496   1.108   .     S
C1494  H1495   1.117   .     S
C1497  H1498   1.109   .     S
C1497  H1500   1.105   .     S
C1497  H1499   1.106   .     S
O1501  C1502   1.432   .     S
C1502  H1504   1.080   .     S
C1502  C1505   1.522   .     S
C1502  H1503   1.117   .     S
C1505  H1506   1.110   .     S
C1505  H1507   1.096   .     S
C1505  H1508   1.109   .     S
O1509  C1510   1.402   .     S
C1510  C1513   1.502   .     S
H1511  C1840   1.111   .     S
H1512  C1840   1.101   .     S
C1513  H1514   1.100   .     S
C1513  H1516   1.107   .     S
C1513  H1625   1.107   .     S
O1517  C1518   1.407   .     S
O1517  C1796   1.387   .     S
C1518  C1521   1.519   .     S
C1518  H1519   1.116   .     S
C1518  H1850   1.102   .     S
C1521  H1523   1.109   .     S
C1521  H1522   1.110   .     S
C1521  H1524   1.110   .     S
O1525  C1636   1.412   .     S
C1526  H1528   1.097   .     S
C1526  H1527   1.107   .     S
C1529  H1530   1.107   .     S
C1529  H1532   1.098   .     S
C1529  C1636   1.511   .     S
C1529  H1641   1.112   .     S
O1533  N1578   1.342   .     S
O1533  C1644   1.397   .     S
C1534  H1536   1.112   .     S
C1534  H1535   1.103   .     S
C1537  H1538   1.108   .     S
C1537  H1539   1.112   .     S
C1537  H1540   1.101   .     S
C1537  C1644   1.520   .     S
O1541  C1545   1.315   .     A
O1541  Cu1553  1.997   .     S
O1542  C1546   1.306   .     A
O1542  Cu1554  1.997   .     S
O1543  Cu1554  1.998   .     S
O1543  C1545   1.315   .     A
O1544  Cu1553  1.998   .     S
O1544  C1546   1.315   .     A
C1545  C1575   1.485   .     S
C1546  C1576   1.461   .     S
O1547  C1551   1.320   .     A
O1547  Cu1553  1.972   .     S
O1548  Cu1554  1.972   .     S
O1548  C1552   1.325   .     A
O1549  Cu1554  1.970   .     S
O1549  C1551   1.319   .     A
O1550  C1552   1.314   .     A
O1550  Cu1553  1.970   .     S
C1551  C1555   1.489   .     S
C1552  C1556   1.490   .     S
Cu1553 Cu1554  2.742   .     S
Cu1553 N1578   2.060   .     S
Cu1554 N1577   2.060   .     S
C1555  C1559   1.390   .     A
C1555  C1561   1.402   .     A
C1556  C1560   1.397   .     A
C1556  C1562   1.411   .     A
C1557  C1559   1.396   .     A
C1557  O1599   1.374   .     S
C1557  C1565   1.406   .     A
C1558  C1566   1.418   .     A
C1558  C1560   1.405   .     A
C1558  O1381   1.377   1_655 S
C1559  H1574   1.062   .     S
C1560  H1573   1.081   .     S
C1561  O1597   1.374   .     S
C1561  C1563   1.430   .     A
C1562  C1564   1.421   .     A
C1562  O1595   1.378   .     S
C1563  C1567   1.406   .     A
C1563  C1565   1.401   .     A
C1564  C1566   1.425   .     A
C1564  C1568   1.429   .     A
C1565  C581    1.409   1_556 S
C1567  C1570   1.403   .     A
C1567  C578    1.404   1_556 S
C1568  C1569   1.428   .     A
C1569  O1603   1.385   .     S
C1569  C1571   1.422   .     A
C1570  O1611   1.393   .     S
C1570  C1572   1.400   .     A
C1572  C576    1.423   1_556 S
C1572  O1367   1.383   1_655 S
C1575  C1906   1.362   .     S
C1575  O1949   1.408   .     S
N1577  O1635   1.348   .     S
N1577  N1358   1.331   1_655 S
O1579  C1580   1.411   .     S
O1579  C1351   1.393   1_655 S
C1580  H1581   1.104   .     S
C1580  H1362   1.108   1_655 S
C1583  H1585   1.111   .     S
C1583  C1910   1.530   .     S
C1583  H1916   1.103   .     S
H1584  C593    1.102   1_556 S
O1587  C1588   1.414   .     S
C1588  C1591   1.518   .     S
C1588  H1589   1.104   .     S
H1590  C1368   1.108   1_655 S
C1591  H1592   1.109   .     S
C1591  H1593   1.108   .     S
C1591  H1594   1.108   .     S
O1595  H1596   0.985   .     S
O1597  H1598   0.990   .     S
O1599  H1600   0.986   .     S
O1601  H1602   0.990   .     S
O1603  C1604   1.424   .     S
C1604  C1607   1.523   .     S
C1604  H1606   1.108   .     S
C1604  H1605   1.117   .     S
C1607  H1608   1.109   .     S
C1607  H1610   1.105   .     S
C1607  H1609   1.106   .     S
O1611  C1612   1.432   .     S
C1612  H1614   1.080   .     S
C1612  C1615   1.522   .     S
C1612  H1613   1.117   .     S
C1615  H1616   1.110   .     S
C1615  H1617   1.096   .     S
C1615  H1618   1.109   .     S
O1619  C1620   1.402   .     S
C1620  C1623   1.502   .     S
H1621  C1950   1.111   .     S
H1622  C1950   1.101   .     S
C1623  H1624   1.100   .     S
C1623  H1626   1.107   .     S
C1623  H1405   1.107   1_655 S
O1627  C1628   1.407   .     S
O1627  C1906   1.387   .     S
C1628  C1631   1.519   .     S
C1628  H1629   1.116   .     S
C1628  H1960   1.102   .     S
C1631  H1633   1.109   .     S
C1631  H1632   1.110   .     S
C1631  H1634   1.110   .     S
O1635  C1416   1.412   1_655 S
C1636  H1638   1.097   .     S
C1636  H1637   1.107   .     S
C1639  H1640   1.107   .     S
C1639  H1642   1.098   .     S
C1639  C1416   1.511   1_655 S
C1639  H1421   1.112   1_655 S
O1643  N1358   1.342   1_655 S
O1643  C1424   1.397   1_655 S
C1644  H1646   1.112   .     S
C1644  H1645   1.103   .     S
C1647  H1648   1.108   .     S
C1647  H1649   1.112   .     S
C1647  H1650   1.101   .     S
C1647  C1424   1.520   1_655 S
O1651  C1655   1.315   .     A
O1651  Cu1663  1.997   .     S
O1652  C1656   1.306   .     A
O1652  Cu1664  1.997   .     S
O1653  Cu1664  1.998   .     S
O1653  C1655   1.315   .     A
O1654  Cu1663  1.998   .     S
O1654  C1656   1.315   .     A
C1655  C1685   1.485   .     S
C1656  C1686   1.461   .     S
O1657  C1661   1.320   .     A
O1657  Cu1663  1.972   .     S
O1658  Cu1664  1.972   .     S
O1658  C1662   1.325   .     A
O1659  Cu1664  1.970   .     S
O1659  C1661   1.319   .     A
O1660  C1662   1.314   .     A
O1660  Cu1663  1.970   .     S
C1661  C1665   1.489   .     S
C1662  C1666   1.490   .     S
Cu1663 Cu1664  2.742   .     S
Cu1663 N1688   2.060   .     S
Cu1664 N1687   2.060   .     S
C1665  C1669   1.390   .     A
C1665  C1671   1.402   .     A
C1666  C1670   1.397   .     A
C1666  C1672   1.411   .     A
C1667  C1669   1.396   .     A
C1667  O1709   1.374   .     S
C1667  C1675   1.406   .     A
C1668  C1676   1.418   .     A
C1668  C1670   1.405   .     A
C1668  O1821   1.377   .     S
C1669  H1684   1.062   .     S
C1670  H1683   1.081   .     S
C1671  O1707   1.374   .     S
C1671  C1673   1.430   .     A
C1672  C1674   1.421   .     A
C1672  O1705   1.378   .     S
C1673  C1677   1.406   .     A
C1673  C1675   1.401   .     A
C1674  C1676   1.425   .     A
C1674  C1678   1.429   .     A
C1675  C691    1.409   1_556 S
C1677  C1680   1.403   .     A
C1677  C688    1.404   1_556 S
C1678  C1679   1.428   .     A
C1679  O1713   1.385   .     S
C1679  C1681   1.422   .     A
C1680  O1721   1.393   .     S
C1680  C1682   1.400   .     A
C1681  O1909   1.393   1_455 S
C1682  C686    1.423   1_556 S
C1682  O1807   1.383   .     S
C1685  C1026   1.362   1_565 S
C1685  O1069   1.408   1_565 S
N1687  O1745   1.348   .     S
N1687  N1798   1.331   .     S
N1688  N1907   1.331   1_455 S
N1688  O1973   1.342   1_455 S
O1689  C1690   1.411   .     S
O1689  C1791   1.393   .     S
C1690  H1691   1.104   .     S
C1690  H1802   1.108   .     S
H1692  C1910   1.108   1_455 S
C1693  H1695   1.111   .     S
C1693  C1030   1.530   1_565 S
C1693  H1036   1.103   1_565 S
H1694  C703    1.102   1_556 S
O1697  C1698   1.414   .     S
O1697  C1902   1.383   1_455 S
C1698  C1701   1.518   .     S
C1698  H1699   1.104   .     S
C1698  H1920   1.108   1_455 S
H1700  C1808   1.108   .     S
C1701  H1702   1.109   .     S
C1701  H1703   1.108   .     S
C1701  H1704   1.108   .     S
O1705  H1706   0.985   .     S
O1707  H1708   0.990   .     S
O1709  H1710   0.986   .     S
O1711  H1712   0.990   .     S
O1711  C1888   1.377   1_455 S
O1713  C1714   1.424   .     S
C1714  C1717   1.523   .     S
C1714  H1716   1.108   .     S
C1714  H1715   1.117   .     S
C1717  H1718   1.109   .     S
C1717  H1720   1.105   .     S
C1717  H1719   1.106   .     S
O1721  C1722   1.432   .     S
C1722  H1724   1.080   .     S
C1722  C1725   1.522   .     S
C1722  H1723   1.117   .     S
C1725  H1726   1.110   .     S
C1725  H1727   1.096   .     S
C1725  H1728   1.109   .     S
O1729  C1730   1.402   .     S
C1730  C1733   1.502   .     S
H1731  C1070   1.111   1_565 S
H1732  C1070   1.101   1_565 S
C1733  H1734   1.100   .     S
C1733  H1736   1.107   .     S
C1733  H1845   1.107   .     S
H1735  C1953   1.107   1_455 S
O1737  C1738   1.407   .     S
O1737  C1026   1.387   1_565 S
C1738  C1741   1.519   .     S
C1738  H1739   1.116   .     S
C1738  H1080   1.102   1_565 S
C1741  H1743   1.109   .     S
C1741  H1742   1.110   .     S
C1741  H1744   1.110   .     S
O1745  C1856   1.412   .     S
C1746  H1748   1.097   .     S
C1746  H1747   1.107   .     S
C1746  O1965   1.412   1_455 S
C1746  C1969   1.511   1_455 S
C1749  H1750   1.107   .     S
C1749  H1752   1.098   .     S
C1749  C1856   1.511   .     S
C1749  H1861   1.112   .     S
H1751  C1969   1.112   1_455 S
O1753  N1798   1.342   .     S
O1753  C1864   1.397   .     S
C1754  H1756   1.112   .     S
C1754  H1755   1.103   .     S
C1754  O1973   1.397   1_455 S
C1754  C1977   1.520   1_455 S
C1757  H1758   1.108   .     S
C1757  H1759   1.112   .     S
C1757  H1760   1.101   .     S
C1757  C1864   1.520   .     S
O1761  C1765   1.315   .     A
O1761  Cu1773  1.997   .     S
O1762  C1766   1.306   .     A
O1762  Cu1774  1.997   .     S
O1763  Cu1774  1.998   .     S
O1763  C1765   1.315   .     A
O1764  Cu1773  1.998   .     S
O1764  C1766   1.315   .     A
C1765  C1795   1.485   .     S
C1766  C1796   1.461   .     S
O1767  C1771   1.320   .     A
O1767  Cu1773  1.972   .     S
O1768  Cu1774  1.972   .     S
O1768  C1772   1.325   .     A
O1769  Cu1774  1.970   .     S
O1769  C1771   1.319   .     A
O1770  C1772   1.314   .     A
O1770  Cu1773  1.970   .     S
C1771  C1775   1.489   .     S
C1772  C1776   1.490   .     S
Cu1773 Cu1774  2.742   .     S
Cu1773 N1798   2.060   .     S
Cu1774 N1797   2.060   .     S
C1775  C1779   1.390   .     A
C1775  C1781   1.402   .     A
C1776  C1780   1.397   .     A
C1776  C1782   1.411   .     A
C1777  C1779   1.396   .     A
C1777  O1819   1.374   .     S
C1777  C1785   1.406   .     A
C1778  C1786   1.418   .     A
C1778  C1780   1.405   .     A
C1778  O1931   1.377   .     S
C1779  H1794   1.062   .     S
C1780  H1793   1.081   .     S
C1781  O1817   1.374   .     S
C1781  C1783   1.430   .     A
C1782  C1784   1.421   .     A
C1782  O1815   1.378   .     S
C1783  C1787   1.406   .     A
C1783  C1785   1.401   .     A
C1784  C1786   1.425   .     A
C1784  C1788   1.429   .     A
C1785  C801    1.409   1_556 S
C1787  C1790   1.403   .     A
C1787  C798    1.404   1_556 S
C1788  C1789   1.428   .     A
C1789  O1823   1.385   .     S
C1789  C1791   1.422   .     A
C1790  O1831   1.393   .     S
C1790  C1792   1.400   .     A
C1792  C796    1.423   1_556 S
C1792  O1917   1.383   .     S
C1795  C1136   1.362   1_565 S
C1795  O1179   1.408   1_565 S
N1797  O1855   1.348   .     S
N1797  N1908   1.331   .     S
O1799  C1800   1.411   .     S
O1799  C1901   1.393   .     S
C1800  H1801   1.104   .     S
C1800  H1912   1.108   .     S
C1803  H1805   1.111   .     S
C1803  C1140   1.530   1_565 S
C1803  H1146   1.103   1_565 S
H1804  C813    1.102   1_556 S
O1807  C1808   1.414   .     S
C1808  C1811   1.518   .     S
C1808  H1809   1.104   .     S
H1810  C1918   1.108   .     S
C1811  H1812   1.109   .     S
C1811  H1813   1.108   .     S
C1811  H1814   1.108   .     S
O1815  H1816   0.985   .     S
O1817  H1818   0.990   .     S
O1819  H1820   0.986   .     S
O1821  H1822   0.990   .     S
O1823  C1824   1.424   .     S
C1824  C1827   1.523   .     S
C1824  H1826   1.108   .     S
C1824  H1825   1.117   .     S
C1827  H1828   1.109   .     S
C1827  H1830   1.105   .     S
C1827  H1829   1.106   .     S
O1831  C1832   1.432   .     S
C1832  H1834   1.080   .     S
C1832  C1835   1.522   .     S
C1832  H1833   1.117   .     S
C1835  H1836   1.110   .     S
C1835  H1837   1.096   .     S
C1835  H1838   1.109   .     S
O1839  C1840   1.402   .     S
C1840  C1843   1.502   .     S
H1841  C1180   1.111   1_565 S
H1842  C1180   1.101   1_565 S
C1843  H1844   1.100   .     S
C1843  H1846   1.107   .     S
C1843  H1955   1.107   .     S
O1847  C1848   1.407   .     S
O1847  C1136   1.387   1_565 S
C1848  C1851   1.519   .     S
C1848  H1849   1.116   .     S
C1848  H1190   1.102   1_565 S
C1851  H1853   1.109   .     S
C1851  H1852   1.110   .     S
C1851  H1854   1.110   .     S
O1855  C1966   1.412   .     S
C1856  H1858   1.097   .     S
C1856  H1857   1.107   .     S
C1859  H1860   1.107   .     S
C1859  H1862   1.098   .     S
C1859  C1966   1.511   .     S
C1859  H1971   1.112   .     S
O1863  N1908   1.342   .     S
O1863  C1974   1.397   .     S
C1864  H1866   1.112   .     S
C1864  H1865   1.103   .     S
C1867  H1868   1.108   .     S
C1867  H1869   1.112   .     S
C1867  H1870   1.101   .     S
C1867  C1974   1.520   .     S
O1871  C1875   1.315   .     A
O1871  Cu1883  1.997   .     S
O1872  C1876   1.306   .     A
O1872  Cu1884  1.997   .     S
O1873  Cu1884  1.998   .     S
O1873  C1875   1.315   .     A
O1874  Cu1883  1.998   .     S
O1874  C1876   1.315   .     A
C1875  C1905   1.485   .     S
C1876  C1906   1.461   .     S
O1877  C1881   1.320   .     A
O1877  Cu1883  1.972   .     S
O1878  Cu1884  1.972   .     S
O1878  C1882   1.325   .     A
O1879  Cu1884  1.970   .     S
O1879  C1881   1.319   .     A
O1880  C1882   1.314   .     A
O1880  Cu1883  1.970   .     S
C1881  C1885   1.489   .     S
C1882  C1886   1.490   .     S
Cu1883 Cu1884  2.742   .     S
Cu1883 N1908   2.060   .     S
Cu1884 N1907   2.060   .     S
C1885  C1889   1.390   .     A
C1885  C1891   1.402   .     A
C1886  C1890   1.397   .     A
C1886  C1892   1.411   .     A
C1887  C1889   1.396   .     A
C1887  O1929   1.374   .     S
C1887  C1895   1.406   .     A
C1888  C1896   1.418   .     A
C1888  C1890   1.405   .     A
C1888  O1711   1.377   1_655 S
C1889  H1904   1.062   .     S
C1890  H1903   1.081   .     S
C1891  O1927   1.374   .     S
C1891  C1893   1.430   .     A
C1892  C1894   1.421   .     A
C1892  O1925   1.378   .     S
C1893  C1897   1.406   .     A
C1893  C1895   1.401   .     A
C1894  C1896   1.425   .     A
C1894  C1898   1.429   .     A
C1895  C911    1.409   1_556 S
C1897  C1900   1.403   .     A
C1897  C908    1.404   1_556 S
C1898  C1899   1.428   .     A
C1899  O1933   1.385   .     S
C1899  C1901   1.422   .     A
C1900  O1941   1.393   .     S
C1900  C1902   1.400   .     A
C1902  C906    1.423   1_556 S
C1902  O1697   1.383   1_655 S
C1905  C1246   1.362   1_565 S
C1905  O1289   1.408   1_565 S
N1907  O1965   1.348   .     S
N1907  N1688   1.331   1_655 S
O1909  C1910   1.411   .     S
O1909  C1681   1.393   1_655 S
C1910  H1911   1.104   .     S
C1910  H1692   1.108   1_655 S
C1913  H1915   1.111   .     S
C1913  C1250   1.530   1_565 S
C1913  H1256   1.103   1_565 S
H1914  C923    1.102   1_556 S
O1917  C1918   1.414   .     S
C1918  C1921   1.518   .     S
C1918  H1919   1.104   .     S
H1920  C1698   1.108   1_655 S
C1921  H1922   1.109   .     S
C1921  H1923   1.108   .     S
C1921  H1924   1.108   .     S
O1925  H1926   0.985   .     S
O1927  H1928   0.990   .     S
O1929  H1930   0.986   .     S
O1931  H1932   0.990   .     S
O1933  C1934   1.424   .     S
C1934  C1937   1.523   .     S
C1934  H1936   1.108   .     S
C1934  H1935   1.117   .     S
C1937  H1938   1.109   .     S
C1937  H1940   1.105   .     S
C1937  H1939   1.106   .     S
O1941  C1942   1.432   .     S
C1942  H1944   1.080   .     S
C1942  C1945   1.522   .     S
C1942  H1943   1.117   .     S
C1945  H1946   1.110   .     S
C1945  H1947   1.096   .     S
C1945  H1948   1.109   .     S
O1949  C1950   1.402   .     S
C1950  C1953   1.502   .     S
H1951  C1290   1.111   1_565 S
H1952  C1290   1.101   1_565 S
C1953  H1954   1.100   .     S
C1953  H1956   1.107   .     S
C1953  H1735   1.107   1_655 S
O1957  C1958   1.407   .     S
O1957  C1246   1.387   1_565 S
C1958  C1961   1.519   .     S
C1958  H1959   1.116   .     S
C1958  H1300   1.102   1_565 S
C1961  H1963   1.109   .     S
C1961  H1962   1.110   .     S
C1961  H1964   1.110   .     S
O1965  C1746   1.412   1_655 S
C1966  H1968   1.097   .     S
C1966  H1967   1.107   .     S
C1969  H1970   1.107   .     S
C1969  H1972   1.098   .     S
C1969  C1746   1.511   1_655 S
C1969  H1751   1.112   1_655 S
O1973  N1688   1.342   1_655 S
O1973  C1754   1.397   1_655 S
C1974  H1976   1.112   .     S
C1974  H1975   1.103   .     S
C1977  H1978   1.108   .     S
C1977  H1979   1.112   .     S
C1977  H1980   1.101   .     S
C1977  C1754   1.520   1_655 S
