data_str_m3_o1_o17_pcu_sym.178
_audit_creation_date              2020-01-03
_audit_creation_method            'Materials Studio'
_symmetry_space_group_name_H-M    'P1'
_symmetry_Int_Tables_number       1
_symmetry_cell_setting            triclinic
loop_
_symmetry_equiv_pos_as_xyz
  x,y,z
_cell_length_a                    31.9938
_cell_length_b                    29.5008
_cell_length_c                    30.0857
_cell_angle_alpha                 89.6141
_cell_angle_beta                  90.6502
_cell_angle_gamma                 90.0749
loop_
_atom_site_label
_atom_site_type_symbol
_atom_site_fract_x
_atom_site_fract_y
_atom_site_fract_z
_atom_site_U_iso_or_equiv
_atom_site_adp_type
_atom_site_occupancy
C1     C     0.08683   0.16662   0.24974   0.00000  Uiso   1.00
C2     C     0.24650   0.16671   0.25026   0.00000  Uiso   1.00
C3     C     0.13129   0.09342   0.02489   0.00000  Uiso   1.00
C4     C     0.20203   0.23992   0.47511   0.00000  Uiso   1.00
C5     C     0.02107   0.14664   0.21408   0.00000  Uiso   1.00
C6     C     0.31226   0.18669   0.28593   0.00000  Uiso   1.00
C7     C     0.31113   0.14694   0.21409   0.00000  Uiso   1.00
C8     C     0.02221   0.18639   0.28591   0.00000  Uiso   1.00
C9     C     0.29066   0.16683   0.25009   0.00000  Uiso   1.00
C10    C     0.04267   0.16650   0.24991   0.00000  Uiso   1.00
C11    C     0.19023   0.02382   0.28026   0.00000  Uiso   1.00
C12    C     0.14311   0.30952   0.21975   0.00000  Uiso   1.00
C13    C     0.14310   0.02417   0.21975   0.00000  Uiso   1.00
C14    C     0.19024   0.30916   0.28025   0.00000  Uiso   1.00
C15    C     0.16814   0.16686   0.16343   0.00000  Uiso   1.00
C16    C     0.16519   0.16648   0.33657   0.00000  Uiso   1.00
C17    C     0.18120   0.20256   0.40667   0.00000  Uiso   1.00
C18    C     0.15212   0.13078   0.09334   0.00000  Uiso   1.00
C19    C     0.16305   0.16618   0.38444   0.00000  Uiso   1.00
C20    C     0.17028   0.16715   0.11556   0.00000  Uiso   1.00
C21    C     0.14381   0.13047   0.40777   0.00000  Uiso   1.00
C22    C     0.18953   0.20287   0.09223   0.00000  Uiso   1.00
C23    C     0.14584   0.13016   0.45432   0.00000  Uiso   1.00
C24    C     0.18748   0.20318   0.04568   0.00000  Uiso   1.00
C25    C     0.16554   0.16672   0.47674   0.00000  Uiso   1.00
C26    C     0.16777   0.16662   0.02326   0.00000  Uiso   1.00
C27    C     0.18287   0.20346   0.45268   0.00000  Uiso   1.00
C28    C     0.15045   0.12988   0.04732   0.00000  Uiso   1.00
C29    C     0.12900   0.09393   0.47887   0.00000  Uiso   1.00
C30    C     0.20432   0.23941   0.02113   0.00000  Uiso   1.00
H31    H     0.19491   0.22995   0.38761   0.00000  Uiso   1.00
H32    H     0.13841   0.10339   0.11239   0.00000  Uiso   1.00
H33    H     0.11418   0.06544   0.46242   0.00000  Uiso   1.00
H34    H     0.21914   0.26790   0.03758   0.00000  Uiso   1.00
H35    H     0.20906   0.04187   0.30443   0.00000  Uiso   1.00
H36    H     0.12428   0.29146   0.19557   0.00000  Uiso   1.00
H37    H     0.12425   0.04251   0.19558   0.00000  Uiso   1.00
H38    H     0.20908   0.29083   0.30442   0.00000  Uiso   1.00
N39    N     0.16667   0.28573   0.25000   0.00000  Uiso   1.00
N40    N     0.16667   0.04760   0.25000   0.00000  Uiso   1.00
O41    O     0.10559   0.20487   0.25000   0.00000  Uiso   1.00
O42    O     0.22774   0.12846   0.25001   0.00000  Uiso   1.00
O43    O     0.22774   0.20487   0.25001   0.00000  Uiso   1.00
O44    O     0.10559   0.12846   0.25000   0.00000  Uiso   1.00
O45    O     0.16666   0.20489   0.18393   0.00000  Uiso   1.00
O46    O     0.16667   0.12844   0.31608   0.00000  Uiso   1.00
O47    O     0.16667   0.20489   0.31608   0.00000  Uiso   1.00
O48    O     0.16666   0.12844   0.18393   0.00000  Uiso   1.00
Zn49   Zn    0.16667   0.21771   0.25000   0.00000  Uiso   1.00
Zn50   Zn    0.16667   0.11563   0.25000   0.00000  Uiso   1.00
C51    C     0.12080   0.09538   0.38411   0.00000  Uiso   1.00
N52    N     0.10247   0.06748   0.36527   0.00000  Uiso   1.00
C53    C     0.21256   0.23794   0.11589   0.00000  Uiso   1.00
N54    N     0.23092   0.26581   0.13473   0.00000  Uiso   1.00
C55    C     0.11366   0.05483   0.04807   0.00000  Uiso   1.00
N56    N     0.09958   0.02397   0.06659   0.00000  Uiso   1.00
C57    C     0.21967   0.27852   0.45193   0.00000  Uiso   1.00
N58    N     0.23375   0.30938   0.43341   0.00000  Uiso   1.00
C59    C     0.04320   0.12697   0.17697   0.00000  Uiso   1.00
N60    N     0.06065   0.11123   0.14736   0.00000  Uiso   1.00
C61    C     0.29013   0.20636   0.32303   0.00000  Uiso   1.00
N62    N     0.27268   0.22210   0.35264   0.00000  Uiso   1.00
C63    C     0.28773   0.12820   0.17674   0.00000  Uiso   1.00
N64    N     0.26910   0.11333   0.14702   0.00000  Uiso   1.00
C65    C     0.04560   0.20513   0.32327   0.00000  Uiso   1.00
N66    N     0.06423   0.22001   0.35298   0.00000  Uiso   1.00
C67    C     0.42017   0.16662   0.24974   0.00000  Uiso   1.00
C68    C     0.57983   0.16671   0.25026   0.00000  Uiso   1.00
C69    C     0.46462   0.09342   0.02489   0.00000  Uiso   1.00
C70    C     0.53536   0.23992   0.47511   0.00000  Uiso   1.00
C71    C     0.35441   0.14664   0.21408   0.00000  Uiso   1.00
C72    C     0.64559   0.18669   0.28593   0.00000  Uiso   1.00
C73    C     0.64446   0.14694   0.21409   0.00000  Uiso   1.00
C74    C     0.35554   0.18639   0.28591   0.00000  Uiso   1.00
C75    C     0.62400   0.16683   0.25009   0.00000  Uiso   1.00
C76    C     0.37600   0.16650   0.24991   0.00000  Uiso   1.00
C77    C     0.52356   0.02382   0.28026   0.00000  Uiso   1.00
C78    C     0.47644   0.30952   0.21975   0.00000  Uiso   1.00
C79    C     0.47643   0.02417   0.21975   0.00000  Uiso   1.00
C80    C     0.52357   0.30916   0.28025   0.00000  Uiso   1.00
C81    C     0.50147   0.16686   0.16343   0.00000  Uiso   1.00
C82    C     0.49853   0.16648   0.33657   0.00000  Uiso   1.00
C83    C     0.51454   0.20256   0.40667   0.00000  Uiso   1.00
C84    C     0.48545   0.13078   0.09334   0.00000  Uiso   1.00
C85    C     0.49638   0.16618   0.38444   0.00000  Uiso   1.00
C86    C     0.50361   0.16715   0.11556   0.00000  Uiso   1.00
C87    C     0.47714   0.13047   0.40777   0.00000  Uiso   1.00
C88    C     0.52286   0.20287   0.09223   0.00000  Uiso   1.00
C89    C     0.47917   0.13016   0.45432   0.00000  Uiso   1.00
C90    C     0.52082   0.20318   0.04568   0.00000  Uiso   1.00
C91    C     0.49888   0.16672   0.47674   0.00000  Uiso   1.00
C92    C     0.50111   0.16662   0.02326   0.00000  Uiso   1.00
C93    C     0.51620   0.20346   0.45268   0.00000  Uiso   1.00
C94    C     0.48378   0.12988   0.04732   0.00000  Uiso   1.00
C95    C     0.46233   0.09393   0.47887   0.00000  Uiso   1.00
C96    C     0.53766   0.23941   0.02113   0.00000  Uiso   1.00
H97    H     0.52824   0.22995   0.38761   0.00000  Uiso   1.00
H98    H     0.47175   0.10339   0.11239   0.00000  Uiso   1.00
H99    H     0.44752   0.06544   0.46242   0.00000  Uiso   1.00
H100   H     0.55247   0.26790   0.03758   0.00000  Uiso   1.00
H101   H     0.54239   0.04187   0.30443   0.00000  Uiso   1.00
H102   H     0.45761   0.29146   0.19557   0.00000  Uiso   1.00
H103   H     0.45758   0.04251   0.19558   0.00000  Uiso   1.00
H104   H     0.54242   0.29083   0.30442   0.00000  Uiso   1.00
N105   N     0.50000   0.28573   0.25000   0.00000  Uiso   1.00
N106   N     0.50000   0.04760   0.25000   0.00000  Uiso   1.00
O107   O     0.43892   0.20487   0.25000   0.00000  Uiso   1.00
O108   O     0.56108   0.12846   0.25001   0.00000  Uiso   1.00
O109   O     0.56108   0.20487   0.25001   0.00000  Uiso   1.00
O110   O     0.43892   0.12846   0.25000   0.00000  Uiso   1.00
O111   O     0.49999   0.20489   0.18393   0.00000  Uiso   1.00
O112   O     0.50001   0.12844   0.31608   0.00000  Uiso   1.00
O113   O     0.50001   0.20489   0.31608   0.00000  Uiso   1.00
O114   O     0.49999   0.12844   0.18393   0.00000  Uiso   1.00
Zn115  Zn    0.50000   0.21771   0.25000   0.00000  Uiso   1.00
Zn116  Zn    0.50000   0.11563   0.25000   0.00000  Uiso   1.00
C117   C     0.45413   0.09538   0.38411   0.00000  Uiso   1.00
N118   N     0.43580   0.06748   0.36527   0.00000  Uiso   1.00
C119   C     0.54589   0.23794   0.11589   0.00000  Uiso   1.00
N120   N     0.56425   0.26581   0.13473   0.00000  Uiso   1.00
C121   C     0.44699   0.05483   0.04807   0.00000  Uiso   1.00
N122   N     0.43291   0.02397   0.06659   0.00000  Uiso   1.00
C123   C     0.55300   0.27852   0.45193   0.00000  Uiso   1.00
N124   N     0.56708   0.30938   0.43341   0.00000  Uiso   1.00
C125   C     0.37653   0.12697   0.17697   0.00000  Uiso   1.00
N126   N     0.39398   0.11123   0.14736   0.00000  Uiso   1.00
C127   C     0.62347   0.20636   0.32303   0.00000  Uiso   1.00
N128   N     0.60602   0.22210   0.35264   0.00000  Uiso   1.00
C129   C     0.62106   0.12820   0.17674   0.00000  Uiso   1.00
N130   N     0.60244   0.11333   0.14702   0.00000  Uiso   1.00
C131   C     0.37894   0.20513   0.32327   0.00000  Uiso   1.00
N132   N     0.39756   0.22001   0.35298   0.00000  Uiso   1.00
C133   C     0.75350   0.16662   0.24974   0.00000  Uiso   1.00
C134   C     0.91317   0.16671   0.25026   0.00000  Uiso   1.00
C135   C     0.79795   0.09342   0.02489   0.00000  Uiso   1.00
C136   C     0.86870   0.23992   0.47511   0.00000  Uiso   1.00
C137   C     0.68774   0.14664   0.21408   0.00000  Uiso   1.00
C138   C     0.97893   0.18669   0.28593   0.00000  Uiso   1.00
C139   C     0.97779   0.14694   0.21409   0.00000  Uiso   1.00
C140   C     0.68887   0.18639   0.28591   0.00000  Uiso   1.00
C141   C     0.95733   0.16683   0.25009   0.00000  Uiso   1.00
C142   C     0.70933   0.16650   0.24991   0.00000  Uiso   1.00
C143   C     0.85689   0.02382   0.28026   0.00000  Uiso   1.00
C144   C     0.80977   0.30952   0.21975   0.00000  Uiso   1.00
C145   C     0.80976   0.02417   0.21975   0.00000  Uiso   1.00
C146   C     0.85690   0.30916   0.28025   0.00000  Uiso   1.00
C147   C     0.83481   0.16686   0.16343   0.00000  Uiso   1.00
C148   C     0.83186   0.16648   0.33657   0.00000  Uiso   1.00
C149   C     0.84787   0.20256   0.40667   0.00000  Uiso   1.00
C150   C     0.81878   0.13078   0.09334   0.00000  Uiso   1.00
C151   C     0.82972   0.16618   0.38444   0.00000  Uiso   1.00
C152   C     0.83695   0.16715   0.11556   0.00000  Uiso   1.00
C153   C     0.81047   0.13047   0.40777   0.00000  Uiso   1.00
C154   C     0.85619   0.20287   0.09223   0.00000  Uiso   1.00
C155   C     0.81251   0.13016   0.45432   0.00000  Uiso   1.00
C156   C     0.85415   0.20318   0.04568   0.00000  Uiso   1.00
C157   C     0.83221   0.16672   0.47674   0.00000  Uiso   1.00
C158   C     0.83444   0.16662   0.02326   0.00000  Uiso   1.00
C159   C     0.84954   0.20346   0.45268   0.00000  Uiso   1.00
C160   C     0.81711   0.12988   0.04732   0.00000  Uiso   1.00
C161   C     0.79567   0.09393   0.47887   0.00000  Uiso   1.00
C162   C     0.87099   0.23941   0.02113   0.00000  Uiso   1.00
H163   H     0.86157   0.22995   0.38761   0.00000  Uiso   1.00
H164   H     0.80508   0.10339   0.11239   0.00000  Uiso   1.00
H165   H     0.78085   0.06544   0.46242   0.00000  Uiso   1.00
H166   H     0.88581   0.26790   0.03758   0.00000  Uiso   1.00
H167   H     0.87572   0.04187   0.30443   0.00000  Uiso   1.00
H168   H     0.79094   0.29146   0.19557   0.00000  Uiso   1.00
H169   H     0.79092   0.04251   0.19558   0.00000  Uiso   1.00
H170   H     0.87575   0.29083   0.30442   0.00000  Uiso   1.00
N171   N     0.83333   0.28573   0.25000   0.00000  Uiso   1.00
N172   N     0.83333   0.04760   0.25000   0.00000  Uiso   1.00
O173   O     0.77226   0.20487   0.25000   0.00000  Uiso   1.00
O174   O     0.89441   0.12846   0.25001   0.00000  Uiso   1.00
O175   O     0.89441   0.20487   0.25001   0.00000  Uiso   1.00
O176   O     0.77226   0.12846   0.25000   0.00000  Uiso   1.00
O177   O     0.83333   0.20489   0.18393   0.00000  Uiso   1.00
O178   O     0.83334   0.12844   0.31608   0.00000  Uiso   1.00
O179   O     0.83334   0.20489   0.31608   0.00000  Uiso   1.00
O180   O     0.83333   0.12844   0.18393   0.00000  Uiso   1.00
Zn181  Zn    0.83333   0.21771   0.25000   0.00000  Uiso   1.00
Zn182  Zn    0.83333   0.11563   0.25000   0.00000  Uiso   1.00
C183   C     0.78747   0.09538   0.38411   0.00000  Uiso   1.00
N184   N     0.76913   0.06748   0.36527   0.00000  Uiso   1.00
C185   C     0.87922   0.23794   0.11589   0.00000  Uiso   1.00
N186   N     0.89758   0.26581   0.13473   0.00000  Uiso   1.00
C187   C     0.78032   0.05483   0.04807   0.00000  Uiso   1.00
N188   N     0.76624   0.02397   0.06659   0.00000  Uiso   1.00
C189   C     0.88633   0.27852   0.45193   0.00000  Uiso   1.00
N190   N     0.90041   0.30938   0.43341   0.00000  Uiso   1.00
C191   C     0.70987   0.12697   0.17697   0.00000  Uiso   1.00
N192   N     0.72732   0.11123   0.14736   0.00000  Uiso   1.00
C193   C     0.95680   0.20636   0.32303   0.00000  Uiso   1.00
N194   N     0.93935   0.22210   0.35264   0.00000  Uiso   1.00
C195   C     0.95440   0.12820   0.17674   0.00000  Uiso   1.00
N196   N     0.93577   0.11333   0.14702   0.00000  Uiso   1.00
C197   C     0.71227   0.20513   0.32327   0.00000  Uiso   1.00
N198   N     0.73090   0.22001   0.35298   0.00000  Uiso   1.00
C199   C     0.08683   0.49995   0.24974   0.00000  Uiso   1.00
C200   C     0.24650   0.50005   0.25026   0.00000  Uiso   1.00
C201   C     0.13129   0.42675   0.02489   0.00000  Uiso   1.00
C202   C     0.20203   0.57326   0.47511   0.00000  Uiso   1.00
C203   C     0.02107   0.47998   0.21408   0.00000  Uiso   1.00
C204   C     0.31226   0.52003   0.28593   0.00000  Uiso   1.00
C205   C     0.31113   0.48028   0.21409   0.00000  Uiso   1.00
C206   C     0.02221   0.51972   0.28591   0.00000  Uiso   1.00
C207   C     0.29066   0.50017   0.25009   0.00000  Uiso   1.00
C208   C     0.04267   0.49983   0.24991   0.00000  Uiso   1.00
C209   C     0.19023   0.35715   0.28026   0.00000  Uiso   1.00
C210   C     0.14311   0.64285   0.21975   0.00000  Uiso   1.00
C211   C     0.14310   0.35750   0.21975   0.00000  Uiso   1.00
C212   C     0.19024   0.64250   0.28025   0.00000  Uiso   1.00
C213   C     0.16814   0.50019   0.16343   0.00000  Uiso   1.00
C214   C     0.16519   0.49981   0.33657   0.00000  Uiso   1.00
C215   C     0.18120   0.53589   0.40667   0.00000  Uiso   1.00
C216   C     0.15212   0.46412   0.09334   0.00000  Uiso   1.00
C217   C     0.16305   0.49951   0.38444   0.00000  Uiso   1.00
C218   C     0.17028   0.50049   0.11556   0.00000  Uiso   1.00
C219   C     0.14381   0.46380   0.40777   0.00000  Uiso   1.00
C220   C     0.18953   0.53620   0.09223   0.00000  Uiso   1.00
C221   C     0.14584   0.46350   0.45432   0.00000  Uiso   1.00
C222   C     0.18748   0.53651   0.04568   0.00000  Uiso   1.00
C223   C     0.16554   0.50005   0.47674   0.00000  Uiso   1.00
C224   C     0.16777   0.49996   0.02326   0.00000  Uiso   1.00
C225   C     0.18287   0.53679   0.45268   0.00000  Uiso   1.00
C226   C     0.15045   0.46322   0.04732   0.00000  Uiso   1.00
C227   C     0.12900   0.42727   0.47887   0.00000  Uiso   1.00
C228   C     0.20432   0.57274   0.02113   0.00000  Uiso   1.00
H229   H     0.19491   0.56328   0.38761   0.00000  Uiso   1.00
H230   H     0.13841   0.43672   0.11239   0.00000  Uiso   1.00
H231   H     0.11418   0.39877   0.46242   0.00000  Uiso   1.00
H232   H     0.21914   0.60124   0.03758   0.00000  Uiso   1.00
H233   H     0.20906   0.37521   0.30443   0.00000  Uiso   1.00
H234   H     0.12428   0.62479   0.19557   0.00000  Uiso   1.00
H235   H     0.12425   0.37584   0.19558   0.00000  Uiso   1.00
H236   H     0.20908   0.62416   0.30442   0.00000  Uiso   1.00
N237   N     0.16667   0.61907   0.25000   0.00000  Uiso   1.00
N238   N     0.16667   0.38093   0.25000   0.00000  Uiso   1.00
O239   O     0.10559   0.53821   0.25000   0.00000  Uiso   1.00
O240   O     0.22774   0.46179   0.25001   0.00000  Uiso   1.00
O241   O     0.22774   0.53821   0.25001   0.00000  Uiso   1.00
O242   O     0.10559   0.46179   0.25000   0.00000  Uiso   1.00
O243   O     0.16666   0.53823   0.18393   0.00000  Uiso   1.00
O244   O     0.16667   0.46177   0.31608   0.00000  Uiso   1.00
O245   O     0.16667   0.53823   0.31608   0.00000  Uiso   1.00
O246   O     0.16666   0.46177   0.18393   0.00000  Uiso   1.00
Zn247  Zn    0.16667   0.55104   0.25000   0.00000  Uiso   1.00
Zn248  Zn    0.16667   0.44896   0.25000   0.00000  Uiso   1.00
C249   C     0.12080   0.42871   0.38411   0.00000  Uiso   1.00
N250   N     0.10247   0.40081   0.36527   0.00000  Uiso   1.00
C251   C     0.21256   0.57127   0.11589   0.00000  Uiso   1.00
N252   N     0.23092   0.59915   0.13473   0.00000  Uiso   1.00
C253   C     0.11366   0.38816   0.04807   0.00000  Uiso   1.00
N254   N     0.09958   0.35730   0.06659   0.00000  Uiso   1.00
C255   C     0.21967   0.61185   0.45193   0.00000  Uiso   1.00
N256   N     0.23375   0.64271   0.43341   0.00000  Uiso   1.00
C257   C     0.04320   0.46031   0.17697   0.00000  Uiso   1.00
N258   N     0.06065   0.44457   0.14736   0.00000  Uiso   1.00
C259   C     0.29013   0.53969   0.32303   0.00000  Uiso   1.00
N260   N     0.27268   0.55544   0.35264   0.00000  Uiso   1.00
C261   C     0.28773   0.46153   0.17674   0.00000  Uiso   1.00
N262   N     0.26910   0.44666   0.14702   0.00000  Uiso   1.00
C263   C     0.04560   0.53847   0.32327   0.00000  Uiso   1.00
N264   N     0.06423   0.55334   0.35298   0.00000  Uiso   1.00
C265   C     0.42017   0.49995   0.24974   0.00000  Uiso   1.00
C266   C     0.57983   0.50005   0.25026   0.00000  Uiso   1.00
C267   C     0.46462   0.42675   0.02489   0.00000  Uiso   1.00
C268   C     0.53536   0.57326   0.47511   0.00000  Uiso   1.00
C269   C     0.35441   0.47998   0.21408   0.00000  Uiso   1.00
C270   C     0.64559   0.52003   0.28593   0.00000  Uiso   1.00
C271   C     0.64446   0.48028   0.21409   0.00000  Uiso   1.00
C272   C     0.35554   0.51972   0.28591   0.00000  Uiso   1.00
C273   C     0.62400   0.50017   0.25009   0.00000  Uiso   1.00
C274   C     0.37600   0.49983   0.24991   0.00000  Uiso   1.00
C275   C     0.52356   0.35715   0.28026   0.00000  Uiso   1.00
C276   C     0.47644   0.64285   0.21975   0.00000  Uiso   1.00
C277   C     0.47643   0.35750   0.21975   0.00000  Uiso   1.00
C278   C     0.52357   0.64250   0.28025   0.00000  Uiso   1.00
C279   C     0.50147   0.50019   0.16343   0.00000  Uiso   1.00
C280   C     0.49853   0.49981   0.33657   0.00000  Uiso   1.00
C281   C     0.51454   0.53589   0.40667   0.00000  Uiso   1.00
C282   C     0.48545   0.46412   0.09334   0.00000  Uiso   1.00
C283   C     0.49638   0.49951   0.38444   0.00000  Uiso   1.00
C284   C     0.50361   0.50049   0.11556   0.00000  Uiso   1.00
C285   C     0.47714   0.46380   0.40777   0.00000  Uiso   1.00
C286   C     0.52286   0.53620   0.09223   0.00000  Uiso   1.00
C287   C     0.47917   0.46350   0.45432   0.00000  Uiso   1.00
C288   C     0.52082   0.53651   0.04568   0.00000  Uiso   1.00
C289   C     0.49888   0.50005   0.47674   0.00000  Uiso   1.00
C290   C     0.50111   0.49996   0.02326   0.00000  Uiso   1.00
C291   C     0.51620   0.53679   0.45268   0.00000  Uiso   1.00
C292   C     0.48378   0.46322   0.04732   0.00000  Uiso   1.00
C293   C     0.46233   0.42727   0.47887   0.00000  Uiso   1.00
C294   C     0.53766   0.57274   0.02113   0.00000  Uiso   1.00
H295   H     0.52824   0.56328   0.38761   0.00000  Uiso   1.00
H296   H     0.47175   0.43672   0.11239   0.00000  Uiso   1.00
H297   H     0.44752   0.39877   0.46242   0.00000  Uiso   1.00
H298   H     0.55247   0.60124   0.03758   0.00000  Uiso   1.00
H299   H     0.54239   0.37521   0.30443   0.00000  Uiso   1.00
H300   H     0.45761   0.62479   0.19557   0.00000  Uiso   1.00
H301   H     0.45758   0.37584   0.19558   0.00000  Uiso   1.00
H302   H     0.54242   0.62416   0.30442   0.00000  Uiso   1.00
N303   N     0.50000   0.61907   0.25000   0.00000  Uiso   1.00
N304   N     0.50000   0.38093   0.25000   0.00000  Uiso   1.00
O305   O     0.43892   0.53821   0.25000   0.00000  Uiso   1.00
O306   O     0.56108   0.46179   0.25001   0.00000  Uiso   1.00
O307   O     0.56108   0.53821   0.25001   0.00000  Uiso   1.00
O308   O     0.43892   0.46179   0.25000   0.00000  Uiso   1.00
O309   O     0.49999   0.53823   0.18393   0.00000  Uiso   1.00
O310   O     0.50001   0.46177   0.31608   0.00000  Uiso   1.00
O311   O     0.50001   0.53823   0.31608   0.00000  Uiso   1.00
O312   O     0.49999   0.46177   0.18393   0.00000  Uiso   1.00
Zn313  Zn    0.50000   0.55104   0.25000   0.00000  Uiso   1.00
Zn314  Zn    0.50000   0.44896   0.25000   0.00000  Uiso   1.00
C315   C     0.45413   0.42871   0.38411   0.00000  Uiso   1.00
N316   N     0.43580   0.40081   0.36527   0.00000  Uiso   1.00
C317   C     0.54589   0.57127   0.11589   0.00000  Uiso   1.00
N318   N     0.56425   0.59915   0.13473   0.00000  Uiso   1.00
C319   C     0.44699   0.38816   0.04807   0.00000  Uiso   1.00
N320   N     0.43291   0.35730   0.06659   0.00000  Uiso   1.00
C321   C     0.55300   0.61185   0.45193   0.00000  Uiso   1.00
N322   N     0.56708   0.64271   0.43341   0.00000  Uiso   1.00
C323   C     0.37653   0.46031   0.17697   0.00000  Uiso   1.00
N324   N     0.39398   0.44457   0.14736   0.00000  Uiso   1.00
C325   C     0.62347   0.53969   0.32303   0.00000  Uiso   1.00
N326   N     0.60602   0.55544   0.35264   0.00000  Uiso   1.00
C327   C     0.62106   0.46153   0.17674   0.00000  Uiso   1.00
N328   N     0.60244   0.44666   0.14702   0.00000  Uiso   1.00
C329   C     0.37894   0.53847   0.32327   0.00000  Uiso   1.00
N330   N     0.39756   0.55334   0.35298   0.00000  Uiso   1.00
C331   C     0.75350   0.49995   0.24974   0.00000  Uiso   1.00
C332   C     0.91317   0.50005   0.25026   0.00000  Uiso   1.00
C333   C     0.79795   0.42675   0.02489   0.00000  Uiso   1.00
C334   C     0.86870   0.57326   0.47511   0.00000  Uiso   1.00
C335   C     0.68774   0.47998   0.21408   0.00000  Uiso   1.00
C336   C     0.97893   0.52003   0.28593   0.00000  Uiso   1.00
C337   C     0.97779   0.48028   0.21409   0.00000  Uiso   1.00
C338   C     0.68887   0.51972   0.28591   0.00000  Uiso   1.00
C339   C     0.95733   0.50017   0.25009   0.00000  Uiso   1.00
C340   C     0.70933   0.49983   0.24991   0.00000  Uiso   1.00
C341   C     0.85689   0.35715   0.28026   0.00000  Uiso   1.00
C342   C     0.80977   0.64285   0.21975   0.00000  Uiso   1.00
C343   C     0.80976   0.35750   0.21975   0.00000  Uiso   1.00
C344   C     0.85690   0.64250   0.28025   0.00000  Uiso   1.00
C345   C     0.83481   0.50019   0.16343   0.00000  Uiso   1.00
C346   C     0.83186   0.49981   0.33657   0.00000  Uiso   1.00
C347   C     0.84787   0.53589   0.40667   0.00000  Uiso   1.00
C348   C     0.81878   0.46412   0.09334   0.00000  Uiso   1.00
C349   C     0.82972   0.49951   0.38444   0.00000  Uiso   1.00
C350   C     0.83695   0.50049   0.11556   0.00000  Uiso   1.00
C351   C     0.81047   0.46380   0.40777   0.00000  Uiso   1.00
C352   C     0.85619   0.53620   0.09223   0.00000  Uiso   1.00
C353   C     0.81251   0.46350   0.45432   0.00000  Uiso   1.00
C354   C     0.85415   0.53651   0.04568   0.00000  Uiso   1.00
C355   C     0.83221   0.50005   0.47674   0.00000  Uiso   1.00
C356   C     0.83444   0.49996   0.02326   0.00000  Uiso   1.00
C357   C     0.84954   0.53679   0.45268   0.00000  Uiso   1.00
C358   C     0.81711   0.46322   0.04732   0.00000  Uiso   1.00
C359   C     0.79567   0.42727   0.47887   0.00000  Uiso   1.00
C360   C     0.87099   0.57274   0.02113   0.00000  Uiso   1.00
H361   H     0.86157   0.56328   0.38761   0.00000  Uiso   1.00
H362   H     0.80508   0.43672   0.11239   0.00000  Uiso   1.00
H363   H     0.78085   0.39877   0.46242   0.00000  Uiso   1.00
H364   H     0.88581   0.60124   0.03758   0.00000  Uiso   1.00
H365   H     0.87572   0.37521   0.30443   0.00000  Uiso   1.00
H366   H     0.79094   0.62479   0.19557   0.00000  Uiso   1.00
H367   H     0.79092   0.37584   0.19558   0.00000  Uiso   1.00
H368   H     0.87575   0.62416   0.30442   0.00000  Uiso   1.00
N369   N     0.83333   0.61907   0.25000   0.00000  Uiso   1.00
N370   N     0.83333   0.38093   0.25000   0.00000  Uiso   1.00
O371   O     0.77226   0.53821   0.25000   0.00000  Uiso   1.00
O372   O     0.89441   0.46179   0.25001   0.00000  Uiso   1.00
O373   O     0.89441   0.53821   0.25001   0.00000  Uiso   1.00
O374   O     0.77226   0.46179   0.25000   0.00000  Uiso   1.00
O375   O     0.83333   0.53823   0.18393   0.00000  Uiso   1.00
O376   O     0.83334   0.46177   0.31608   0.00000  Uiso   1.00
O377   O     0.83334   0.53823   0.31608   0.00000  Uiso   1.00
O378   O     0.83333   0.46177   0.18393   0.00000  Uiso   1.00
Zn379  Zn    0.83333   0.55104   0.25000   0.00000  Uiso   1.00
Zn380  Zn    0.83333   0.44896   0.25000   0.00000  Uiso   1.00
C381   C     0.78747   0.42871   0.38411   0.00000  Uiso   1.00
N382   N     0.76913   0.40081   0.36527   0.00000  Uiso   1.00
C383   C     0.87922   0.57127   0.11589   0.00000  Uiso   1.00
N384   N     0.89758   0.59915   0.13473   0.00000  Uiso   1.00
C385   C     0.78032   0.38816   0.04807   0.00000  Uiso   1.00
N386   N     0.76624   0.35730   0.06659   0.00000  Uiso   1.00
C387   C     0.88633   0.61185   0.45193   0.00000  Uiso   1.00
N388   N     0.90041   0.64271   0.43341   0.00000  Uiso   1.00
C389   C     0.70987   0.46031   0.17697   0.00000  Uiso   1.00
N390   N     0.72732   0.44457   0.14736   0.00000  Uiso   1.00
C391   C     0.95680   0.53969   0.32303   0.00000  Uiso   1.00
N392   N     0.93935   0.55544   0.35264   0.00000  Uiso   1.00
C393   C     0.95440   0.46153   0.17674   0.00000  Uiso   1.00
N394   N     0.93577   0.44666   0.14702   0.00000  Uiso   1.00
C395   C     0.71227   0.53847   0.32327   0.00000  Uiso   1.00
N396   N     0.73090   0.55334   0.35298   0.00000  Uiso   1.00
C397   C     0.08683   0.83329   0.24974   0.00000  Uiso   1.00
C398   C     0.24650   0.83338   0.25026   0.00000  Uiso   1.00
C399   C     0.13129   0.76009   0.02489   0.00000  Uiso   1.00
C400   C     0.20203   0.90659   0.47511   0.00000  Uiso   1.00
C401   C     0.02107   0.81331   0.21408   0.00000  Uiso   1.00
C402   C     0.31226   0.85336   0.28593   0.00000  Uiso   1.00
C403   C     0.31113   0.81361   0.21409   0.00000  Uiso   1.00
C404   C     0.02221   0.85306   0.28591   0.00000  Uiso   1.00
C405   C     0.29066   0.83350   0.25009   0.00000  Uiso   1.00
C406   C     0.04267   0.83317   0.24991   0.00000  Uiso   1.00
C407   C     0.19023   0.69048   0.28026   0.00000  Uiso   1.00
C408   C     0.14311   0.97618   0.21975   0.00000  Uiso   1.00
C409   C     0.14310   0.69084   0.21975   0.00000  Uiso   1.00
C410   C     0.19024   0.97583   0.28025   0.00000  Uiso   1.00
C411   C     0.16814   0.83352   0.16343   0.00000  Uiso   1.00
C412   C     0.16519   0.83314   0.33657   0.00000  Uiso   1.00
C413   C     0.18120   0.86922   0.40667   0.00000  Uiso   1.00
C414   C     0.15212   0.79745   0.09334   0.00000  Uiso   1.00
C415   C     0.16305   0.83285   0.38444   0.00000  Uiso   1.00
C416   C     0.17028   0.83382   0.11556   0.00000  Uiso   1.00
C417   C     0.14381   0.79713   0.40777   0.00000  Uiso   1.00
C418   C     0.18953   0.86953   0.09223   0.00000  Uiso   1.00
C419   C     0.14584   0.79683   0.45432   0.00000  Uiso   1.00
C420   C     0.18748   0.86984   0.04568   0.00000  Uiso   1.00
C421   C     0.16554   0.83339   0.47674   0.00000  Uiso   1.00
C422   C     0.16777   0.83329   0.02326   0.00000  Uiso   1.00
C423   C     0.18287   0.87013   0.45268   0.00000  Uiso   1.00
C424   C     0.15045   0.79655   0.04732   0.00000  Uiso   1.00
C425   C     0.12900   0.76060   0.47887   0.00000  Uiso   1.00
C426   C     0.20432   0.90608   0.02113   0.00000  Uiso   1.00
H427   H     0.19491   0.89661   0.38761   0.00000  Uiso   1.00
H428   H     0.13841   0.77006   0.11239   0.00000  Uiso   1.00
H429   H     0.11418   0.73211   0.46242   0.00000  Uiso   1.00
H430   H     0.21914   0.93457   0.03758   0.00000  Uiso   1.00
H431   H     0.20906   0.70854   0.30443   0.00000  Uiso   1.00
H432   H     0.12428   0.95813   0.19557   0.00000  Uiso   1.00
H433   H     0.12425   0.70917   0.19558   0.00000  Uiso   1.00
H434   H     0.20908   0.95749   0.30442   0.00000  Uiso   1.00
N435   N     0.16667   0.95240   0.25000   0.00000  Uiso   1.00
N436   N     0.16667   0.71427   0.25000   0.00000  Uiso   1.00
O437   O     0.10559   0.87154   0.25000   0.00000  Uiso   1.00
O438   O     0.22774   0.79513   0.25001   0.00000  Uiso   1.00
O439   O     0.22774   0.87154   0.25001   0.00000  Uiso   1.00
O440   O     0.10559   0.79513   0.25000   0.00000  Uiso   1.00
O441   O     0.16666   0.87156   0.18393   0.00000  Uiso   1.00
O442   O     0.16667   0.79511   0.31608   0.00000  Uiso   1.00
O443   O     0.16667   0.87156   0.31608   0.00000  Uiso   1.00
O444   O     0.16666   0.79511   0.18393   0.00000  Uiso   1.00
Zn445  Zn    0.16667   0.88437   0.25000   0.00000  Uiso   1.00
Zn446  Zn    0.16667   0.78229   0.25000   0.00000  Uiso   1.00
C447   C     0.12080   0.76204   0.38411   0.00000  Uiso   1.00
N448   N     0.10247   0.73415   0.36527   0.00000  Uiso   1.00
C449   C     0.21256   0.90460   0.11589   0.00000  Uiso   1.00
N450   N     0.23092   0.93248   0.13473   0.00000  Uiso   1.00
C451   C     0.11366   0.72149   0.04807   0.00000  Uiso   1.00
N452   N     0.09958   0.69063   0.06659   0.00000  Uiso   1.00
C453   C     0.21967   0.94518   0.45193   0.00000  Uiso   1.00
N454   N     0.23375   0.97604   0.43341   0.00000  Uiso   1.00
C455   C     0.04320   0.79364   0.17697   0.00000  Uiso   1.00
N456   N     0.06065   0.77790   0.14736   0.00000  Uiso   1.00
C457   C     0.29013   0.87303   0.32303   0.00000  Uiso   1.00
N458   N     0.27268   0.88877   0.35264   0.00000  Uiso   1.00
C459   C     0.28773   0.79487   0.17674   0.00000  Uiso   1.00
N460   N     0.26910   0.77999   0.14702   0.00000  Uiso   1.00
C461   C     0.04560   0.87180   0.32327   0.00000  Uiso   1.00
N462   N     0.06423   0.88667   0.35298   0.00000  Uiso   1.00
C463   C     0.42017   0.83329   0.24974   0.00000  Uiso   1.00
C464   C     0.57983   0.83338   0.25026   0.00000  Uiso   1.00
C465   C     0.46462   0.76009   0.02489   0.00000  Uiso   1.00
C466   C     0.53536   0.90659   0.47511   0.00000  Uiso   1.00
C467   C     0.35441   0.81331   0.21408   0.00000  Uiso   1.00
C468   C     0.64559   0.85336   0.28593   0.00000  Uiso   1.00
C469   C     0.64446   0.81361   0.21409   0.00000  Uiso   1.00
C470   C     0.35554   0.85306   0.28591   0.00000  Uiso   1.00
C471   C     0.62400   0.83350   0.25009   0.00000  Uiso   1.00
C472   C     0.37600   0.83317   0.24991   0.00000  Uiso   1.00
C473   C     0.52356   0.69048   0.28026   0.00000  Uiso   1.00
C474   C     0.47644   0.97618   0.21975   0.00000  Uiso   1.00
C475   C     0.47643   0.69084   0.21975   0.00000  Uiso   1.00
C476   C     0.52357   0.97583   0.28025   0.00000  Uiso   1.00
C477   C     0.50147   0.83352   0.16343   0.00000  Uiso   1.00
C478   C     0.49853   0.83314   0.33657   0.00000  Uiso   1.00
C479   C     0.51454   0.86922   0.40667   0.00000  Uiso   1.00
C480   C     0.48545   0.79745   0.09334   0.00000  Uiso   1.00
C481   C     0.49638   0.83285   0.38444   0.00000  Uiso   1.00
C482   C     0.50361   0.83382   0.11556   0.00000  Uiso   1.00
C483   C     0.47714   0.79713   0.40777   0.00000  Uiso   1.00
C484   C     0.52286   0.86953   0.09223   0.00000  Uiso   1.00
C485   C     0.47917   0.79683   0.45432   0.00000  Uiso   1.00
C486   C     0.52082   0.86984   0.04568   0.00000  Uiso   1.00
C487   C     0.49888   0.83339   0.47674   0.00000  Uiso   1.00
C488   C     0.50111   0.83329   0.02326   0.00000  Uiso   1.00
C489   C     0.51620   0.87013   0.45268   0.00000  Uiso   1.00
C490   C     0.48378   0.79655   0.04732   0.00000  Uiso   1.00
C491   C     0.46233   0.76060   0.47887   0.00000  Uiso   1.00
C492   C     0.53766   0.90608   0.02113   0.00000  Uiso   1.00
H493   H     0.52824   0.89661   0.38761   0.00000  Uiso   1.00
H494   H     0.47175   0.77006   0.11239   0.00000  Uiso   1.00
H495   H     0.44752   0.73211   0.46242   0.00000  Uiso   1.00
H496   H     0.55247   0.93457   0.03758   0.00000  Uiso   1.00
H497   H     0.54239   0.70854   0.30443   0.00000  Uiso   1.00
H498   H     0.45761   0.95813   0.19557   0.00000  Uiso   1.00
H499   H     0.45758   0.70917   0.19558   0.00000  Uiso   1.00
H500   H     0.54242   0.95749   0.30442   0.00000  Uiso   1.00
N501   N     0.50000   0.95240   0.25000   0.00000  Uiso   1.00
N502   N     0.50000   0.71427   0.25000   0.00000  Uiso   1.00
O503   O     0.43892   0.87154   0.25000   0.00000  Uiso   1.00
O504   O     0.56108   0.79513   0.25001   0.00000  Uiso   1.00
O505   O     0.56108   0.87154   0.25001   0.00000  Uiso   1.00
O506   O     0.43892   0.79513   0.25000   0.00000  Uiso   1.00
O507   O     0.49999   0.87156   0.18393   0.00000  Uiso   1.00
O508   O     0.50001   0.79511   0.31608   0.00000  Uiso   1.00
O509   O     0.50001   0.87156   0.31608   0.00000  Uiso   1.00
O510   O     0.49999   0.79511   0.18393   0.00000  Uiso   1.00
Zn511  Zn    0.50000   0.88437   0.25000   0.00000  Uiso   1.00
Zn512  Zn    0.50000   0.78229   0.25000   0.00000  Uiso   1.00
C513   C     0.45413   0.76204   0.38411   0.00000  Uiso   1.00
N514   N     0.43580   0.73415   0.36527   0.00000  Uiso   1.00
C515   C     0.54589   0.90460   0.11589   0.00000  Uiso   1.00
N516   N     0.56425   0.93248   0.13473   0.00000  Uiso   1.00
C517   C     0.44699   0.72149   0.04807   0.00000  Uiso   1.00
N518   N     0.43291   0.69063   0.06659   0.00000  Uiso   1.00
C519   C     0.55300   0.94518   0.45193   0.00000  Uiso   1.00
N520   N     0.56708   0.97604   0.43341   0.00000  Uiso   1.00
C521   C     0.37653   0.79364   0.17697   0.00000  Uiso   1.00
N522   N     0.39398   0.77790   0.14736   0.00000  Uiso   1.00
C523   C     0.62347   0.87303   0.32303   0.00000  Uiso   1.00
N524   N     0.60602   0.88877   0.35264   0.00000  Uiso   1.00
C525   C     0.62106   0.79487   0.17674   0.00000  Uiso   1.00
N526   N     0.60244   0.77999   0.14702   0.00000  Uiso   1.00
C527   C     0.37894   0.87180   0.32327   0.00000  Uiso   1.00
N528   N     0.39756   0.88667   0.35298   0.00000  Uiso   1.00
C529   C     0.75350   0.83329   0.24974   0.00000  Uiso   1.00
C530   C     0.91317   0.83338   0.25026   0.00000  Uiso   1.00
C531   C     0.79795   0.76009   0.02489   0.00000  Uiso   1.00
C532   C     0.86870   0.90659   0.47511   0.00000  Uiso   1.00
C533   C     0.68774   0.81331   0.21408   0.00000  Uiso   1.00
C534   C     0.97893   0.85336   0.28593   0.00000  Uiso   1.00
C535   C     0.97779   0.81361   0.21409   0.00000  Uiso   1.00
C536   C     0.68887   0.85306   0.28591   0.00000  Uiso   1.00
C537   C     0.95733   0.83350   0.25009   0.00000  Uiso   1.00
C538   C     0.70933   0.83317   0.24991   0.00000  Uiso   1.00
C539   C     0.85689   0.69048   0.28026   0.00000  Uiso   1.00
C540   C     0.80977   0.97618   0.21975   0.00000  Uiso   1.00
C541   C     0.80976   0.69084   0.21975   0.00000  Uiso   1.00
C542   C     0.85690   0.97583   0.28025   0.00000  Uiso   1.00
C543   C     0.83481   0.83352   0.16343   0.00000  Uiso   1.00
C544   C     0.83186   0.83314   0.33657   0.00000  Uiso   1.00
C545   C     0.84787   0.86922   0.40667   0.00000  Uiso   1.00
C546   C     0.81878   0.79745   0.09334   0.00000  Uiso   1.00
C547   C     0.82972   0.83285   0.38444   0.00000  Uiso   1.00
C548   C     0.83695   0.83382   0.11556   0.00000  Uiso   1.00
C549   C     0.81047   0.79713   0.40777   0.00000  Uiso   1.00
C550   C     0.85619   0.86953   0.09223   0.00000  Uiso   1.00
C551   C     0.81251   0.79683   0.45432   0.00000  Uiso   1.00
C552   C     0.85415   0.86984   0.04568   0.00000  Uiso   1.00
C553   C     0.83221   0.83339   0.47674   0.00000  Uiso   1.00
C554   C     0.83444   0.83329   0.02326   0.00000  Uiso   1.00
C555   C     0.84954   0.87013   0.45268   0.00000  Uiso   1.00
C556   C     0.81711   0.79655   0.04732   0.00000  Uiso   1.00
C557   C     0.79567   0.76060   0.47887   0.00000  Uiso   1.00
C558   C     0.87099   0.90608   0.02113   0.00000  Uiso   1.00
H559   H     0.86157   0.89661   0.38761   0.00000  Uiso   1.00
H560   H     0.80508   0.77006   0.11239   0.00000  Uiso   1.00
H561   H     0.78085   0.73211   0.46242   0.00000  Uiso   1.00
H562   H     0.88581   0.93457   0.03758   0.00000  Uiso   1.00
H563   H     0.87572   0.70854   0.30443   0.00000  Uiso   1.00
H564   H     0.79094   0.95813   0.19557   0.00000  Uiso   1.00
H565   H     0.79092   0.70917   0.19558   0.00000  Uiso   1.00
H566   H     0.87575   0.95749   0.30442   0.00000  Uiso   1.00
N567   N     0.83333   0.95240   0.25000   0.00000  Uiso   1.00
N568   N     0.83333   0.71427   0.25000   0.00000  Uiso   1.00
O569   O     0.77226   0.87154   0.25000   0.00000  Uiso   1.00
O570   O     0.89441   0.79513   0.25001   0.00000  Uiso   1.00
O571   O     0.89441   0.87154   0.25001   0.00000  Uiso   1.00
O572   O     0.77226   0.79513   0.25000   0.00000  Uiso   1.00
O573   O     0.83333   0.87156   0.18393   0.00000  Uiso   1.00
O574   O     0.83334   0.79511   0.31608   0.00000  Uiso   1.00
O575   O     0.83334   0.87156   0.31608   0.00000  Uiso   1.00
O576   O     0.83333   0.79511   0.18393   0.00000  Uiso   1.00
Zn577  Zn    0.83333   0.88437   0.25000   0.00000  Uiso   1.00
Zn578  Zn    0.83333   0.78229   0.25000   0.00000  Uiso   1.00
C579   C     0.78747   0.76204   0.38411   0.00000  Uiso   1.00
N580   N     0.76913   0.73415   0.36527   0.00000  Uiso   1.00
C581   C     0.87922   0.90460   0.11589   0.00000  Uiso   1.00
N582   N     0.89758   0.93248   0.13473   0.00000  Uiso   1.00
C583   C     0.78032   0.72149   0.04807   0.00000  Uiso   1.00
N584   N     0.76624   0.69063   0.06659   0.00000  Uiso   1.00
C585   C     0.88633   0.94518   0.45193   0.00000  Uiso   1.00
N586   N     0.90041   0.97604   0.43341   0.00000  Uiso   1.00
C587   C     0.70987   0.79364   0.17697   0.00000  Uiso   1.00
N588   N     0.72732   0.77790   0.14736   0.00000  Uiso   1.00
C589   C     0.95680   0.87303   0.32303   0.00000  Uiso   1.00
N590   N     0.93935   0.88877   0.35264   0.00000  Uiso   1.00
C591   C     0.95440   0.79487   0.17674   0.00000  Uiso   1.00
N592   N     0.93577   0.77999   0.14702   0.00000  Uiso   1.00
C593   C     0.71227   0.87180   0.32327   0.00000  Uiso   1.00
N594   N     0.73090   0.88667   0.35298   0.00000  Uiso   1.00
C595   C     0.08683   0.16662   0.74974   0.00000  Uiso   1.00
C596   C     0.24650   0.16671   0.75026   0.00000  Uiso   1.00
C597   C     0.13129   0.09342   0.52489   0.00000  Uiso   1.00
C598   C     0.20203   0.23992   0.97511   0.00000  Uiso   1.00
C599   C     0.02107   0.14664   0.71408   0.00000  Uiso   1.00
C600   C     0.31226   0.18669   0.78593   0.00000  Uiso   1.00
C601   C     0.31113   0.14694   0.71409   0.00000  Uiso   1.00
C602   C     0.02221   0.18639   0.78591   0.00000  Uiso   1.00
C603   C     0.29066   0.16683   0.75009   0.00000  Uiso   1.00
C604   C     0.04267   0.16650   0.74991   0.00000  Uiso   1.00
C605   C     0.19023   0.02382   0.78026   0.00000  Uiso   1.00
C606   C     0.14311   0.30952   0.71975   0.00000  Uiso   1.00
C607   C     0.14310   0.02417   0.71975   0.00000  Uiso   1.00
C608   C     0.19024   0.30916   0.78025   0.00000  Uiso   1.00
C609   C     0.16814   0.16686   0.66343   0.00000  Uiso   1.00
C610   C     0.16519   0.16648   0.83657   0.00000  Uiso   1.00
C611   C     0.18120   0.20256   0.90667   0.00000  Uiso   1.00
C612   C     0.15212   0.13078   0.59334   0.00000  Uiso   1.00
C613   C     0.16305   0.16618   0.88444   0.00000  Uiso   1.00
C614   C     0.17028   0.16715   0.61556   0.00000  Uiso   1.00
C615   C     0.14381   0.13047   0.90777   0.00000  Uiso   1.00
C616   C     0.18953   0.20287   0.59223   0.00000  Uiso   1.00
C617   C     0.14584   0.13016   0.95432   0.00000  Uiso   1.00
C618   C     0.18748   0.20318   0.54568   0.00000  Uiso   1.00
C619   C     0.16554   0.16672   0.97674   0.00000  Uiso   1.00
C620   C     0.16777   0.16662   0.52326   0.00000  Uiso   1.00
C621   C     0.18287   0.20346   0.95268   0.00000  Uiso   1.00
C622   C     0.15045   0.12988   0.54732   0.00000  Uiso   1.00
C623   C     0.12900   0.09393   0.97887   0.00000  Uiso   1.00
C624   C     0.20432   0.23941   0.52113   0.00000  Uiso   1.00
H625   H     0.19491   0.22995   0.88761   0.00000  Uiso   1.00
H626   H     0.13841   0.10339   0.61239   0.00000  Uiso   1.00
H627   H     0.11418   0.06544   0.96242   0.00000  Uiso   1.00
H628   H     0.21914   0.26790   0.53758   0.00000  Uiso   1.00
H629   H     0.20906   0.04187   0.80443   0.00000  Uiso   1.00
H630   H     0.12428   0.29146   0.69557   0.00000  Uiso   1.00
H631   H     0.12425   0.04251   0.69558   0.00000  Uiso   1.00
H632   H     0.20908   0.29083   0.80442   0.00000  Uiso   1.00
N633   N     0.16667   0.28573   0.75000   0.00000  Uiso   1.00
N634   N     0.16667   0.04760   0.75000   0.00000  Uiso   1.00
O635   O     0.10559   0.20487   0.75000   0.00000  Uiso   1.00
O636   O     0.22774   0.12846   0.75001   0.00000  Uiso   1.00
O637   O     0.22774   0.20487   0.75001   0.00000  Uiso   1.00
O638   O     0.10559   0.12846   0.75000   0.00000  Uiso   1.00
O639   O     0.16666   0.20489   0.68393   0.00000  Uiso   1.00
O640   O     0.16667   0.12844   0.81608   0.00000  Uiso   1.00
O641   O     0.16667   0.20489   0.81608   0.00000  Uiso   1.00
O642   O     0.16666   0.12844   0.68393   0.00000  Uiso   1.00
Zn643  Zn    0.16667   0.21771   0.75000   0.00000  Uiso   1.00
Zn644  Zn    0.16667   0.11563   0.75000   0.00000  Uiso   1.00
C645   C     0.12080   0.09538   0.88411   0.00000  Uiso   1.00
N646   N     0.10247   0.06748   0.86527   0.00000  Uiso   1.00
C647   C     0.21256   0.23794   0.61589   0.00000  Uiso   1.00
N648   N     0.23092   0.26581   0.63473   0.00000  Uiso   1.00
C649   C     0.11366   0.05483   0.54807   0.00000  Uiso   1.00
N650   N     0.09958   0.02397   0.56659   0.00000  Uiso   1.00
C651   C     0.21967   0.27852   0.95193   0.00000  Uiso   1.00
N652   N     0.23375   0.30938   0.93341   0.00000  Uiso   1.00
C653   C     0.04320   0.12697   0.67697   0.00000  Uiso   1.00
N654   N     0.06065   0.11123   0.64736   0.00000  Uiso   1.00
C655   C     0.29013   0.20636   0.82303   0.00000  Uiso   1.00
N656   N     0.27268   0.22210   0.85264   0.00000  Uiso   1.00
C657   C     0.28773   0.12820   0.67674   0.00000  Uiso   1.00
N658   N     0.26910   0.11333   0.64702   0.00000  Uiso   1.00
C659   C     0.04560   0.20513   0.82327   0.00000  Uiso   1.00
N660   N     0.06423   0.22001   0.85298   0.00000  Uiso   1.00
C661   C     0.42017   0.16662   0.74974   0.00000  Uiso   1.00
C662   C     0.57983   0.16671   0.75026   0.00000  Uiso   1.00
C663   C     0.46462   0.09342   0.52489   0.00000  Uiso   1.00
C664   C     0.53536   0.23992   0.97511   0.00000  Uiso   1.00
C665   C     0.35441   0.14664   0.71408   0.00000  Uiso   1.00
C666   C     0.64559   0.18669   0.78593   0.00000  Uiso   1.00
C667   C     0.64446   0.14694   0.71409   0.00000  Uiso   1.00
C668   C     0.35554   0.18639   0.78591   0.00000  Uiso   1.00
C669   C     0.62400   0.16683   0.75009   0.00000  Uiso   1.00
C670   C     0.37600   0.16650   0.74991   0.00000  Uiso   1.00
C671   C     0.52356   0.02382   0.78026   0.00000  Uiso   1.00
C672   C     0.47644   0.30952   0.71975   0.00000  Uiso   1.00
C673   C     0.47643   0.02417   0.71975   0.00000  Uiso   1.00
C674   C     0.52357   0.30916   0.78025   0.00000  Uiso   1.00
C675   C     0.50147   0.16686   0.66343   0.00000  Uiso   1.00
C676   C     0.49853   0.16648   0.83657   0.00000  Uiso   1.00
C677   C     0.51454   0.20256   0.90667   0.00000  Uiso   1.00
C678   C     0.48545   0.13078   0.59334   0.00000  Uiso   1.00
C679   C     0.49638   0.16618   0.88444   0.00000  Uiso   1.00
C680   C     0.50361   0.16715   0.61556   0.00000  Uiso   1.00
C681   C     0.47714   0.13047   0.90777   0.00000  Uiso   1.00
C682   C     0.52286   0.20287   0.59223   0.00000  Uiso   1.00
C683   C     0.47917   0.13016   0.95432   0.00000  Uiso   1.00
C684   C     0.52082   0.20318   0.54568   0.00000  Uiso   1.00
C685   C     0.49888   0.16672   0.97674   0.00000  Uiso   1.00
C686   C     0.50111   0.16662   0.52326   0.00000  Uiso   1.00
C687   C     0.51620   0.20346   0.95268   0.00000  Uiso   1.00
C688   C     0.48378   0.12988   0.54732   0.00000  Uiso   1.00
C689   C     0.46233   0.09393   0.97887   0.00000  Uiso   1.00
C690   C     0.53766   0.23941   0.52113   0.00000  Uiso   1.00
H691   H     0.52824   0.22995   0.88761   0.00000  Uiso   1.00
H692   H     0.47175   0.10339   0.61239   0.00000  Uiso   1.00
H693   H     0.44752   0.06544   0.96242   0.00000  Uiso   1.00
H694   H     0.55247   0.26790   0.53758   0.00000  Uiso   1.00
H695   H     0.54239   0.04187   0.80443   0.00000  Uiso   1.00
H696   H     0.45761   0.29146   0.69557   0.00000  Uiso   1.00
H697   H     0.45758   0.04251   0.69558   0.00000  Uiso   1.00
H698   H     0.54242   0.29083   0.80442   0.00000  Uiso   1.00
N699   N     0.50000   0.28573   0.75000   0.00000  Uiso   1.00
N700   N     0.50000   0.04760   0.75000   0.00000  Uiso   1.00
O701   O     0.43892   0.20487   0.75000   0.00000  Uiso   1.00
O702   O     0.56108   0.12846   0.75001   0.00000  Uiso   1.00
O703   O     0.56108   0.20487   0.75001   0.00000  Uiso   1.00
O704   O     0.43892   0.12846   0.75000   0.00000  Uiso   1.00
O705   O     0.49999   0.20489   0.68393   0.00000  Uiso   1.00
O706   O     0.50001   0.12844   0.81608   0.00000  Uiso   1.00
O707   O     0.50001   0.20489   0.81608   0.00000  Uiso   1.00
O708   O     0.49999   0.12844   0.68393   0.00000  Uiso   1.00
Zn709  Zn    0.50000   0.21771   0.75000   0.00000  Uiso   1.00
Zn710  Zn    0.50000   0.11563   0.75000   0.00000  Uiso   1.00
C711   C     0.45413   0.09538   0.88411   0.00000  Uiso   1.00
N712   N     0.43580   0.06748   0.86527   0.00000  Uiso   1.00
C713   C     0.54589   0.23794   0.61589   0.00000  Uiso   1.00
N714   N     0.56425   0.26581   0.63473   0.00000  Uiso   1.00
C715   C     0.44699   0.05483   0.54807   0.00000  Uiso   1.00
N716   N     0.43291   0.02397   0.56659   0.00000  Uiso   1.00
C717   C     0.55300   0.27852   0.95193   0.00000  Uiso   1.00
N718   N     0.56708   0.30938   0.93341   0.00000  Uiso   1.00
C719   C     0.37653   0.12697   0.67697   0.00000  Uiso   1.00
N720   N     0.39398   0.11123   0.64736   0.00000  Uiso   1.00
C721   C     0.62347   0.20636   0.82303   0.00000  Uiso   1.00
N722   N     0.60602   0.22210   0.85264   0.00000  Uiso   1.00
C723   C     0.62106   0.12820   0.67674   0.00000  Uiso   1.00
N724   N     0.60244   0.11333   0.64702   0.00000  Uiso   1.00
C725   C     0.37894   0.20513   0.82327   0.00000  Uiso   1.00
N726   N     0.39756   0.22001   0.85298   0.00000  Uiso   1.00
C727   C     0.75350   0.16662   0.74974   0.00000  Uiso   1.00
C728   C     0.91317   0.16671   0.75026   0.00000  Uiso   1.00
C729   C     0.79795   0.09342   0.52489   0.00000  Uiso   1.00
C730   C     0.86870   0.23992   0.97511   0.00000  Uiso   1.00
C731   C     0.68774   0.14664   0.71408   0.00000  Uiso   1.00
C732   C     0.97893   0.18669   0.78593   0.00000  Uiso   1.00
C733   C     0.97779   0.14694   0.71409   0.00000  Uiso   1.00
C734   C     0.68887   0.18639   0.78591   0.00000  Uiso   1.00
C735   C     0.95733   0.16683   0.75009   0.00000  Uiso   1.00
C736   C     0.70933   0.16650   0.74991   0.00000  Uiso   1.00
C737   C     0.85689   0.02382   0.78026   0.00000  Uiso   1.00
C738   C     0.80977   0.30952   0.71975   0.00000  Uiso   1.00
C739   C     0.80976   0.02417   0.71975   0.00000  Uiso   1.00
C740   C     0.85690   0.30916   0.78025   0.00000  Uiso   1.00
C741   C     0.83481   0.16686   0.66343   0.00000  Uiso   1.00
C742   C     0.83186   0.16648   0.83657   0.00000  Uiso   1.00
C743   C     0.84787   0.20256   0.90667   0.00000  Uiso   1.00
C744   C     0.81878   0.13078   0.59334   0.00000  Uiso   1.00
C745   C     0.82972   0.16618   0.88444   0.00000  Uiso   1.00
C746   C     0.83695   0.16715   0.61556   0.00000  Uiso   1.00
C747   C     0.81047   0.13047   0.90777   0.00000  Uiso   1.00
C748   C     0.85619   0.20287   0.59223   0.00000  Uiso   1.00
C749   C     0.81251   0.13016   0.95432   0.00000  Uiso   1.00
C750   C     0.85415   0.20318   0.54568   0.00000  Uiso   1.00
C751   C     0.83221   0.16672   0.97674   0.00000  Uiso   1.00
C752   C     0.83444   0.16662   0.52326   0.00000  Uiso   1.00
C753   C     0.84954   0.20346   0.95268   0.00000  Uiso   1.00
C754   C     0.81711   0.12988   0.54732   0.00000  Uiso   1.00
C755   C     0.79567   0.09393   0.97887   0.00000  Uiso   1.00
C756   C     0.87099   0.23941   0.52113   0.00000  Uiso   1.00
H757   H     0.86157   0.22995   0.88761   0.00000  Uiso   1.00
H758   H     0.80508   0.10339   0.61239   0.00000  Uiso   1.00
H759   H     0.78085   0.06544   0.96242   0.00000  Uiso   1.00
H760   H     0.88581   0.26790   0.53758   0.00000  Uiso   1.00
H761   H     0.87572   0.04187   0.80443   0.00000  Uiso   1.00
H762   H     0.79094   0.29146   0.69557   0.00000  Uiso   1.00
H763   H     0.79092   0.04251   0.69558   0.00000  Uiso   1.00
H764   H     0.87575   0.29083   0.80442   0.00000  Uiso   1.00
N765   N     0.83333   0.28573   0.75000   0.00000  Uiso   1.00
N766   N     0.83333   0.04760   0.75000   0.00000  Uiso   1.00
O767   O     0.77226   0.20487   0.75000   0.00000  Uiso   1.00
O768   O     0.89441   0.12846   0.75001   0.00000  Uiso   1.00
O769   O     0.89441   0.20487   0.75001   0.00000  Uiso   1.00
O770   O     0.77226   0.12846   0.75000   0.00000  Uiso   1.00
O771   O     0.83333   0.20489   0.68393   0.00000  Uiso   1.00
O772   O     0.83334   0.12844   0.81608   0.00000  Uiso   1.00
O773   O     0.83334   0.20489   0.81608   0.00000  Uiso   1.00
O774   O     0.83333   0.12844   0.68393   0.00000  Uiso   1.00
Zn775  Zn    0.83333   0.21771   0.75000   0.00000  Uiso   1.00
Zn776  Zn    0.83333   0.11563   0.75000   0.00000  Uiso   1.00
C777   C     0.78747   0.09538   0.88411   0.00000  Uiso   1.00
N778   N     0.76913   0.06748   0.86527   0.00000  Uiso   1.00
C779   C     0.87922   0.23794   0.61589   0.00000  Uiso   1.00
N780   N     0.89758   0.26581   0.63473   0.00000  Uiso   1.00
C781   C     0.78032   0.05483   0.54807   0.00000  Uiso   1.00
N782   N     0.76624   0.02397   0.56659   0.00000  Uiso   1.00
C783   C     0.88633   0.27852   0.95193   0.00000  Uiso   1.00
N784   N     0.90041   0.30938   0.93341   0.00000  Uiso   1.00
C785   C     0.70987   0.12697   0.67697   0.00000  Uiso   1.00
N786   N     0.72732   0.11123   0.64736   0.00000  Uiso   1.00
C787   C     0.95680   0.20636   0.82303   0.00000  Uiso   1.00
N788   N     0.93935   0.22210   0.85264   0.00000  Uiso   1.00
C789   C     0.95440   0.12820   0.67674   0.00000  Uiso   1.00
N790   N     0.93577   0.11333   0.64702   0.00000  Uiso   1.00
C791   C     0.71227   0.20513   0.82327   0.00000  Uiso   1.00
N792   N     0.73090   0.22001   0.85298   0.00000  Uiso   1.00
C793   C     0.08683   0.49995   0.74974   0.00000  Uiso   1.00
C794   C     0.24650   0.50005   0.75026   0.00000  Uiso   1.00
C795   C     0.13129   0.42675   0.52489   0.00000  Uiso   1.00
C796   C     0.20203   0.57326   0.97511   0.00000  Uiso   1.00
C797   C     0.02107   0.47998   0.71408   0.00000  Uiso   1.00
C798   C     0.31226   0.52003   0.78593   0.00000  Uiso   1.00
C799   C     0.31113   0.48028   0.71409   0.00000  Uiso   1.00
C800   C     0.02221   0.51972   0.78591   0.00000  Uiso   1.00
C801   C     0.29066   0.50017   0.75009   0.00000  Uiso   1.00
C802   C     0.04267   0.49983   0.74991   0.00000  Uiso   1.00
C803   C     0.19023   0.35715   0.78026   0.00000  Uiso   1.00
C804   C     0.14311   0.64285   0.71975   0.00000  Uiso   1.00
C805   C     0.14310   0.35750   0.71975   0.00000  Uiso   1.00
C806   C     0.19024   0.64250   0.78025   0.00000  Uiso   1.00
C807   C     0.16814   0.50019   0.66343   0.00000  Uiso   1.00
C808   C     0.16519   0.49981   0.83657   0.00000  Uiso   1.00
C809   C     0.18120   0.53589   0.90667   0.00000  Uiso   1.00
C810   C     0.15212   0.46412   0.59334   0.00000  Uiso   1.00
C811   C     0.16305   0.49951   0.88444   0.00000  Uiso   1.00
C812   C     0.17028   0.50049   0.61556   0.00000  Uiso   1.00
C813   C     0.14381   0.46380   0.90777   0.00000  Uiso   1.00
C814   C     0.18953   0.53620   0.59223   0.00000  Uiso   1.00
C815   C     0.14584   0.46350   0.95432   0.00000  Uiso   1.00
C816   C     0.18748   0.53651   0.54568   0.00000  Uiso   1.00
C817   C     0.16554   0.50005   0.97674   0.00000  Uiso   1.00
C818   C     0.16777   0.49996   0.52326   0.00000  Uiso   1.00
C819   C     0.18287   0.53679   0.95268   0.00000  Uiso   1.00
C820   C     0.15045   0.46322   0.54732   0.00000  Uiso   1.00
C821   C     0.12900   0.42727   0.97887   0.00000  Uiso   1.00
C822   C     0.20432   0.57274   0.52113   0.00000  Uiso   1.00
H823   H     0.19491   0.56328   0.88761   0.00000  Uiso   1.00
H824   H     0.13841   0.43672   0.61239   0.00000  Uiso   1.00
H825   H     0.11418   0.39877   0.96242   0.00000  Uiso   1.00
H826   H     0.21914   0.60124   0.53758   0.00000  Uiso   1.00
H827   H     0.20906   0.37521   0.80443   0.00000  Uiso   1.00
H828   H     0.12428   0.62479   0.69557   0.00000  Uiso   1.00
H829   H     0.12425   0.37584   0.69558   0.00000  Uiso   1.00
H830   H     0.20908   0.62416   0.80442   0.00000  Uiso   1.00
N831   N     0.16667   0.61907   0.75000   0.00000  Uiso   1.00
N832   N     0.16667   0.38093   0.75000   0.00000  Uiso   1.00
O833   O     0.10559   0.53821   0.75000   0.00000  Uiso   1.00
O834   O     0.22774   0.46179   0.75001   0.00000  Uiso   1.00
O835   O     0.22774   0.53821   0.75001   0.00000  Uiso   1.00
O836   O     0.10559   0.46179   0.75000   0.00000  Uiso   1.00
O837   O     0.16666   0.53823   0.68393   0.00000  Uiso   1.00
O838   O     0.16667   0.46177   0.81608   0.00000  Uiso   1.00
O839   O     0.16667   0.53823   0.81608   0.00000  Uiso   1.00
O840   O     0.16666   0.46177   0.68393   0.00000  Uiso   1.00
Zn841  Zn    0.16667   0.55104   0.75000   0.00000  Uiso   1.00
Zn842  Zn    0.16667   0.44896   0.75000   0.00000  Uiso   1.00
C843   C     0.12080   0.42871   0.88411   0.00000  Uiso   1.00
N844   N     0.10247   0.40081   0.86527   0.00000  Uiso   1.00
C845   C     0.21256   0.57127   0.61589   0.00000  Uiso   1.00
N846   N     0.23092   0.59915   0.63473   0.00000  Uiso   1.00
C847   C     0.11366   0.38816   0.54807   0.00000  Uiso   1.00
N848   N     0.09958   0.35730   0.56659   0.00000  Uiso   1.00
C849   C     0.21967   0.61185   0.95193   0.00000  Uiso   1.00
N850   N     0.23375   0.64271   0.93341   0.00000  Uiso   1.00
C851   C     0.04320   0.46031   0.67697   0.00000  Uiso   1.00
N852   N     0.06065   0.44457   0.64736   0.00000  Uiso   1.00
C853   C     0.29013   0.53969   0.82303   0.00000  Uiso   1.00
N854   N     0.27268   0.55544   0.85264   0.00000  Uiso   1.00
C855   C     0.28773   0.46153   0.67674   0.00000  Uiso   1.00
N856   N     0.26910   0.44666   0.64702   0.00000  Uiso   1.00
C857   C     0.04560   0.53847   0.82327   0.00000  Uiso   1.00
N858   N     0.06423   0.55334   0.85298   0.00000  Uiso   1.00
C859   C     0.42017   0.49995   0.74974   0.00000  Uiso   1.00
C860   C     0.57983   0.50005   0.75026   0.00000  Uiso   1.00
C861   C     0.46462   0.42675   0.52489   0.00000  Uiso   1.00
C862   C     0.53536   0.57326   0.97511   0.00000  Uiso   1.00
C863   C     0.35441   0.47998   0.71408   0.00000  Uiso   1.00
C864   C     0.64559   0.52003   0.78593   0.00000  Uiso   1.00
C865   C     0.64446   0.48028   0.71409   0.00000  Uiso   1.00
C866   C     0.35554   0.51972   0.78591   0.00000  Uiso   1.00
C867   C     0.62400   0.50017   0.75009   0.00000  Uiso   1.00
C868   C     0.37600   0.49983   0.74991   0.00000  Uiso   1.00
C869   C     0.52356   0.35715   0.78026   0.00000  Uiso   1.00
C870   C     0.47644   0.64285   0.71975   0.00000  Uiso   1.00
C871   C     0.47643   0.35750   0.71975   0.00000  Uiso   1.00
C872   C     0.52357   0.64250   0.78025   0.00000  Uiso   1.00
C873   C     0.50147   0.50019   0.66343   0.00000  Uiso   1.00
C874   C     0.49853   0.49981   0.83657   0.00000  Uiso   1.00
C875   C     0.51454   0.53589   0.90667   0.00000  Uiso   1.00
C876   C     0.48545   0.46412   0.59334   0.00000  Uiso   1.00
C877   C     0.49638   0.49951   0.88444   0.00000  Uiso   1.00
C878   C     0.50361   0.50049   0.61556   0.00000  Uiso   1.00
C879   C     0.47714   0.46380   0.90777   0.00000  Uiso   1.00
C880   C     0.52286   0.53620   0.59223   0.00000  Uiso   1.00
C881   C     0.47917   0.46350   0.95432   0.00000  Uiso   1.00
C882   C     0.52082   0.53651   0.54568   0.00000  Uiso   1.00
C883   C     0.49888   0.50005   0.97674   0.00000  Uiso   1.00
C884   C     0.50111   0.49996   0.52326   0.00000  Uiso   1.00
C885   C     0.51620   0.53679   0.95268   0.00000  Uiso   1.00
C886   C     0.48378   0.46322   0.54732   0.00000  Uiso   1.00
C887   C     0.46233   0.42727   0.97887   0.00000  Uiso   1.00
C888   C     0.53766   0.57274   0.52113   0.00000  Uiso   1.00
H889   H     0.52824   0.56328   0.88761   0.00000  Uiso   1.00
H890   H     0.47175   0.43672   0.61239   0.00000  Uiso   1.00
H891   H     0.44752   0.39877   0.96242   0.00000  Uiso   1.00
H892   H     0.55247   0.60124   0.53758   0.00000  Uiso   1.00
H893   H     0.54239   0.37521   0.80443   0.00000  Uiso   1.00
H894   H     0.45761   0.62479   0.69557   0.00000  Uiso   1.00
H895   H     0.45758   0.37584   0.69558   0.00000  Uiso   1.00
H896   H     0.54242   0.62416   0.80442   0.00000  Uiso   1.00
N897   N     0.50000   0.61907   0.75000   0.00000  Uiso   1.00
N898   N     0.50000   0.38093   0.75000   0.00000  Uiso   1.00
O899   O     0.43892   0.53821   0.75000   0.00000  Uiso   1.00
O900   O     0.56108   0.46179   0.75001   0.00000  Uiso   1.00
O901   O     0.56108   0.53821   0.75001   0.00000  Uiso   1.00
O902   O     0.43892   0.46179   0.75000   0.00000  Uiso   1.00
O903   O     0.49999   0.53823   0.68393   0.00000  Uiso   1.00
O904   O     0.50001   0.46177   0.81608   0.00000  Uiso   1.00
O905   O     0.50001   0.53823   0.81608   0.00000  Uiso   1.00
O906   O     0.49999   0.46177   0.68393   0.00000  Uiso   1.00
Zn907  Zn    0.50000   0.55104   0.75000   0.00000  Uiso   1.00
Zn908  Zn    0.50000   0.44896   0.75000   0.00000  Uiso   1.00
C909   C     0.45413   0.42871   0.88411   0.00000  Uiso   1.00
N910   N     0.43580   0.40081   0.86527   0.00000  Uiso   1.00
C911   C     0.54589   0.57127   0.61589   0.00000  Uiso   1.00
N912   N     0.56425   0.59915   0.63473   0.00000  Uiso   1.00
C913   C     0.44699   0.38816   0.54807   0.00000  Uiso   1.00
N914   N     0.43291   0.35730   0.56659   0.00000  Uiso   1.00
C915   C     0.55300   0.61185   0.95193   0.00000  Uiso   1.00
N916   N     0.56708   0.64271   0.93341   0.00000  Uiso   1.00
C917   C     0.37653   0.46031   0.67697   0.00000  Uiso   1.00
N918   N     0.39398   0.44457   0.64736   0.00000  Uiso   1.00
C919   C     0.62347   0.53969   0.82303   0.00000  Uiso   1.00
N920   N     0.60602   0.55544   0.85264   0.00000  Uiso   1.00
C921   C     0.62106   0.46153   0.67674   0.00000  Uiso   1.00
N922   N     0.60244   0.44666   0.64702   0.00000  Uiso   1.00
C923   C     0.37894   0.53847   0.82327   0.00000  Uiso   1.00
N924   N     0.39756   0.55334   0.85298   0.00000  Uiso   1.00
C925   C     0.75350   0.49995   0.74974   0.00000  Uiso   1.00
C926   C     0.91317   0.50005   0.75026   0.00000  Uiso   1.00
C927   C     0.79795   0.42675   0.52489   0.00000  Uiso   1.00
C928   C     0.86870   0.57326   0.97511   0.00000  Uiso   1.00
C929   C     0.68774   0.47998   0.71408   0.00000  Uiso   1.00
C930   C     0.97893   0.52003   0.78593   0.00000  Uiso   1.00
C931   C     0.97779   0.48028   0.71409   0.00000  Uiso   1.00
C932   C     0.68887   0.51972   0.78591   0.00000  Uiso   1.00
C933   C     0.95733   0.50017   0.75009   0.00000  Uiso   1.00
C934   C     0.70933   0.49983   0.74991   0.00000  Uiso   1.00
C935   C     0.85689   0.35715   0.78026   0.00000  Uiso   1.00
C936   C     0.80977   0.64285   0.71975   0.00000  Uiso   1.00
C937   C     0.80976   0.35750   0.71975   0.00000  Uiso   1.00
C938   C     0.85690   0.64250   0.78025   0.00000  Uiso   1.00
C939   C     0.83481   0.50019   0.66343   0.00000  Uiso   1.00
C940   C     0.83186   0.49981   0.83657   0.00000  Uiso   1.00
C941   C     0.84787   0.53589   0.90667   0.00000  Uiso   1.00
C942   C     0.81878   0.46412   0.59334   0.00000  Uiso   1.00
C943   C     0.82972   0.49951   0.88444   0.00000  Uiso   1.00
C944   C     0.83695   0.50049   0.61556   0.00000  Uiso   1.00
C945   C     0.81047   0.46380   0.90777   0.00000  Uiso   1.00
C946   C     0.85619   0.53620   0.59223   0.00000  Uiso   1.00
C947   C     0.81251   0.46350   0.95432   0.00000  Uiso   1.00
C948   C     0.85415   0.53651   0.54568   0.00000  Uiso   1.00
C949   C     0.83221   0.50005   0.97674   0.00000  Uiso   1.00
C950   C     0.83444   0.49996   0.52326   0.00000  Uiso   1.00
C951   C     0.84954   0.53679   0.95268   0.00000  Uiso   1.00
C952   C     0.81711   0.46322   0.54732   0.00000  Uiso   1.00
C953   C     0.79567   0.42727   0.97887   0.00000  Uiso   1.00
C954   C     0.87099   0.57274   0.52113   0.00000  Uiso   1.00
H955   H     0.86157   0.56328   0.88761   0.00000  Uiso   1.00
H956   H     0.80508   0.43672   0.61239   0.00000  Uiso   1.00
H957   H     0.78085   0.39877   0.96242   0.00000  Uiso   1.00
H958   H     0.88581   0.60124   0.53758   0.00000  Uiso   1.00
H959   H     0.87572   0.37521   0.80443   0.00000  Uiso   1.00
H960   H     0.79094   0.62479   0.69557   0.00000  Uiso   1.00
H961   H     0.79092   0.37584   0.69558   0.00000  Uiso   1.00
H962   H     0.87575   0.62416   0.80442   0.00000  Uiso   1.00
N963   N     0.83333   0.61907   0.75000   0.00000  Uiso   1.00
N964   N     0.83333   0.38093   0.75000   0.00000  Uiso   1.00
O965   O     0.77226   0.53821   0.75000   0.00000  Uiso   1.00
O966   O     0.89441   0.46179   0.75001   0.00000  Uiso   1.00
O967   O     0.89441   0.53821   0.75001   0.00000  Uiso   1.00
O968   O     0.77226   0.46179   0.75000   0.00000  Uiso   1.00
O969   O     0.83333   0.53823   0.68393   0.00000  Uiso   1.00
O970   O     0.83334   0.46177   0.81608   0.00000  Uiso   1.00
O971   O     0.83334   0.53823   0.81608   0.00000  Uiso   1.00
O972   O     0.83333   0.46177   0.68393   0.00000  Uiso   1.00
Zn973  Zn    0.83333   0.55104   0.75000   0.00000  Uiso   1.00
Zn974  Zn    0.83333   0.44896   0.75000   0.00000  Uiso   1.00
C975   C     0.78747   0.42871   0.88411   0.00000  Uiso   1.00
N976   N     0.76913   0.40081   0.86527   0.00000  Uiso   1.00
C977   C     0.87922   0.57127   0.61589   0.00000  Uiso   1.00
N978   N     0.89758   0.59915   0.63473   0.00000  Uiso   1.00
C979   C     0.78032   0.38816   0.54807   0.00000  Uiso   1.00
N980   N     0.76624   0.35730   0.56659   0.00000  Uiso   1.00
C981   C     0.88633   0.61185   0.95193   0.00000  Uiso   1.00
N982   N     0.90041   0.64271   0.93341   0.00000  Uiso   1.00
C983   C     0.70987   0.46031   0.67697   0.00000  Uiso   1.00
N984   N     0.72732   0.44457   0.64736   0.00000  Uiso   1.00
C985   C     0.95680   0.53969   0.82303   0.00000  Uiso   1.00
N986   N     0.93935   0.55544   0.85264   0.00000  Uiso   1.00
C987   C     0.95440   0.46153   0.67674   0.00000  Uiso   1.00
N988   N     0.93577   0.44666   0.64702   0.00000  Uiso   1.00
C989   C     0.71227   0.53847   0.82327   0.00000  Uiso   1.00
N990   N     0.73090   0.55334   0.85298   0.00000  Uiso   1.00
C991   C     0.08683   0.83329   0.74974   0.00000  Uiso   1.00
C992   C     0.24650   0.83338   0.75026   0.00000  Uiso   1.00
C993   C     0.13129   0.76009   0.52489   0.00000  Uiso   1.00
C994   C     0.20203   0.90659   0.97511   0.00000  Uiso   1.00
C995   C     0.02107   0.81331   0.71408   0.00000  Uiso   1.00
C996   C     0.31226   0.85336   0.78593   0.00000  Uiso   1.00
C997   C     0.31113   0.81361   0.71409   0.00000  Uiso   1.00
C998   C     0.02221   0.85306   0.78591   0.00000  Uiso   1.00
C999   C     0.29066   0.83350   0.75009   0.00000  Uiso   1.00
C1000  C     0.04267   0.83317   0.74991   0.00000  Uiso   1.00
C1001  C     0.19023   0.69048   0.78026   0.00000  Uiso   1.00
C1002  C     0.14311   0.97618   0.71975   0.00000  Uiso   1.00
C1003  C     0.14310   0.69084   0.71975   0.00000  Uiso   1.00
C1004  C     0.19024   0.97583   0.78025   0.00000  Uiso   1.00
C1005  C     0.16814   0.83352   0.66343   0.00000  Uiso   1.00
C1006  C     0.16519   0.83314   0.83657   0.00000  Uiso   1.00
C1007  C     0.18120   0.86922   0.90667   0.00000  Uiso   1.00
C1008  C     0.15212   0.79745   0.59334   0.00000  Uiso   1.00
C1009  C     0.16305   0.83285   0.88444   0.00000  Uiso   1.00
C1010  C     0.17028   0.83382   0.61556   0.00000  Uiso   1.00
C1011  C     0.14381   0.79713   0.90777   0.00000  Uiso   1.00
C1012  C     0.18953   0.86953   0.59223   0.00000  Uiso   1.00
C1013  C     0.14584   0.79683   0.95432   0.00000  Uiso   1.00
C1014  C     0.18748   0.86984   0.54568   0.00000  Uiso   1.00
C1015  C     0.16554   0.83339   0.97674   0.00000  Uiso   1.00
C1016  C     0.16777   0.83329   0.52326   0.00000  Uiso   1.00
C1017  C     0.18287   0.87013   0.95268   0.00000  Uiso   1.00
C1018  C     0.15045   0.79655   0.54732   0.00000  Uiso   1.00
C1019  C     0.12900   0.76060   0.97887   0.00000  Uiso   1.00
C1020  C     0.20432   0.90608   0.52113   0.00000  Uiso   1.00
H1021  H     0.19491   0.89661   0.88761   0.00000  Uiso   1.00
H1022  H     0.13841   0.77006   0.61239   0.00000  Uiso   1.00
H1023  H     0.11418   0.73211   0.96242   0.00000  Uiso   1.00
H1024  H     0.21914   0.93457   0.53758   0.00000  Uiso   1.00
H1025  H     0.20906   0.70854   0.80443   0.00000  Uiso   1.00
H1026  H     0.12428   0.95813   0.69557   0.00000  Uiso   1.00
H1027  H     0.12425   0.70917   0.69558   0.00000  Uiso   1.00
H1028  H     0.20908   0.95749   0.80442   0.00000  Uiso   1.00
N1029  N     0.16667   0.95240   0.75000   0.00000  Uiso   1.00
N1030  N     0.16667   0.71427   0.75000   0.00000  Uiso   1.00
O1031  O     0.10559   0.87154   0.75000   0.00000  Uiso   1.00
O1032  O     0.22774   0.79513   0.75001   0.00000  Uiso   1.00
O1033  O     0.22774   0.87154   0.75001   0.00000  Uiso   1.00
O1034  O     0.10559   0.79513   0.75000   0.00000  Uiso   1.00
O1035  O     0.16666   0.87156   0.68393   0.00000  Uiso   1.00
O1036  O     0.16667   0.79511   0.81608   0.00000  Uiso   1.00
O1037  O     0.16667   0.87156   0.81608   0.00000  Uiso   1.00
O1038  O     0.16666   0.79511   0.68393   0.00000  Uiso   1.00
Zn1039 Zn    0.16667   0.88437   0.75000   0.00000  Uiso   1.00
Zn1040 Zn    0.16667   0.78229   0.75000   0.00000  Uiso   1.00
C1041  C     0.12080   0.76204   0.88411   0.00000  Uiso   1.00
N1042  N     0.10247   0.73415   0.86527   0.00000  Uiso   1.00
C1043  C     0.21256   0.90460   0.61589   0.00000  Uiso   1.00
N1044  N     0.23092   0.93248   0.63473   0.00000  Uiso   1.00
C1045  C     0.11366   0.72149   0.54807   0.00000  Uiso   1.00
N1046  N     0.09958   0.69063   0.56659   0.00000  Uiso   1.00
C1047  C     0.21967   0.94518   0.95193   0.00000  Uiso   1.00
N1048  N     0.23375   0.97604   0.93341   0.00000  Uiso   1.00
C1049  C     0.04320   0.79364   0.67697   0.00000  Uiso   1.00
N1050  N     0.06065   0.77790   0.64736   0.00000  Uiso   1.00
C1051  C     0.29013   0.87303   0.82303   0.00000  Uiso   1.00
N1052  N     0.27268   0.88877   0.85264   0.00000  Uiso   1.00
C1053  C     0.28773   0.79487   0.67674   0.00000  Uiso   1.00
N1054  N     0.26910   0.77999   0.64702   0.00000  Uiso   1.00
C1055  C     0.04560   0.87180   0.82327   0.00000  Uiso   1.00
N1056  N     0.06423   0.88667   0.85298   0.00000  Uiso   1.00
C1057  C     0.42017   0.83329   0.74974   0.00000  Uiso   1.00
C1058  C     0.57983   0.83338   0.75026   0.00000  Uiso   1.00
C1059  C     0.46462   0.76009   0.52489   0.00000  Uiso   1.00
C1060  C     0.53536   0.90659   0.97511   0.00000  Uiso   1.00
C1061  C     0.35441   0.81331   0.71408   0.00000  Uiso   1.00
C1062  C     0.64559   0.85336   0.78593   0.00000  Uiso   1.00
C1063  C     0.64446   0.81361   0.71409   0.00000  Uiso   1.00
C1064  C     0.35554   0.85306   0.78591   0.00000  Uiso   1.00
C1065  C     0.62400   0.83350   0.75009   0.00000  Uiso   1.00
C1066  C     0.37600   0.83317   0.74991   0.00000  Uiso   1.00
C1067  C     0.52356   0.69048   0.78026   0.00000  Uiso   1.00
C1068  C     0.47644   0.97618   0.71975   0.00000  Uiso   1.00
C1069  C     0.47643   0.69084   0.71975   0.00000  Uiso   1.00
C1070  C     0.52357   0.97583   0.78025   0.00000  Uiso   1.00
C1071  C     0.50147   0.83352   0.66343   0.00000  Uiso   1.00
C1072  C     0.49853   0.83314   0.83657   0.00000  Uiso   1.00
C1073  C     0.51454   0.86922   0.90667   0.00000  Uiso   1.00
C1074  C     0.48545   0.79745   0.59334   0.00000  Uiso   1.00
C1075  C     0.49638   0.83285   0.88444   0.00000  Uiso   1.00
C1076  C     0.50361   0.83382   0.61556   0.00000  Uiso   1.00
C1077  C     0.47714   0.79713   0.90777   0.00000  Uiso   1.00
C1078  C     0.52286   0.86953   0.59223   0.00000  Uiso   1.00
C1079  C     0.47917   0.79683   0.95432   0.00000  Uiso   1.00
C1080  C     0.52082   0.86984   0.54568   0.00000  Uiso   1.00
C1081  C     0.49888   0.83339   0.97674   0.00000  Uiso   1.00
C1082  C     0.50111   0.83329   0.52326   0.00000  Uiso   1.00
C1083  C     0.51620   0.87013   0.95268   0.00000  Uiso   1.00
C1084  C     0.48378   0.79655   0.54732   0.00000  Uiso   1.00
C1085  C     0.46233   0.76060   0.97887   0.00000  Uiso   1.00
C1086  C     0.53766   0.90608   0.52113   0.00000  Uiso   1.00
H1087  H     0.52824   0.89661   0.88761   0.00000  Uiso   1.00
H1088  H     0.47175   0.77006   0.61239   0.00000  Uiso   1.00
H1089  H     0.44752   0.73211   0.96242   0.00000  Uiso   1.00
H1090  H     0.55247   0.93457   0.53758   0.00000  Uiso   1.00
H1091  H     0.54239   0.70854   0.80443   0.00000  Uiso   1.00
H1092  H     0.45761   0.95813   0.69557   0.00000  Uiso   1.00
H1093  H     0.45758   0.70917   0.69558   0.00000  Uiso   1.00
H1094  H     0.54242   0.95749   0.80442   0.00000  Uiso   1.00
N1095  N     0.50000   0.95240   0.75000   0.00000  Uiso   1.00
N1096  N     0.50000   0.71427   0.75000   0.00000  Uiso   1.00
O1097  O     0.43892   0.87154   0.75000   0.00000  Uiso   1.00
O1098  O     0.56108   0.79513   0.75001   0.00000  Uiso   1.00
O1099  O     0.56108   0.87154   0.75001   0.00000  Uiso   1.00
O1100  O     0.43892   0.79513   0.75000   0.00000  Uiso   1.00
O1101  O     0.49999   0.87156   0.68393   0.00000  Uiso   1.00
O1102  O     0.50001   0.79511   0.81608   0.00000  Uiso   1.00
O1103  O     0.50001   0.87156   0.81608   0.00000  Uiso   1.00
O1104  O     0.49999   0.79511   0.68393   0.00000  Uiso   1.00
Zn1105 Zn    0.50000   0.88437   0.75000   0.00000  Uiso   1.00
Zn1106 Zn    0.50000   0.78229   0.75000   0.00000  Uiso   1.00
C1107  C     0.45413   0.76204   0.88411   0.00000  Uiso   1.00
N1108  N     0.43580   0.73415   0.86527   0.00000  Uiso   1.00
C1109  C     0.54589   0.90460   0.61589   0.00000  Uiso   1.00
N1110  N     0.56425   0.93248   0.63473   0.00000  Uiso   1.00
C1111  C     0.44699   0.72149   0.54807   0.00000  Uiso   1.00
N1112  N     0.43291   0.69063   0.56659   0.00000  Uiso   1.00
C1113  C     0.55300   0.94518   0.95193   0.00000  Uiso   1.00
N1114  N     0.56708   0.97604   0.93341   0.00000  Uiso   1.00
C1115  C     0.37653   0.79364   0.67697   0.00000  Uiso   1.00
N1116  N     0.39398   0.77790   0.64736   0.00000  Uiso   1.00
C1117  C     0.62347   0.87303   0.82303   0.00000  Uiso   1.00
N1118  N     0.60602   0.88877   0.85264   0.00000  Uiso   1.00
C1119  C     0.62106   0.79487   0.67674   0.00000  Uiso   1.00
N1120  N     0.60244   0.77999   0.64702   0.00000  Uiso   1.00
C1121  C     0.37894   0.87180   0.82327   0.00000  Uiso   1.00
N1122  N     0.39756   0.88667   0.85298   0.00000  Uiso   1.00
C1123  C     0.75350   0.83329   0.74974   0.00000  Uiso   1.00
C1124  C     0.91317   0.83338   0.75026   0.00000  Uiso   1.00
C1125  C     0.79795   0.76009   0.52489   0.00000  Uiso   1.00
C1126  C     0.86870   0.90659   0.97511   0.00000  Uiso   1.00
C1127  C     0.68774   0.81331   0.71408   0.00000  Uiso   1.00
C1128  C     0.97893   0.85336   0.78593   0.00000  Uiso   1.00
C1129  C     0.97779   0.81361   0.71409   0.00000  Uiso   1.00
C1130  C     0.68887   0.85306   0.78591   0.00000  Uiso   1.00
C1131  C     0.95733   0.83350   0.75009   0.00000  Uiso   1.00
C1132  C     0.70933   0.83317   0.74991   0.00000  Uiso   1.00
C1133  C     0.85689   0.69048   0.78026   0.00000  Uiso   1.00
C1134  C     0.80977   0.97618   0.71975   0.00000  Uiso   1.00
C1135  C     0.80976   0.69084   0.71975   0.00000  Uiso   1.00
C1136  C     0.85690   0.97583   0.78025   0.00000  Uiso   1.00
C1137  C     0.83481   0.83352   0.66343   0.00000  Uiso   1.00
C1138  C     0.83186   0.83314   0.83657   0.00000  Uiso   1.00
C1139  C     0.84787   0.86922   0.90667   0.00000  Uiso   1.00
C1140  C     0.81878   0.79745   0.59334   0.00000  Uiso   1.00
C1141  C     0.82972   0.83285   0.88444   0.00000  Uiso   1.00
C1142  C     0.83695   0.83382   0.61556   0.00000  Uiso   1.00
C1143  C     0.81047   0.79713   0.90777   0.00000  Uiso   1.00
C1144  C     0.85619   0.86953   0.59223   0.00000  Uiso   1.00
C1145  C     0.81251   0.79683   0.95432   0.00000  Uiso   1.00
C1146  C     0.85415   0.86984   0.54568   0.00000  Uiso   1.00
C1147  C     0.83221   0.83339   0.97674   0.00000  Uiso   1.00
C1148  C     0.83444   0.83329   0.52326   0.00000  Uiso   1.00
C1149  C     0.84954   0.87013   0.95268   0.00000  Uiso   1.00
C1150  C     0.81711   0.79655   0.54732   0.00000  Uiso   1.00
C1151  C     0.79567   0.76060   0.97887   0.00000  Uiso   1.00
C1152  C     0.87099   0.90608   0.52113   0.00000  Uiso   1.00
H1153  H     0.86157   0.89661   0.88761   0.00000  Uiso   1.00
H1154  H     0.80508   0.77006   0.61239   0.00000  Uiso   1.00
H1155  H     0.78085   0.73211   0.96242   0.00000  Uiso   1.00
H1156  H     0.88581   0.93457   0.53758   0.00000  Uiso   1.00
H1157  H     0.87572   0.70854   0.80443   0.00000  Uiso   1.00
H1158  H     0.79094   0.95813   0.69557   0.00000  Uiso   1.00
H1159  H     0.79092   0.70917   0.69558   0.00000  Uiso   1.00
H1160  H     0.87575   0.95749   0.80442   0.00000  Uiso   1.00
N1161  N     0.83333   0.95240   0.75000   0.00000  Uiso   1.00
N1162  N     0.83333   0.71427   0.75000   0.00000  Uiso   1.00
O1163  O     0.77226   0.87154   0.75000   0.00000  Uiso   1.00
O1164  O     0.89441   0.79513   0.75001   0.00000  Uiso   1.00
O1165  O     0.89441   0.87154   0.75001   0.00000  Uiso   1.00
O1166  O     0.77226   0.79513   0.75000   0.00000  Uiso   1.00
O1167  O     0.83333   0.87156   0.68393   0.00000  Uiso   1.00
O1168  O     0.83334   0.79511   0.81608   0.00000  Uiso   1.00
O1169  O     0.83334   0.87156   0.81608   0.00000  Uiso   1.00
O1170  O     0.83333   0.79511   0.68393   0.00000  Uiso   1.00
Zn1171 Zn    0.83333   0.88437   0.75000   0.00000  Uiso   1.00
Zn1172 Zn    0.83333   0.78229   0.75000   0.00000  Uiso   1.00
C1173  C     0.78747   0.76204   0.88411   0.00000  Uiso   1.00
N1174  N     0.76913   0.73415   0.86527   0.00000  Uiso   1.00
C1175  C     0.87922   0.90460   0.61589   0.00000  Uiso   1.00
N1176  N     0.89758   0.93248   0.63473   0.00000  Uiso   1.00
C1177  C     0.78032   0.72149   0.54807   0.00000  Uiso   1.00
N1178  N     0.76624   0.69063   0.56659   0.00000  Uiso   1.00
C1179  C     0.88633   0.94518   0.95193   0.00000  Uiso   1.00
N1180  N     0.90041   0.97604   0.93341   0.00000  Uiso   1.00
C1181  C     0.70987   0.79364   0.67697   0.00000  Uiso   1.00
N1182  N     0.72732   0.77790   0.64736   0.00000  Uiso   1.00
C1183  C     0.95680   0.87303   0.82303   0.00000  Uiso   1.00
N1184  N     0.93935   0.88877   0.85264   0.00000  Uiso   1.00
C1185  C     0.95440   0.79487   0.67674   0.00000  Uiso   1.00
N1186  N     0.93577   0.77999   0.64702   0.00000  Uiso   1.00
C1187  C     0.71227   0.87180   0.82327   0.00000  Uiso   1.00
N1188  N     0.73090   0.88667   0.85298   0.00000  Uiso   1.00
loop_
_geom_bond_atom_site_label_1
_geom_bond_atom_site_label_2
_geom_bond_distance
_geom_bond_site_symmetry_2
_ccdc_geom_bond_type
C1     O44     1.276   .     A
C1     O41     1.277   .     A
C1     C10     1.413   .     S
C2     O43     1.276   .     A
C2     O42     1.277   .     A
C2     C9      1.413   .     S
C3     C55     1.448   .     S
C3     C28     1.410   .     A
C3     C623    1.386   1_554 S
C4     C57     1.448   .     S
C4     C27     1.410   .     A
C4     C624    1.386   .     S
C5     C10     1.405   .     A
C5     C59     1.453   .     S
C5     C139    1.385   1_455 S
C6     C9      1.405   .     A
C6     C61     1.453   .     S
C6     C74     1.385   .     S
C7     C9      1.404   .     A
C7     C63     1.455   .     S
C7     C71     1.385   .     S
C8     C65     1.455   .     S
C8     C10     1.404   .     A
C8     C138    1.385   1_455 S
C11    H35     1.082   .     S
C11    N40     1.366   .     A
C11    C410    1.416   1_545 S
C12    N39     1.366   .     A
C12    H36     1.082   .     S
C12    C211    1.416   .     S
C13    N40     1.366   .     A
C13    H37     1.082   .     S
C13    C408    1.416   1_545 S
C14    H38     1.082   .     S
C14    N39     1.366   .     A
C14    C209    1.416   .     S
C15    O48     1.288   .     A
C15    C20     1.442   .     S
C15    O45     1.285   .     A
C16    C19     1.442   .     S
C16    O47     1.288   .     A
C16    O46     1.285   .     A
C17    C19     1.391   .     A
C17    H31     1.083   .     S
C17    C27     1.385   .     A
C18    H32     1.083   .     S
C18    C20     1.391   .     A
C18    C28     1.385   .     A
C19    C21     1.407   .     A
C20    C22     1.407   .     A
C21    C51     1.455   .     S
C21    C23     1.401   .     A
C22    C53     1.455   .     S
C22    C24     1.401   .     A
C23    C29     1.405   .     A
C23    C25     1.419   .     A
C24    C30     1.405   .     A
C24    C26     1.419   .     A
C25    C27     1.415   .     A
C25    C620    1.400   .     S
C26    C28     1.415   .     A
C26    C619    1.400   1_554 S
C29    H33     1.084   .     S
C29    C597    1.386   .     S
C30    H34     1.084   .     S
C30    C598    1.386   1_554 S
N39    Zn49    2.007   .     S
N40    Zn50    2.007   .     S
O41    Zn49    1.990   .     S
O42    Zn50    1.990   .     S
O43    Zn49    1.991   .     S
O44    Zn50    1.991   .     S
O45    Zn49    2.026   .     S
O46    Zn50    2.026   .     S
O47    Zn49    2.021   .     S
O48    Zn50    2.021   .     S
C51    N52     1.158   .     T
C53    N54     1.158   .     T
C55    N56     1.158   .     T
C57    N58     1.158   .     T
C59    N60     1.157   .     T
C61    N62     1.157   .     T
C63    N64     1.157   .     T
C65    N66     1.157   .     T
C67    O110    1.276   .     A
C67    O107    1.277   .     A
C67    C76     1.413   .     S
C68    O109    1.276   .     A
C68    O108    1.277   .     A
C68    C75     1.413   .     S
C69    C121    1.448   .     S
C69    C94     1.410   .     A
C69    C689    1.386   1_554 S
C70    C123    1.448   .     S
C70    C93     1.410   .     A
C70    C690    1.386   .     S
C71    C76     1.405   .     A
C71    C125    1.453   .     S
C72    C75     1.405   .     A
C72    C127    1.453   .     S
C72    C140    1.385   .     S
C73    C75     1.404   .     A
C73    C129    1.455   .     S
C73    C137    1.385   .     S
C74    C131    1.455   .     S
C74    C76     1.404   .     A
C77    H101    1.082   .     S
C77    N106    1.366   .     A
C77    C476    1.416   1_545 S
C78    N105    1.366   .     A
C78    H102    1.082   .     S
C78    C277    1.416   .     S
C79    N106    1.366   .     A
C79    H103    1.082   .     S
C79    C474    1.416   1_545 S
C80    H104    1.082   .     S
C80    N105    1.366   .     A
C80    C275    1.416   .     S
C81    O114    1.288   .     A
C81    C86     1.442   .     S
C81    O111    1.285   .     A
C82    C85     1.442   .     S
C82    O113    1.288   .     A
C82    O112    1.285   .     A
C83    C85     1.391   .     A
C83    H97     1.083   .     S
C83    C93     1.385   .     A
C84    H98     1.083   .     S
C84    C86     1.391   .     A
C84    C94     1.385   .     A
C85    C87     1.407   .     A
C86    C88     1.407   .     A
C87    C117    1.455   .     S
C87    C89     1.401   .     A
C88    C119    1.455   .     S
C88    C90     1.401   .     A
C89    C95     1.405   .     A
C89    C91     1.419   .     A
C90    C96     1.405   .     A
C90    C92     1.419   .     A
C91    C93     1.415   .     A
C91    C686    1.400   .     S
C92    C94     1.415   .     A
C92    C685    1.400   1_554 S
C95    H99     1.084   .     S
C95    C663    1.386   .     S
C96    H100    1.084   .     S
C96    C664    1.386   1_554 S
N105   Zn115   2.007   .     S
N106   Zn116   2.007   .     S
O107   Zn115   1.990   .     S
O108   Zn116   1.990   .     S
O109   Zn115   1.991   .     S
O110   Zn116   1.991   .     S
O111   Zn115   2.026   .     S
O112   Zn116   2.026   .     S
O113   Zn115   2.021   .     S
O114   Zn116   2.021   .     S
C117   N118    1.158   .     T
C119   N120    1.158   .     T
C121   N122    1.158   .     T
C123   N124    1.158   .     T
C125   N126    1.157   .     T
C127   N128    1.157   .     T
C129   N130    1.157   .     T
C131   N132    1.157   .     T
C133   O176    1.276   .     A
C133   O173    1.277   .     A
C133   C142    1.413   .     S
C134   O175    1.276   .     A
C134   O174    1.277   .     A
C134   C141    1.413   .     S
C135   C187    1.448   .     S
C135   C160    1.410   .     A
C135   C755    1.386   1_554 S
C136   C189    1.448   .     S
C136   C159    1.410   .     A
C136   C756    1.386   .     S
C137   C142    1.405   .     A
C137   C191    1.453   .     S
C138   C141    1.405   .     A
C138   C193    1.453   .     S
C138   C8      1.385   1_655 S
C139   C141    1.404   .     A
C139   C195    1.455   .     S
C139   C5      1.385   1_655 S
C140   C197    1.455   .     S
C140   C142    1.404   .     A
C143   H167    1.082   .     S
C143   N172    1.366   .     A
C143   C542    1.416   1_545 S
C144   N171    1.366   .     A
C144   H168    1.082   .     S
C144   C343    1.416   .     S
C145   N172    1.366   .     A
C145   H169    1.082   .     S
C145   C540    1.416   1_545 S
C146   H170    1.082   .     S
C146   N171    1.366   .     A
C146   C341    1.416   .     S
C147   O180    1.288   .     A
C147   C152    1.442   .     S
C147   O177    1.285   .     A
C148   C151    1.442   .     S
C148   O179    1.288   .     A
C148   O178    1.285   .     A
C149   C151    1.391   .     A
C149   H163    1.083   .     S
C149   C159    1.385   .     A
C150   H164    1.083   .     S
C150   C152    1.391   .     A
C150   C160    1.385   .     A
C151   C153    1.407   .     A
C152   C154    1.407   .     A
C153   C183    1.455   .     S
C153   C155    1.401   .     A
C154   C185    1.455   .     S
C154   C156    1.401   .     A
C155   C161    1.405   .     A
C155   C157    1.419   .     A
C156   C162    1.405   .     A
C156   C158    1.419   .     A
C157   C159    1.415   .     A
C157   C752    1.400   .     S
C158   C160    1.415   .     A
C158   C751    1.400   1_554 S
C161   H165    1.084   .     S
C161   C729    1.386   .     S
C162   H166    1.084   .     S
C162   C730    1.386   1_554 S
N171   Zn181   2.007   .     S
N172   Zn182   2.007   .     S
O173   Zn181   1.990   .     S
O174   Zn182   1.990   .     S
O175   Zn181   1.991   .     S
O176   Zn182   1.991   .     S
O177   Zn181   2.026   .     S
O178   Zn182   2.026   .     S
O179   Zn181   2.021   .     S
O180   Zn182   2.021   .     S
C183   N184    1.158   .     T
C185   N186    1.158   .     T
C187   N188    1.158   .     T
C189   N190    1.158   .     T
C191   N192    1.157   .     T
C193   N194    1.157   .     T
C195   N196    1.157   .     T
C197   N198    1.157   .     T
C199   O242    1.276   .     A
C199   O239    1.277   .     A
C199   C208    1.413   .     S
C200   O241    1.276   .     A
C200   O240    1.277   .     A
C200   C207    1.413   .     S
C201   C253    1.448   .     S
C201   C226    1.410   .     A
C201   C821    1.386   1_554 S
C202   C255    1.448   .     S
C202   C225    1.410   .     A
C202   C822    1.386   .     S
C203   C208    1.405   .     A
C203   C257    1.453   .     S
C203   C337    1.385   1_455 S
C204   C207    1.405   .     A
C204   C259    1.453   .     S
C204   C272    1.385   .     S
C205   C207    1.404   .     A
C205   C261    1.455   .     S
C205   C269    1.385   .     S
C206   C263    1.455   .     S
C206   C208    1.404   .     A
C206   C336    1.385   1_455 S
C209   H233    1.082   .     S
C209   N238    1.366   .     A
C210   N237    1.366   .     A
C210   H234    1.082   .     S
C210   C409    1.416   .     S
C211   N238    1.366   .     A
C211   H235    1.082   .     S
C212   H236    1.082   .     S
C212   N237    1.366   .     A
C212   C407    1.416   .     S
C213   O246    1.288   .     A
C213   C218    1.442   .     S
C213   O243    1.285   .     A
C214   C217    1.442   .     S
C214   O245    1.288   .     A
C214   O244    1.285   .     A
C215   C217    1.391   .     A
C215   H229    1.083   .     S
C215   C225    1.385   .     A
C216   H230    1.083   .     S
C216   C218    1.391   .     A
C216   C226    1.385   .     A
C217   C219    1.407   .     A
C218   C220    1.407   .     A
C219   C249    1.455   .     S
C219   C221    1.401   .     A
C220   C251    1.455   .     S
C220   C222    1.401   .     A
C221   C227    1.405   .     A
C221   C223    1.419   .     A
C222   C228    1.405   .     A
C222   C224    1.419   .     A
C223   C225    1.415   .     A
C223   C818    1.400   .     S
C224   C226    1.415   .     A
C224   C817    1.400   1_554 S
C227   H231    1.084   .     S
C227   C795    1.386   .     S
C228   H232    1.084   .     S
C228   C796    1.386   1_554 S
N237   Zn247   2.007   .     S
N238   Zn248   2.007   .     S
O239   Zn247   1.990   .     S
O240   Zn248   1.990   .     S
O241   Zn247   1.991   .     S
O242   Zn248   1.991   .     S
O243   Zn247   2.026   .     S
O244   Zn248   2.026   .     S
O245   Zn247   2.021   .     S
O246   Zn248   2.021   .     S
C249   N250    1.158   .     T
C251   N252    1.158   .     T
C253   N254    1.158   .     T
C255   N256    1.158   .     T
C257   N258    1.157   .     T
C259   N260    1.157   .     T
C261   N262    1.157   .     T
C263   N264    1.157   .     T
C265   O308    1.276   .     A
C265   O305    1.277   .     A
C265   C274    1.413   .     S
C266   O307    1.276   .     A
C266   O306    1.277   .     A
C266   C273    1.413   .     S
C267   C319    1.448   .     S
C267   C292    1.410   .     A
C267   C887    1.386   1_554 S
C268   C321    1.448   .     S
C268   C291    1.410   .     A
C268   C888    1.386   .     S
C269   C274    1.405   .     A
C269   C323    1.453   .     S
C270   C273    1.405   .     A
C270   C325    1.453   .     S
C270   C338    1.385   .     S
C271   C273    1.404   .     A
C271   C327    1.455   .     S
C271   C335    1.385   .     S
C272   C329    1.455   .     S
C272   C274    1.404   .     A
C275   H299    1.082   .     S
C275   N304    1.366   .     A
C276   N303    1.366   .     A
C276   H300    1.082   .     S
C276   C475    1.416   .     S
C277   N304    1.366   .     A
C277   H301    1.082   .     S
C278   H302    1.082   .     S
C278   N303    1.366   .     A
C278   C473    1.416   .     S
C279   O312    1.288   .     A
C279   C284    1.442   .     S
C279   O309    1.285   .     A
C280   C283    1.442   .     S
C280   O311    1.288   .     A
C280   O310    1.285   .     A
C281   C283    1.391   .     A
C281   H295    1.083   .     S
C281   C291    1.385   .     A
C282   H296    1.083   .     S
C282   C284    1.391   .     A
C282   C292    1.385   .     A
C283   C285    1.407   .     A
C284   C286    1.407   .     A
C285   C315    1.455   .     S
C285   C287    1.401   .     A
C286   C317    1.455   .     S
C286   C288    1.401   .     A
C287   C293    1.405   .     A
C287   C289    1.419   .     A
C288   C294    1.405   .     A
C288   C290    1.419   .     A
C289   C291    1.415   .     A
C289   C884    1.400   .     S
C290   C292    1.415   .     A
C290   C883    1.400   1_554 S
C293   H297    1.084   .     S
C293   C861    1.386   .     S
C294   H298    1.084   .     S
C294   C862    1.386   1_554 S
N303   Zn313   2.007   .     S
N304   Zn314   2.007   .     S
O305   Zn313   1.990   .     S
O306   Zn314   1.990   .     S
O307   Zn313   1.991   .     S
O308   Zn314   1.991   .     S
O309   Zn313   2.026   .     S
O310   Zn314   2.026   .     S
O311   Zn313   2.021   .     S
O312   Zn314   2.021   .     S
C315   N316    1.158   .     T
C317   N318    1.158   .     T
C319   N320    1.158   .     T
C321   N322    1.158   .     T
C323   N324    1.157   .     T
C325   N326    1.157   .     T
C327   N328    1.157   .     T
C329   N330    1.157   .     T
C331   O374    1.276   .     A
C331   O371    1.277   .     A
C331   C340    1.413   .     S
C332   O373    1.276   .     A
C332   O372    1.277   .     A
C332   C339    1.413   .     S
C333   C385    1.448   .     S
C333   C358    1.410   .     A
C333   C953    1.386   1_554 S
C334   C387    1.448   .     S
C334   C357    1.410   .     A
C334   C954    1.386   .     S
C335   C340    1.405   .     A
C335   C389    1.453   .     S
C336   C339    1.405   .     A
C336   C391    1.453   .     S
C336   C206    1.385   1_655 S
C337   C339    1.404   .     A
C337   C393    1.455   .     S
C337   C203    1.385   1_655 S
C338   C395    1.455   .     S
C338   C340    1.404   .     A
C341   H365    1.082   .     S
C341   N370    1.366   .     A
C342   N369    1.366   .     A
C342   H366    1.082   .     S
C342   C541    1.416   .     S
C343   N370    1.366   .     A
C343   H367    1.082   .     S
C344   H368    1.082   .     S
C344   N369    1.366   .     A
C344   C539    1.416   .     S
C345   O378    1.288   .     A
C345   C350    1.442   .     S
C345   O375    1.285   .     A
C346   C349    1.442   .     S
C346   O377    1.288   .     A
C346   O376    1.285   .     A
C347   C349    1.391   .     A
C347   H361    1.083   .     S
C347   C357    1.385   .     A
C348   H362    1.083   .     S
C348   C350    1.391   .     A
C348   C358    1.385   .     A
C349   C351    1.407   .     A
C350   C352    1.407   .     A
C351   C381    1.455   .     S
C351   C353    1.401   .     A
C352   C383    1.455   .     S
C352   C354    1.401   .     A
C353   C359    1.405   .     A
C353   C355    1.419   .     A
C354   C360    1.405   .     A
C354   C356    1.419   .     A
C355   C357    1.415   .     A
C355   C950    1.400   .     S
C356   C358    1.415   .     A
C356   C949    1.400   1_554 S
C359   H363    1.084   .     S
C359   C927    1.386   .     S
C360   H364    1.084   .     S
C360   C928    1.386   1_554 S
N369   Zn379   2.007   .     S
N370   Zn380   2.007   .     S
O371   Zn379   1.990   .     S
O372   Zn380   1.990   .     S
O373   Zn379   1.991   .     S
O374   Zn380   1.991   .     S
O375   Zn379   2.026   .     S
O376   Zn380   2.026   .     S
O377   Zn379   2.021   .     S
O378   Zn380   2.021   .     S
C381   N382    1.158   .     T
C383   N384    1.158   .     T
C385   N386    1.158   .     T
C387   N388    1.158   .     T
C389   N390    1.157   .     T
C391   N392    1.157   .     T
C393   N394    1.157   .     T
C395   N396    1.157   .     T
C397   O440    1.276   .     A
C397   O437    1.277   .     A
C397   C406    1.413   .     S
C398   O439    1.276   .     A
C398   O438    1.277   .     A
C398   C405    1.413   .     S
C399   C451    1.448   .     S
C399   C424    1.410   .     A
C399   C1019   1.386   1_554 S
C400   C453    1.448   .     S
C400   C423    1.410   .     A
C400   C1020   1.386   .     S
C401   C406    1.405   .     A
C401   C455    1.453   .     S
C401   C535    1.385   1_455 S
C402   C405    1.405   .     A
C402   C457    1.453   .     S
C402   C470    1.385   .     S
C403   C405    1.404   .     A
C403   C459    1.455   .     S
C403   C467    1.385   .     S
C404   C461    1.455   .     S
C404   C406    1.404   .     A
C404   C534    1.385   1_455 S
C407   H431    1.082   .     S
C407   N436    1.366   .     A
C408   N435    1.366   .     A
C408   H432    1.082   .     S
C408   C13     1.416   1_565 S
C409   N436    1.366   .     A
C409   H433    1.082   .     S
C410   H434    1.082   .     S
C410   N435    1.366   .     A
C410   C11     1.416   1_565 S
C411   O444    1.288   .     A
C411   C416    1.442   .     S
C411   O441    1.285   .     A
C412   C415    1.442   .     S
C412   O443    1.288   .     A
C412   O442    1.285   .     A
C413   C415    1.391   .     A
C413   H427    1.083   .     S
C413   C423    1.385   .     A
C414   H428    1.083   .     S
C414   C416    1.391   .     A
C414   C424    1.385   .     A
C415   C417    1.407   .     A
C416   C418    1.407   .     A
C417   C447    1.455   .     S
C417   C419    1.401   .     A
C418   C449    1.455   .     S
C418   C420    1.401   .     A
C419   C425    1.405   .     A
C419   C421    1.419   .     A
C420   C426    1.405   .     A
C420   C422    1.419   .     A
C421   C423    1.415   .     A
C421   C1016   1.400   .     S
C422   C424    1.415   .     A
C422   C1015   1.400   1_554 S
C425   H429    1.084   .     S
C425   C993    1.386   .     S
C426   H430    1.084   .     S
C426   C994    1.386   1_554 S
N435   Zn445   2.007   .     S
N436   Zn446   2.007   .     S
O437   Zn445   1.990   .     S
O438   Zn446   1.990   .     S
O439   Zn445   1.991   .     S
O440   Zn446   1.991   .     S
O441   Zn445   2.026   .     S
O442   Zn446   2.026   .     S
O443   Zn445   2.021   .     S
O444   Zn446   2.021   .     S
C447   N448    1.158   .     T
C449   N450    1.158   .     T
C451   N452    1.158   .     T
C453   N454    1.158   .     T
C455   N456    1.157   .     T
C457   N458    1.157   .     T
C459   N460    1.157   .     T
C461   N462    1.157   .     T
C463   O506    1.276   .     A
C463   O503    1.277   .     A
C463   C472    1.413   .     S
C464   O505    1.276   .     A
C464   O504    1.277   .     A
C464   C471    1.413   .     S
C465   C517    1.448   .     S
C465   C490    1.410   .     A
C465   C1085   1.386   1_554 S
C466   C519    1.448   .     S
C466   C489    1.410   .     A
C466   C1086   1.386   .     S
C467   C472    1.405   .     A
C467   C521    1.453   .     S
C468   C471    1.405   .     A
C468   C523    1.453   .     S
C468   C536    1.385   .     S
C469   C471    1.404   .     A
C469   C525    1.455   .     S
C469   C533    1.385   .     S
C470   C527    1.455   .     S
C470   C472    1.404   .     A
C473   H497    1.082   .     S
C473   N502    1.366   .     A
C474   N501    1.366   .     A
C474   H498    1.082   .     S
C474   C79     1.416   1_565 S
C475   N502    1.366   .     A
C475   H499    1.082   .     S
C476   H500    1.082   .     S
C476   N501    1.366   .     A
C476   C77     1.416   1_565 S
C477   O510    1.288   .     A
C477   C482    1.442   .     S
C477   O507    1.285   .     A
C478   C481    1.442   .     S
C478   O509    1.288   .     A
C478   O508    1.285   .     A
C479   C481    1.391   .     A
C479   H493    1.083   .     S
C479   C489    1.385   .     A
C480   H494    1.083   .     S
C480   C482    1.391   .     A
C480   C490    1.385   .     A
C481   C483    1.407   .     A
C482   C484    1.407   .     A
C483   C513    1.455   .     S
C483   C485    1.401   .     A
C484   C515    1.455   .     S
C484   C486    1.401   .     A
C485   C491    1.405   .     A
C485   C487    1.419   .     A
C486   C492    1.405   .     A
C486   C488    1.419   .     A
C487   C489    1.415   .     A
C487   C1082   1.400   .     S
C488   C490    1.415   .     A
C488   C1081   1.400   1_554 S
C491   H495    1.084   .     S
C491   C1059   1.386   .     S
C492   H496    1.084   .     S
C492   C1060   1.386   1_554 S
N501   Zn511   2.007   .     S
N502   Zn512   2.007   .     S
O503   Zn511   1.990   .     S
O504   Zn512   1.990   .     S
O505   Zn511   1.991   .     S
O506   Zn512   1.991   .     S
O507   Zn511   2.026   .     S
O508   Zn512   2.026   .     S
O509   Zn511   2.021   .     S
O510   Zn512   2.021   .     S
C513   N514    1.158   .     T
C515   N516    1.158   .     T
C517   N518    1.158   .     T
C519   N520    1.158   .     T
C521   N522    1.157   .     T
C523   N524    1.157   .     T
C525   N526    1.157   .     T
C527   N528    1.157   .     T
C529   O572    1.276   .     A
C529   O569    1.277   .     A
C529   C538    1.413   .     S
C530   O571    1.276   .     A
C530   O570    1.277   .     A
C530   C537    1.413   .     S
C531   C583    1.448   .     S
C531   C556    1.410   .     A
C531   C1151   1.386   1_554 S
C532   C585    1.448   .     S
C532   C555    1.410   .     A
C532   C1152   1.386   .     S
C533   C538    1.405   .     A
C533   C587    1.453   .     S
C534   C537    1.405   .     A
C534   C589    1.453   .     S
C534   C404    1.385   1_655 S
C535   C537    1.404   .     A
C535   C591    1.455   .     S
C535   C401    1.385   1_655 S
C536   C593    1.455   .     S
C536   C538    1.404   .     A
C539   H563    1.082   .     S
C539   N568    1.366   .     A
C540   N567    1.366   .     A
C540   H564    1.082   .     S
C540   C145    1.416   1_565 S
C541   N568    1.366   .     A
C541   H565    1.082   .     S
C542   H566    1.082   .     S
C542   N567    1.366   .     A
C542   C143    1.416   1_565 S
C543   O576    1.288   .     A
C543   C548    1.442   .     S
C543   O573    1.285   .     A
C544   C547    1.442   .     S
C544   O575    1.288   .     A
C544   O574    1.285   .     A
C545   C547    1.391   .     A
C545   H559    1.083   .     S
C545   C555    1.385   .     A
C546   H560    1.083   .     S
C546   C548    1.391   .     A
C546   C556    1.385   .     A
C547   C549    1.407   .     A
C548   C550    1.407   .     A
C549   C579    1.455   .     S
C549   C551    1.401   .     A
C550   C581    1.455   .     S
C550   C552    1.401   .     A
C551   C557    1.405   .     A
C551   C553    1.419   .     A
C552   C558    1.405   .     A
C552   C554    1.419   .     A
C553   C555    1.415   .     A
C553   C1148   1.400   .     S
C554   C556    1.415   .     A
C554   C1147   1.400   1_554 S
C557   H561    1.084   .     S
C557   C1125   1.386   .     S
C558   H562    1.084   .     S
C558   C1126   1.386   1_554 S
N567   Zn577   2.007   .     S
N568   Zn578   2.007   .     S
O569   Zn577   1.990   .     S
O570   Zn578   1.990   .     S
O571   Zn577   1.991   .     S
O572   Zn578   1.991   .     S
O573   Zn577   2.026   .     S
O574   Zn578   2.026   .     S
O575   Zn577   2.021   .     S
O576   Zn578   2.021   .     S
C579   N580    1.158   .     T
C581   N582    1.158   .     T
C583   N584    1.158   .     T
C585   N586    1.158   .     T
C587   N588    1.157   .     T
C589   N590    1.157   .     T
C591   N592    1.157   .     T
C593   N594    1.157   .     T
C595   O638    1.276   .     A
C595   O635    1.277   .     A
C595   C604    1.413   .     S
C596   O637    1.276   .     A
C596   O636    1.277   .     A
C596   C603    1.413   .     S
C597   C649    1.448   .     S
C597   C622    1.410   .     A
C598   C651    1.448   .     S
C598   C621    1.410   .     A
C598   C30     1.386   1_556 S
C599   C604    1.405   .     A
C599   C653    1.453   .     S
C599   C733    1.385   1_455 S
C600   C603    1.405   .     A
C600   C655    1.453   .     S
C600   C668    1.385   .     S
C601   C603    1.404   .     A
C601   C657    1.455   .     S
C601   C665    1.385   .     S
C602   C659    1.455   .     S
C602   C604    1.404   .     A
C602   C732    1.385   1_455 S
C605   H629    1.082   .     S
C605   N634    1.366   .     A
C605   C1004   1.416   1_545 S
C606   N633    1.366   .     A
C606   H630    1.082   .     S
C606   C805    1.416   .     S
C607   N634    1.366   .     A
C607   H631    1.082   .     S
C607   C1002   1.416   1_545 S
C608   H632    1.082   .     S
C608   N633    1.366   .     A
C608   C803    1.416   .     S
C609   O642    1.288   .     A
C609   C614    1.442   .     S
C609   O639    1.285   .     A
C610   C613    1.442   .     S
C610   O641    1.288   .     A
C610   O640    1.285   .     A
C611   C613    1.391   .     A
C611   H625    1.083   .     S
C611   C621    1.385   .     A
C612   H626    1.083   .     S
C612   C614    1.391   .     A
C612   C622    1.385   .     A
C613   C615    1.407   .     A
C614   C616    1.407   .     A
C615   C645    1.455   .     S
C615   C617    1.401   .     A
C616   C647    1.455   .     S
C616   C618    1.401   .     A
C617   C623    1.405   .     A
C617   C619    1.419   .     A
C618   C624    1.405   .     A
C618   C620    1.419   .     A
C619   C621    1.415   .     A
C619   C26     1.400   1_556 S
C620   C622    1.415   .     A
C623   H627    1.084   .     S
C623   C3      1.386   1_556 S
C624   H628    1.084   .     S
N633   Zn643   2.007   .     S
N634   Zn644   2.007   .     S
O635   Zn643   1.990   .     S
O636   Zn644   1.990   .     S
O637   Zn643   1.991   .     S
O638   Zn644   1.991   .     S
O639   Zn643   2.026   .     S
O640   Zn644   2.026   .     S
O641   Zn643   2.021   .     S
O642   Zn644   2.021   .     S
C645   N646    1.158   .     T
C647   N648    1.158   .     T
C649   N650    1.158   .     T
C651   N652    1.158   .     T
C653   N654    1.157   .     T
C655   N656    1.157   .     T
C657   N658    1.157   .     T
C659   N660    1.157   .     T
C661   O704    1.276   .     A
C661   O701    1.277   .     A
C661   C670    1.413   .     S
C662   O703    1.276   .     A
C662   O702    1.277   .     A
C662   C669    1.413   .     S
C663   C715    1.448   .     S
C663   C688    1.410   .     A
C664   C717    1.448   .     S
C664   C687    1.410   .     A
C664   C96     1.386   1_556 S
C665   C670    1.405   .     A
C665   C719    1.453   .     S
C666   C669    1.405   .     A
C666   C721    1.453   .     S
C666   C734    1.385   .     S
C667   C669    1.404   .     A
C667   C723    1.455   .     S
C667   C731    1.385   .     S
C668   C725    1.455   .     S
C668   C670    1.404   .     A
C671   H695    1.082   .     S
C671   N700    1.366   .     A
C671   C1070   1.416   1_545 S
C672   N699    1.366   .     A
C672   H696    1.082   .     S
C672   C871    1.416   .     S
C673   N700    1.366   .     A
C673   H697    1.082   .     S
C673   C1068   1.416   1_545 S
C674   H698    1.082   .     S
C674   N699    1.366   .     A
C674   C869    1.416   .     S
C675   O708    1.288   .     A
C675   C680    1.442   .     S
C675   O705    1.285   .     A
C676   C679    1.442   .     S
C676   O707    1.288   .     A
C676   O706    1.285   .     A
C677   C679    1.391   .     A
C677   H691    1.083   .     S
C677   C687    1.385   .     A
C678   H692    1.083   .     S
C678   C680    1.391   .     A
C678   C688    1.385   .     A
C679   C681    1.407   .     A
C680   C682    1.407   .     A
C681   C711    1.455   .     S
C681   C683    1.401   .     A
C682   C713    1.455   .     S
C682   C684    1.401   .     A
C683   C689    1.405   .     A
C683   C685    1.419   .     A
C684   C690    1.405   .     A
C684   C686    1.419   .     A
C685   C687    1.415   .     A
C685   C92     1.400   1_556 S
C686   C688    1.415   .     A
C689   H693    1.084   .     S
C689   C69     1.386   1_556 S
C690   H694    1.084   .     S
N699   Zn709   2.007   .     S
N700   Zn710   2.007   .     S
O701   Zn709   1.990   .     S
O702   Zn710   1.990   .     S
O703   Zn709   1.991   .     S
O704   Zn710   1.991   .     S
O705   Zn709   2.026   .     S
O706   Zn710   2.026   .     S
O707   Zn709   2.021   .     S
O708   Zn710   2.021   .     S
C711   N712    1.158   .     T
C713   N714    1.158   .     T
C715   N716    1.158   .     T
C717   N718    1.158   .     T
C719   N720    1.157   .     T
C721   N722    1.157   .     T
C723   N724    1.157   .     T
C725   N726    1.157   .     T
C727   O770    1.276   .     A
C727   O767    1.277   .     A
C727   C736    1.413   .     S
C728   O769    1.276   .     A
C728   O768    1.277   .     A
C728   C735    1.413   .     S
C729   C781    1.448   .     S
C729   C754    1.410   .     A
C730   C783    1.448   .     S
C730   C753    1.410   .     A
C730   C162    1.386   1_556 S
C731   C736    1.405   .     A
C731   C785    1.453   .     S
C732   C735    1.405   .     A
C732   C787    1.453   .     S
C732   C602    1.385   1_655 S
C733   C735    1.404   .     A
C733   C789    1.455   .     S
C733   C599    1.385   1_655 S
C734   C791    1.455   .     S
C734   C736    1.404   .     A
C737   H761    1.082   .     S
C737   N766    1.366   .     A
C737   C1136   1.416   1_545 S
C738   N765    1.366   .     A
C738   H762    1.082   .     S
C738   C937    1.416   .     S
C739   N766    1.366   .     A
C739   H763    1.082   .     S
C739   C1134   1.416   1_545 S
C740   H764    1.082   .     S
C740   N765    1.366   .     A
C740   C935    1.416   .     S
C741   O774    1.288   .     A
C741   C746    1.442   .     S
C741   O771    1.285   .     A
C742   C745    1.442   .     S
C742   O773    1.288   .     A
C742   O772    1.285   .     A
C743   C745    1.391   .     A
C743   H757    1.083   .     S
C743   C753    1.385   .     A
C744   H758    1.083   .     S
C744   C746    1.391   .     A
C744   C754    1.385   .     A
C745   C747    1.407   .     A
C746   C748    1.407   .     A
C747   C777    1.455   .     S
C747   C749    1.401   .     A
C748   C779    1.455   .     S
C748   C750    1.401   .     A
C749   C755    1.405   .     A
C749   C751    1.419   .     A
C750   C756    1.405   .     A
C750   C752    1.419   .     A
C751   C753    1.415   .     A
C751   C158    1.400   1_556 S
C752   C754    1.415   .     A
C755   H759    1.084   .     S
C755   C135    1.386   1_556 S
C756   H760    1.084   .     S
N765   Zn775   2.007   .     S
N766   Zn776   2.007   .     S
O767   Zn775   1.990   .     S
O768   Zn776   1.990   .     S
O769   Zn775   1.991   .     S
O770   Zn776   1.991   .     S
O771   Zn775   2.026   .     S
O772   Zn776   2.026   .     S
O773   Zn775   2.021   .     S
O774   Zn776   2.021   .     S
C777   N778    1.158   .     T
C779   N780    1.158   .     T
C781   N782    1.158   .     T
C783   N784    1.158   .     T
C785   N786    1.157   .     T
C787   N788    1.157   .     T
C789   N790    1.157   .     T
C791   N792    1.157   .     T
C793   O836    1.276   .     A
C793   O833    1.277   .     A
C793   C802    1.413   .     S
C794   O835    1.276   .     A
C794   O834    1.277   .     A
C794   C801    1.413   .     S
C795   C847    1.448   .     S
C795   C820    1.410   .     A
C796   C849    1.448   .     S
C796   C819    1.410   .     A
C796   C228    1.386   1_556 S
C797   C802    1.405   .     A
C797   C851    1.453   .     S
C797   C931    1.385   1_455 S
C798   C801    1.405   .     A
C798   C853    1.453   .     S
C798   C866    1.385   .     S
C799   C801    1.404   .     A
C799   C855    1.455   .     S
C799   C863    1.385   .     S
C800   C857    1.455   .     S
C800   C802    1.404   .     A
C800   C930    1.385   1_455 S
C803   H827    1.082   .     S
C803   N832    1.366   .     A
C804   N831    1.366   .     A
C804   H828    1.082   .     S
C804   C1003   1.416   .     S
C805   N832    1.366   .     A
C805   H829    1.082   .     S
C806   H830    1.082   .     S
C806   N831    1.366   .     A
C806   C1001   1.416   .     S
C807   O840    1.288   .     A
C807   C812    1.442   .     S
C807   O837    1.285   .     A
C808   C811    1.442   .     S
C808   O839    1.288   .     A
C808   O838    1.285   .     A
C809   C811    1.391   .     A
C809   H823    1.083   .     S
C809   C819    1.385   .     A
C810   H824    1.083   .     S
C810   C812    1.391   .     A
C810   C820    1.385   .     A
C811   C813    1.407   .     A
C812   C814    1.407   .     A
C813   C843    1.455   .     S
C813   C815    1.401   .     A
C814   C845    1.455   .     S
C814   C816    1.401   .     A
C815   C821    1.405   .     A
C815   C817    1.419   .     A
C816   C822    1.405   .     A
C816   C818    1.419   .     A
C817   C819    1.415   .     A
C817   C224    1.400   1_556 S
C818   C820    1.415   .     A
C821   H825    1.084   .     S
C821   C201    1.386   1_556 S
C822   H826    1.084   .     S
N831   Zn841   2.007   .     S
N832   Zn842   2.007   .     S
O833   Zn841   1.990   .     S
O834   Zn842   1.990   .     S
O835   Zn841   1.991   .     S
O836   Zn842   1.991   .     S
O837   Zn841   2.026   .     S
O838   Zn842   2.026   .     S
O839   Zn841   2.021   .     S
O840   Zn842   2.021   .     S
C843   N844    1.158   .     T
C845   N846    1.158   .     T
C847   N848    1.158   .     T
C849   N850    1.158   .     T
C851   N852    1.157   .     T
C853   N854    1.157   .     T
C855   N856    1.157   .     T
C857   N858    1.157   .     T
C859   O902    1.276   .     A
C859   O899    1.277   .     A
C859   C868    1.413   .     S
C860   O901    1.276   .     A
C860   O900    1.277   .     A
C860   C867    1.413   .     S
C861   C913    1.448   .     S
C861   C886    1.410   .     A
C862   C915    1.448   .     S
C862   C885    1.410   .     A
C862   C294    1.386   1_556 S
C863   C868    1.405   .     A
C863   C917    1.453   .     S
C864   C867    1.405   .     A
C864   C919    1.453   .     S
C864   C932    1.385   .     S
C865   C867    1.404   .     A
C865   C921    1.455   .     S
C865   C929    1.385   .     S
C866   C923    1.455   .     S
C866   C868    1.404   .     A
C869   H893    1.082   .     S
C869   N898    1.366   .     A
C870   N897    1.366   .     A
C870   H894    1.082   .     S
C870   C1069   1.416   .     S
C871   N898    1.366   .     A
C871   H895    1.082   .     S
C872   H896    1.082   .     S
C872   N897    1.366   .     A
C872   C1067   1.416   .     S
C873   O906    1.288   .     A
C873   C878    1.442   .     S
C873   O903    1.285   .     A
C874   C877    1.442   .     S
C874   O905    1.288   .     A
C874   O904    1.285   .     A
C875   C877    1.391   .     A
C875   H889    1.083   .     S
C875   C885    1.385   .     A
C876   H890    1.083   .     S
C876   C878    1.391   .     A
C876   C886    1.385   .     A
C877   C879    1.407   .     A
C878   C880    1.407   .     A
C879   C909    1.455   .     S
C879   C881    1.401   .     A
C880   C911    1.455   .     S
C880   C882    1.401   .     A
C881   C887    1.405   .     A
C881   C883    1.419   .     A
C882   C888    1.405   .     A
C882   C884    1.419   .     A
C883   C885    1.415   .     A
C883   C290    1.400   1_556 S
C884   C886    1.415   .     A
C887   H891    1.084   .     S
C887   C267    1.386   1_556 S
C888   H892    1.084   .     S
N897   Zn907   2.007   .     S
N898   Zn908   2.007   .     S
O899   Zn907   1.990   .     S
O900   Zn908   1.990   .     S
O901   Zn907   1.991   .     S
O902   Zn908   1.991   .     S
O903   Zn907   2.026   .     S
O904   Zn908   2.026   .     S
O905   Zn907   2.021   .     S
O906   Zn908   2.021   .     S
C909   N910    1.158   .     T
C911   N912    1.158   .     T
C913   N914    1.158   .     T
C915   N916    1.158   .     T
C917   N918    1.157   .     T
C919   N920    1.157   .     T
C921   N922    1.157   .     T
C923   N924    1.157   .     T
C925   O968    1.276   .     A
C925   O965    1.277   .     A
C925   C934    1.413   .     S
C926   O967    1.276   .     A
C926   O966    1.277   .     A
C926   C933    1.413   .     S
C927   C979    1.448   .     S
C927   C952    1.410   .     A
C928   C981    1.448   .     S
C928   C951    1.410   .     A
C928   C360    1.386   1_556 S
C929   C934    1.405   .     A
C929   C983    1.453   .     S
C930   C933    1.405   .     A
C930   C985    1.453   .     S
C930   C800    1.385   1_655 S
C931   C933    1.404   .     A
C931   C987    1.455   .     S
C931   C797    1.385   1_655 S
C932   C989    1.455   .     S
C932   C934    1.404   .     A
C935   H959    1.082   .     S
C935   N964    1.366   .     A
C936   N963    1.366   .     A
C936   H960    1.082   .     S
C936   C1135   1.416   .     S
C937   N964    1.366   .     A
C937   H961    1.082   .     S
C938   H962    1.082   .     S
C938   N963    1.366   .     A
C938   C1133   1.416   .     S
C939   O972    1.288   .     A
C939   C944    1.442   .     S
C939   O969    1.285   .     A
C940   C943    1.442   .     S
C940   O971    1.288   .     A
C940   O970    1.285   .     A
C941   C943    1.391   .     A
C941   H955    1.083   .     S
C941   C951    1.385   .     A
C942   H956    1.083   .     S
C942   C944    1.391   .     A
C942   C952    1.385   .     A
C943   C945    1.407   .     A
C944   C946    1.407   .     A
C945   C975    1.455   .     S
C945   C947    1.401   .     A
C946   C977    1.455   .     S
C946   C948    1.401   .     A
C947   C953    1.405   .     A
C947   C949    1.419   .     A
C948   C954    1.405   .     A
C948   C950    1.419   .     A
C949   C951    1.415   .     A
C949   C356    1.400   1_556 S
C950   C952    1.415   .     A
C953   H957    1.084   .     S
C953   C333    1.386   1_556 S
C954   H958    1.084   .     S
N963   Zn973   2.007   .     S
N964   Zn974   2.007   .     S
O965   Zn973   1.990   .     S
O966   Zn974   1.990   .     S
O967   Zn973   1.991   .     S
O968   Zn974   1.991   .     S
O969   Zn973   2.026   .     S
O970   Zn974   2.026   .     S
O971   Zn973   2.021   .     S
O972   Zn974   2.021   .     S
C975   N976    1.158   .     T
C977   N978    1.158   .     T
C979   N980    1.158   .     T
C981   N982    1.158   .     T
C983   N984    1.157   .     T
C985   N986    1.157   .     T
C987   N988    1.157   .     T
C989   N990    1.157   .     T
C991   O1034   1.276   .     A
C991   O1031   1.277   .     A
C991   C1000   1.413   .     S
C992   O1033   1.276   .     A
C992   O1032   1.277   .     A
C992   C999    1.413   .     S
C993   C1045   1.448   .     S
C993   C1018   1.410   .     A
C994   C1047   1.448   .     S
C994   C1017   1.410   .     A
C994   C426    1.386   1_556 S
C995   C1000   1.405   .     A
C995   C1049   1.453   .     S
C995   C1129   1.385   1_455 S
C996   C999    1.405   .     A
C996   C1051   1.453   .     S
C996   C1064   1.385   .     S
C997   C999    1.404   .     A
C997   C1053   1.455   .     S
C997   C1061   1.385   .     S
C998   C1055   1.455   .     S
C998   C1000   1.404   .     A
C998   C1128   1.385   1_455 S
C1001  H1025   1.082   .     S
C1001  N1030   1.366   .     A
C1002  N1029   1.366   .     A
C1002  H1026   1.082   .     S
C1002  C607    1.416   1_565 S
C1003  N1030   1.366   .     A
C1003  H1027   1.082   .     S
C1004  H1028   1.082   .     S
C1004  N1029   1.366   .     A
C1004  C605    1.416   1_565 S
C1005  O1038   1.288   .     A
C1005  C1010   1.442   .     S
C1005  O1035   1.285   .     A
C1006  C1009   1.442   .     S
C1006  O1037   1.288   .     A
C1006  O1036   1.285   .     A
C1007  C1009   1.391   .     A
C1007  H1021   1.083   .     S
C1007  C1017   1.385   .     A
C1008  H1022   1.083   .     S
C1008  C1010   1.391   .     A
C1008  C1018   1.385   .     A
C1009  C1011   1.407   .     A
C1010  C1012   1.407   .     A
C1011  C1041   1.455   .     S
C1011  C1013   1.401   .     A
C1012  C1043   1.455   .     S
C1012  C1014   1.401   .     A
C1013  C1019   1.405   .     A
C1013  C1015   1.419   .     A
C1014  C1020   1.405   .     A
C1014  C1016   1.419   .     A
C1015  C1017   1.415   .     A
C1015  C422    1.400   1_556 S
C1016  C1018   1.415   .     A
C1019  H1023   1.084   .     S
C1019  C399    1.386   1_556 S
C1020  H1024   1.084   .     S
N1029  Zn1039  2.007   .     S
N1030  Zn1040  2.007   .     S
O1031  Zn1039  1.990   .     S
O1032  Zn1040  1.990   .     S
O1033  Zn1039  1.991   .     S
O1034  Zn1040  1.991   .     S
O1035  Zn1039  2.026   .     S
O1036  Zn1040  2.026   .     S
O1037  Zn1039  2.021   .     S
O1038  Zn1040  2.021   .     S
C1041  N1042   1.158   .     T
C1043  N1044   1.158   .     T
C1045  N1046   1.158   .     T
C1047  N1048   1.158   .     T
C1049  N1050   1.157   .     T
C1051  N1052   1.157   .     T
C1053  N1054   1.157   .     T
C1055  N1056   1.157   .     T
C1057  O1100   1.276   .     A
C1057  O1097   1.277   .     A
C1057  C1066   1.413   .     S
C1058  O1099   1.276   .     A
C1058  O1098   1.277   .     A
C1058  C1065   1.413   .     S
C1059  C1111   1.448   .     S
C1059  C1084   1.410   .     A
C1060  C1113   1.448   .     S
C1060  C1083   1.410   .     A
C1060  C492    1.386   1_556 S
C1061  C1066   1.405   .     A
C1061  C1115   1.453   .     S
C1062  C1065   1.405   .     A
C1062  C1117   1.453   .     S
C1062  C1130   1.385   .     S
C1063  C1065   1.404   .     A
C1063  C1119   1.455   .     S
C1063  C1127   1.385   .     S
C1064  C1121   1.455   .     S
C1064  C1066   1.404   .     A
C1067  H1091   1.082   .     S
C1067  N1096   1.366   .     A
C1068  N1095   1.366   .     A
C1068  H1092   1.082   .     S
C1068  C673    1.416   1_565 S
C1069  N1096   1.366   .     A
C1069  H1093   1.082   .     S
C1070  H1094   1.082   .     S
C1070  N1095   1.366   .     A
C1070  C671    1.416   1_565 S
C1071  O1104   1.288   .     A
C1071  C1076   1.442   .     S
C1071  O1101   1.285   .     A
C1072  C1075   1.442   .     S
C1072  O1103   1.288   .     A
C1072  O1102   1.285   .     A
C1073  C1075   1.391   .     A
C1073  H1087   1.083   .     S
C1073  C1083   1.385   .     A
C1074  H1088   1.083   .     S
C1074  C1076   1.391   .     A
C1074  C1084   1.385   .     A
C1075  C1077   1.407   .     A
C1076  C1078   1.407   .     A
C1077  C1107   1.455   .     S
C1077  C1079   1.401   .     A
C1078  C1109   1.455   .     S
C1078  C1080   1.401   .     A
C1079  C1085   1.405   .     A
C1079  C1081   1.419   .     A
C1080  C1086   1.405   .     A
C1080  C1082   1.419   .     A
C1081  C1083   1.415   .     A
C1081  C488    1.400   1_556 S
C1082  C1084   1.415   .     A
C1085  H1089   1.084   .     S
C1085  C465    1.386   1_556 S
C1086  H1090   1.084   .     S
N1095  Zn1105  2.007   .     S
N1096  Zn1106  2.007   .     S
O1097  Zn1105  1.990   .     S
O1098  Zn1106  1.990   .     S
O1099  Zn1105  1.991   .     S
O1100  Zn1106  1.991   .     S
O1101  Zn1105  2.026   .     S
O1102  Zn1106  2.026   .     S
O1103  Zn1105  2.021   .     S
O1104  Zn1106  2.021   .     S
C1107  N1108   1.158   .     T
C1109  N1110   1.158   .     T
C1111  N1112   1.158   .     T
C1113  N1114   1.158   .     T
C1115  N1116   1.157   .     T
C1117  N1118   1.157   .     T
C1119  N1120   1.157   .     T
C1121  N1122   1.157   .     T
C1123  O1166   1.276   .     A
C1123  O1163   1.277   .     A
C1123  C1132   1.413   .     S
C1124  O1165   1.276   .     A
C1124  O1164   1.277   .     A
C1124  C1131   1.413   .     S
C1125  C1177   1.448   .     S
C1125  C1150   1.410   .     A
C1126  C1179   1.448   .     S
C1126  C1149   1.410   .     A
C1126  C558    1.386   1_556 S
C1127  C1132   1.405   .     A
C1127  C1181   1.453   .     S
C1128  C1131   1.405   .     A
C1128  C1183   1.453   .     S
C1128  C998    1.385   1_655 S
C1129  C1131   1.404   .     A
C1129  C1185   1.455   .     S
C1129  C995    1.385   1_655 S
C1130  C1187   1.455   .     S
C1130  C1132   1.404   .     A
C1133  H1157   1.082   .     S
C1133  N1162   1.366   .     A
C1134  N1161   1.366   .     A
C1134  H1158   1.082   .     S
C1134  C739    1.416   1_565 S
C1135  N1162   1.366   .     A
C1135  H1159   1.082   .     S
C1136  H1160   1.082   .     S
C1136  N1161   1.366   .     A
C1136  C737    1.416   1_565 S
C1137  O1170   1.288   .     A
C1137  C1142   1.442   .     S
C1137  O1167   1.285   .     A
C1138  C1141   1.442   .     S
C1138  O1169   1.288   .     A
C1138  O1168   1.285   .     A
C1139  C1141   1.391   .     A
C1139  H1153   1.083   .     S
C1139  C1149   1.385   .     A
C1140  H1154   1.083   .     S
C1140  C1142   1.391   .     A
C1140  C1150   1.385   .     A
C1141  C1143   1.407   .     A
C1142  C1144   1.407   .     A
C1143  C1173   1.455   .     S
C1143  C1145   1.401   .     A
C1144  C1175   1.455   .     S
C1144  C1146   1.401   .     A
C1145  C1151   1.405   .     A
C1145  C1147   1.419   .     A
C1146  C1152   1.405   .     A
C1146  C1148   1.419   .     A
C1147  C1149   1.415   .     A
C1147  C554    1.400   1_556 S
C1148  C1150   1.415   .     A
C1151  H1155   1.084   .     S
C1151  C531    1.386   1_556 S
C1152  H1156   1.084   .     S
N1161  Zn1171  2.007   .     S
N1162  Zn1172  2.007   .     S
O1163  Zn1171  1.990   .     S
O1164  Zn1172  1.990   .     S
O1165  Zn1171  1.991   .     S
O1166  Zn1172  1.991   .     S
O1167  Zn1171  2.026   .     S
O1168  Zn1172  2.026   .     S
O1169  Zn1171  2.021   .     S
O1170  Zn1172  2.021   .     S
C1173  N1174   1.158   .     T
C1175  N1176   1.158   .     T
C1177  N1178   1.158   .     T
C1179  N1180   1.158   .     T
C1181  N1182   1.157   .     T
C1183  N1184   1.157   .     T
C1185  N1186   1.157   .     T
C1187  N1188   1.157   .     T
