data_str_m2_o2_o5_pcu_sym.122
_audit_creation_date              2020-01-03
_audit_creation_method            'Materials Studio'
_symmetry_space_group_name_H-M    'P1'
_symmetry_Int_Tables_number       1
_symmetry_cell_setting            triclinic
loop_
_symmetry_equiv_pos_as_xyz
  x,y,z
_cell_length_a                    30.4814
_cell_length_b                    28.0385
_cell_length_c                    27.1870
_cell_angle_alpha                 90.0029
_cell_angle_beta                  94.0491
_cell_angle_gamma                 90.0142
loop_
_atom_site_label
_atom_site_type_symbol
_atom_site_fract_x
_atom_site_fract_y
_atom_site_fract_z
_atom_site_U_iso_or_equiv
_atom_site_adp_type
_atom_site_occupancy
C1     C     0.16495   0.24995   0.16739   0.00000  Uiso   1.00
C2     C     0.26876   0.44694   0.20644   0.00000  Uiso   1.00
C3     C     0.24984   0.25000   0.07362   0.00000  Uiso   1.00
C4     C     0.25016   0.25000   0.25971   0.00000  Uiso   1.00
C5     C     0.24999   0.02718   0.16667   0.00000  Uiso   1.00
C6     C     0.24999   0.47312   0.16667   0.00000  Uiso   1.00
C7     C     0.24994   0.25001   0.02187   0.00000  Uiso   1.00
C8     C     0.25006   0.25001   0.31146   0.00000  Uiso   1.00
C9     C     0.04501   0.28603   0.14895   0.00000  Uiso   1.00
C10    C     0.45107   0.20765   0.14735   0.00000  Uiso   1.00
C11    C     0.45502   0.28587   0.18444   0.00000  Uiso   1.00
C12    C     0.33505   0.24996   0.16593   0.00000  Uiso   1.00
C13    C     0.04881   0.20746   0.18523   0.00000  Uiso   1.00
C14    C     0.09052   0.28853   0.15050   0.00000  Uiso   1.00
C15    C     0.40524   0.20922   0.14556   0.00000  Uiso   1.00
C16    C     0.40952   0.28837   0.18306   0.00000  Uiso   1.00
C17    C     0.09464   0.20902   0.18717   0.00000  Uiso   1.00
C18    C     0.11642   0.24937   0.16854   0.00000  Uiso   1.00
C19    C     0.38356   0.24939   0.16467   0.00000  Uiso   1.00
C20    C     0.02398   0.24586   0.16619   0.00000  Uiso   1.00
C21    C     0.47597   0.24587   0.16672   0.00000  Uiso   1.00
C22    C     0.31739   0.12631   0.22815   0.00000  Uiso   1.00
C23    C     0.28172   0.10373   0.19470   0.00000  Uiso   1.00
C24    C     0.20711   0.37371   0.08280   0.00000  Uiso   1.00
C25    C     0.18278   0.12624   0.10492   0.00000  Uiso   1.00
C26    C     0.29281   0.37376   0.25057   0.00000  Uiso   1.00
C27    C     0.23012   0.39652   0.12753   0.00000  Uiso   1.00
C28    C     0.21830   0.10371   0.13860   0.00000  Uiso   1.00
C29    C     0.26986   0.39654   0.20581   0.00000  Uiso   1.00
C30    C     0.28265   0.05339   0.19334   0.00000  Uiso   1.00
C31    C     0.23121   0.44692   0.12690   0.00000  Uiso   1.00
C32    C     0.21735   0.05337   0.13999   0.00000  Uiso   1.00
Cl33   Cl    0.11177   0.34259   0.12972   0.00000  Uiso   1.00
Cl34   Cl    0.37720   0.16134   0.11514   0.00000  Uiso   1.00
Cl35   Cl    0.38836   0.34215   0.20457   0.00000  Uiso   1.00
Cl36   Cl    0.12254   0.16085   0.21722   0.00000  Uiso   1.00
Cu37   Cu    0.25000   0.29821   0.16667   0.00000  Uiso   1.00
Cu38   Cu    0.25000   0.20178   0.16667   0.00000  Uiso   1.00
H39    H     0.02576   0.31598   0.13431   0.00000  Uiso   1.00
H40    H     0.32020   0.10718   0.26404   0.00000  Uiso   1.00
H41    H     0.34936   0.12326   0.21124   0.00000  Uiso   1.00
H42    H     0.18970   0.34098   0.09217   0.00000  Uiso   1.00
H43    H     0.18140   0.39766   0.06546   0.00000  Uiso   1.00
H44    H     0.23113   0.36661   0.05483   0.00000  Uiso   1.00
H45    H     0.18813   0.16366   0.09599   0.00000  Uiso   1.00
H46    H     0.18051   0.10739   0.06887   0.00000  Uiso   1.00
H47    H     0.15063   0.12270   0.12135   0.00000  Uiso   1.00
H48    H     0.31020   0.34103   0.24123   0.00000  Uiso   1.00
H49    H     0.31853   0.39772   0.26793   0.00000  Uiso   1.00
H50    H     0.46730   0.17719   0.13213   0.00000  Uiso   1.00
H51    H     0.26877   0.36668   0.27852   0.00000  Uiso   1.00
H52    H     0.47433   0.31568   0.19938   0.00000  Uiso   1.00
H53    H     0.03251   0.17686   0.20011   0.00000  Uiso   1.00
H54    H     0.30930   0.03488   0.21369   0.00000  Uiso   1.00
H55    H     0.21746   0.46557   0.09453   0.00000  Uiso   1.00
H56    H     0.19071   0.03486   0.11959   0.00000  Uiso   1.00
H57    H     0.28250   0.46561   0.23881   0.00000  Uiso   1.00
H58    H     0.31180   0.16359   0.23749   0.00000  Uiso   1.00
N59    N     0.25000   0.12934   0.16667   0.00000  Uiso   1.00
N60    N     0.25000   0.37065   0.16667   0.00000  Uiso   1.00
O61    O     0.18573   0.29071   0.16667   0.00000  Uiso   1.00
O62    O     0.31427   0.20928   0.16666   0.00000  Uiso   1.00
O63    O     0.31427   0.29071   0.16666   0.00000  Uiso   1.00
O64    O     0.18573   0.20928   0.16667   0.00000  Uiso   1.00
O65    O     0.25000   0.29071   0.09613   0.00000  Uiso   1.00
O66    O     0.25000   0.20929   0.23720   0.00000  Uiso   1.00
O67    O     0.25000   0.29071   0.23720   0.00000  Uiso   1.00
O68    O     0.25000   0.20929   0.09613   0.00000  Uiso   1.00
C69    C     0.66495   0.24995   0.16739   0.00000  Uiso   1.00
C70    C     0.76876   0.44694   0.20644   0.00000  Uiso   1.00
C71    C     0.74984   0.25000   0.07362   0.00000  Uiso   1.00
C72    C     0.75016   0.25000   0.25971   0.00000  Uiso   1.00
C73    C     0.74999   0.02718   0.16667   0.00000  Uiso   1.00
C74    C     0.74999   0.47312   0.16667   0.00000  Uiso   1.00
C75    C     0.74994   0.25001   0.02187   0.00000  Uiso   1.00
C76    C     0.75006   0.25001   0.31146   0.00000  Uiso   1.00
C77    C     0.54501   0.28603   0.14895   0.00000  Uiso   1.00
C78    C     0.95107   0.20765   0.14735   0.00000  Uiso   1.00
C79    C     0.95502   0.28587   0.18444   0.00000  Uiso   1.00
C80    C     0.83505   0.24996   0.16593   0.00000  Uiso   1.00
C81    C     0.54881   0.20746   0.18523   0.00000  Uiso   1.00
C82    C     0.59052   0.28853   0.15050   0.00000  Uiso   1.00
C83    C     0.90524   0.20922   0.14556   0.00000  Uiso   1.00
C84    C     0.90952   0.28837   0.18306   0.00000  Uiso   1.00
C85    C     0.59464   0.20902   0.18717   0.00000  Uiso   1.00
C86    C     0.61642   0.24937   0.16854   0.00000  Uiso   1.00
C87    C     0.88356   0.24939   0.16467   0.00000  Uiso   1.00
C88    C     0.52398   0.24586   0.16619   0.00000  Uiso   1.00
C89    C     0.97597   0.24587   0.16672   0.00000  Uiso   1.00
C90    C     0.81739   0.12631   0.22815   0.00000  Uiso   1.00
C91    C     0.78172   0.10373   0.19470   0.00000  Uiso   1.00
C92    C     0.70711   0.37371   0.08280   0.00000  Uiso   1.00
C93    C     0.68278   0.12624   0.10492   0.00000  Uiso   1.00
C94    C     0.79281   0.37376   0.25057   0.00000  Uiso   1.00
C95    C     0.73012   0.39652   0.12753   0.00000  Uiso   1.00
C96    C     0.71830   0.10371   0.13860   0.00000  Uiso   1.00
C97    C     0.76986   0.39654   0.20581   0.00000  Uiso   1.00
C98    C     0.78265   0.05339   0.19334   0.00000  Uiso   1.00
C99    C     0.73121   0.44692   0.12690   0.00000  Uiso   1.00
C100   C     0.71735   0.05337   0.13999   0.00000  Uiso   1.00
Cl101  Cl    0.61177   0.34259   0.12972   0.00000  Uiso   1.00
Cl102  Cl    0.87720   0.16134   0.11514   0.00000  Uiso   1.00
Cl103  Cl    0.88836   0.34215   0.20457   0.00000  Uiso   1.00
Cl104  Cl    0.62254   0.16085   0.21722   0.00000  Uiso   1.00
Cu105  Cu    0.75000   0.29821   0.16667   0.00000  Uiso   1.00
Cu106  Cu    0.75000   0.20178   0.16667   0.00000  Uiso   1.00
H107   H     0.52576   0.31598   0.13431   0.00000  Uiso   1.00
H108   H     0.82020   0.10718   0.26404   0.00000  Uiso   1.00
H109   H     0.84936   0.12326   0.21124   0.00000  Uiso   1.00
H110   H     0.68970   0.34098   0.09217   0.00000  Uiso   1.00
H111   H     0.68140   0.39766   0.06546   0.00000  Uiso   1.00
H112   H     0.73113   0.36661   0.05483   0.00000  Uiso   1.00
H113   H     0.68813   0.16366   0.09599   0.00000  Uiso   1.00
H114   H     0.68051   0.10739   0.06887   0.00000  Uiso   1.00
H115   H     0.65063   0.12270   0.12135   0.00000  Uiso   1.00
H116   H     0.81020   0.34103   0.24123   0.00000  Uiso   1.00
H117   H     0.81853   0.39772   0.26793   0.00000  Uiso   1.00
H118   H     0.96730   0.17719   0.13213   0.00000  Uiso   1.00
H119   H     0.76877   0.36668   0.27852   0.00000  Uiso   1.00
H120   H     0.97433   0.31568   0.19938   0.00000  Uiso   1.00
H121   H     0.53251   0.17686   0.20011   0.00000  Uiso   1.00
H122   H     0.80930   0.03488   0.21369   0.00000  Uiso   1.00
H123   H     0.71746   0.46557   0.09453   0.00000  Uiso   1.00
H124   H     0.69071   0.03486   0.11959   0.00000  Uiso   1.00
H125   H     0.78250   0.46561   0.23881   0.00000  Uiso   1.00
H126   H     0.81180   0.16359   0.23749   0.00000  Uiso   1.00
N127   N     0.75000   0.12934   0.16667   0.00000  Uiso   1.00
N128   N     0.75000   0.37065   0.16667   0.00000  Uiso   1.00
O129   O     0.68573   0.29071   0.16667   0.00000  Uiso   1.00
O130   O     0.81427   0.20928   0.16666   0.00000  Uiso   1.00
O131   O     0.81427   0.29071   0.16666   0.00000  Uiso   1.00
O132   O     0.68573   0.20928   0.16667   0.00000  Uiso   1.00
O133   O     0.75000   0.29071   0.09613   0.00000  Uiso   1.00
O134   O     0.75000   0.20929   0.23720   0.00000  Uiso   1.00
O135   O     0.75000   0.29071   0.23720   0.00000  Uiso   1.00
O136   O     0.75000   0.20929   0.09613   0.00000  Uiso   1.00
C137   C     0.16495   0.74995   0.16739   0.00000  Uiso   1.00
C138   C     0.26876   0.94694   0.20644   0.00000  Uiso   1.00
C139   C     0.24984   0.75000   0.07362   0.00000  Uiso   1.00
C140   C     0.25016   0.75000   0.25971   0.00000  Uiso   1.00
C141   C     0.24999   0.52718   0.16667   0.00000  Uiso   1.00
C142   C     0.24999   0.97312   0.16667   0.00000  Uiso   1.00
C143   C     0.24994   0.75001   0.02187   0.00000  Uiso   1.00
C144   C     0.25006   0.75001   0.31146   0.00000  Uiso   1.00
C145   C     0.04501   0.78603   0.14895   0.00000  Uiso   1.00
C146   C     0.45107   0.70765   0.14735   0.00000  Uiso   1.00
C147   C     0.45502   0.78587   0.18444   0.00000  Uiso   1.00
C148   C     0.33505   0.74996   0.16593   0.00000  Uiso   1.00
C149   C     0.04881   0.70746   0.18523   0.00000  Uiso   1.00
C150   C     0.09052   0.78853   0.15050   0.00000  Uiso   1.00
C151   C     0.40524   0.70922   0.14556   0.00000  Uiso   1.00
C152   C     0.40952   0.78837   0.18306   0.00000  Uiso   1.00
C153   C     0.09464   0.70902   0.18717   0.00000  Uiso   1.00
C154   C     0.11642   0.74937   0.16854   0.00000  Uiso   1.00
C155   C     0.38356   0.74939   0.16467   0.00000  Uiso   1.00
C156   C     0.02398   0.74586   0.16619   0.00000  Uiso   1.00
C157   C     0.47597   0.74587   0.16672   0.00000  Uiso   1.00
C158   C     0.31739   0.62631   0.22815   0.00000  Uiso   1.00
C159   C     0.28172   0.60373   0.19470   0.00000  Uiso   1.00
C160   C     0.20711   0.87371   0.08280   0.00000  Uiso   1.00
C161   C     0.18278   0.62624   0.10492   0.00000  Uiso   1.00
C162   C     0.29281   0.87376   0.25057   0.00000  Uiso   1.00
C163   C     0.23012   0.89652   0.12753   0.00000  Uiso   1.00
C164   C     0.21830   0.60371   0.13860   0.00000  Uiso   1.00
C165   C     0.26986   0.89654   0.20581   0.00000  Uiso   1.00
C166   C     0.28265   0.55339   0.19334   0.00000  Uiso   1.00
C167   C     0.23121   0.94692   0.12690   0.00000  Uiso   1.00
C168   C     0.21735   0.55337   0.13999   0.00000  Uiso   1.00
Cl169  Cl    0.11177   0.84259   0.12972   0.00000  Uiso   1.00
Cl170  Cl    0.37720   0.66134   0.11514   0.00000  Uiso   1.00
Cl171  Cl    0.38836   0.84215   0.20457   0.00000  Uiso   1.00
Cl172  Cl    0.12254   0.66085   0.21722   0.00000  Uiso   1.00
Cu173  Cu    0.25000   0.79821   0.16667   0.00000  Uiso   1.00
Cu174  Cu    0.25000   0.70178   0.16667   0.00000  Uiso   1.00
H175   H     0.02576   0.81598   0.13431   0.00000  Uiso   1.00
H176   H     0.32020   0.60718   0.26404   0.00000  Uiso   1.00
H177   H     0.34936   0.62326   0.21124   0.00000  Uiso   1.00
H178   H     0.18970   0.84098   0.09217   0.00000  Uiso   1.00
H179   H     0.18140   0.89766   0.06546   0.00000  Uiso   1.00
H180   H     0.23113   0.86661   0.05483   0.00000  Uiso   1.00
H181   H     0.18813   0.66366   0.09599   0.00000  Uiso   1.00
H182   H     0.18051   0.60739   0.06887   0.00000  Uiso   1.00
H183   H     0.15063   0.62270   0.12135   0.00000  Uiso   1.00
H184   H     0.31020   0.84103   0.24123   0.00000  Uiso   1.00
H185   H     0.31853   0.89772   0.26793   0.00000  Uiso   1.00
H186   H     0.46730   0.67719   0.13213   0.00000  Uiso   1.00
H187   H     0.26877   0.86668   0.27852   0.00000  Uiso   1.00
H188   H     0.47433   0.81568   0.19938   0.00000  Uiso   1.00
H189   H     0.03251   0.67686   0.20011   0.00000  Uiso   1.00
H190   H     0.30930   0.53488   0.21369   0.00000  Uiso   1.00
H191   H     0.21746   0.96557   0.09453   0.00000  Uiso   1.00
H192   H     0.19071   0.53486   0.11959   0.00000  Uiso   1.00
H193   H     0.28250   0.96561   0.23881   0.00000  Uiso   1.00
H194   H     0.31180   0.66359   0.23749   0.00000  Uiso   1.00
N195   N     0.25000   0.62934   0.16667   0.00000  Uiso   1.00
N196   N     0.25000   0.87065   0.16667   0.00000  Uiso   1.00
O197   O     0.18573   0.79071   0.16667   0.00000  Uiso   1.00
O198   O     0.31427   0.70928   0.16666   0.00000  Uiso   1.00
O199   O     0.31427   0.79071   0.16666   0.00000  Uiso   1.00
O200   O     0.18573   0.70928   0.16667   0.00000  Uiso   1.00
O201   O     0.25000   0.79071   0.09613   0.00000  Uiso   1.00
O202   O     0.25000   0.70929   0.23720   0.00000  Uiso   1.00
O203   O     0.25000   0.79071   0.23720   0.00000  Uiso   1.00
O204   O     0.25000   0.70929   0.09613   0.00000  Uiso   1.00
C205   C     0.66495   0.74995   0.16739   0.00000  Uiso   1.00
C206   C     0.76876   0.94694   0.20644   0.00000  Uiso   1.00
C207   C     0.74984   0.75000   0.07362   0.00000  Uiso   1.00
C208   C     0.75016   0.75000   0.25971   0.00000  Uiso   1.00
C209   C     0.74999   0.52718   0.16667   0.00000  Uiso   1.00
C210   C     0.74999   0.97312   0.16667   0.00000  Uiso   1.00
C211   C     0.74994   0.75001   0.02187   0.00000  Uiso   1.00
C212   C     0.75006   0.75001   0.31146   0.00000  Uiso   1.00
C213   C     0.54501   0.78603   0.14895   0.00000  Uiso   1.00
C214   C     0.95107   0.70765   0.14735   0.00000  Uiso   1.00
C215   C     0.95502   0.78587   0.18444   0.00000  Uiso   1.00
C216   C     0.83505   0.74996   0.16593   0.00000  Uiso   1.00
C217   C     0.54881   0.70746   0.18523   0.00000  Uiso   1.00
C218   C     0.59052   0.78853   0.15050   0.00000  Uiso   1.00
C219   C     0.90524   0.70922   0.14556   0.00000  Uiso   1.00
C220   C     0.90952   0.78837   0.18306   0.00000  Uiso   1.00
C221   C     0.59464   0.70902   0.18717   0.00000  Uiso   1.00
C222   C     0.61642   0.74937   0.16854   0.00000  Uiso   1.00
C223   C     0.88356   0.74939   0.16467   0.00000  Uiso   1.00
C224   C     0.52398   0.74586   0.16619   0.00000  Uiso   1.00
C225   C     0.97597   0.74587   0.16672   0.00000  Uiso   1.00
C226   C     0.81739   0.62631   0.22815   0.00000  Uiso   1.00
C227   C     0.78172   0.60373   0.19470   0.00000  Uiso   1.00
C228   C     0.70711   0.87371   0.08280   0.00000  Uiso   1.00
C229   C     0.68278   0.62624   0.10492   0.00000  Uiso   1.00
C230   C     0.79281   0.87376   0.25057   0.00000  Uiso   1.00
C231   C     0.73012   0.89652   0.12753   0.00000  Uiso   1.00
C232   C     0.71830   0.60371   0.13860   0.00000  Uiso   1.00
C233   C     0.76986   0.89654   0.20581   0.00000  Uiso   1.00
C234   C     0.78265   0.55339   0.19334   0.00000  Uiso   1.00
C235   C     0.73121   0.94692   0.12690   0.00000  Uiso   1.00
C236   C     0.71735   0.55337   0.13999   0.00000  Uiso   1.00
Cl237  Cl    0.61177   0.84259   0.12972   0.00000  Uiso   1.00
Cl238  Cl    0.87720   0.66134   0.11514   0.00000  Uiso   1.00
Cl239  Cl    0.88836   0.84215   0.20457   0.00000  Uiso   1.00
Cl240  Cl    0.62254   0.66085   0.21722   0.00000  Uiso   1.00
Cu241  Cu    0.75000   0.79821   0.16667   0.00000  Uiso   1.00
Cu242  Cu    0.75000   0.70178   0.16667   0.00000  Uiso   1.00
H243   H     0.52576   0.81598   0.13431   0.00000  Uiso   1.00
H244   H     0.82020   0.60718   0.26404   0.00000  Uiso   1.00
H245   H     0.84936   0.62326   0.21124   0.00000  Uiso   1.00
H246   H     0.68970   0.84098   0.09217   0.00000  Uiso   1.00
H247   H     0.68140   0.89766   0.06546   0.00000  Uiso   1.00
H248   H     0.73113   0.86661   0.05483   0.00000  Uiso   1.00
H249   H     0.68813   0.66366   0.09599   0.00000  Uiso   1.00
H250   H     0.68051   0.60739   0.06887   0.00000  Uiso   1.00
H251   H     0.65063   0.62270   0.12135   0.00000  Uiso   1.00
H252   H     0.81020   0.84103   0.24123   0.00000  Uiso   1.00
H253   H     0.81853   0.89772   0.26793   0.00000  Uiso   1.00
H254   H     0.96730   0.67719   0.13213   0.00000  Uiso   1.00
H255   H     0.76877   0.86668   0.27852   0.00000  Uiso   1.00
H256   H     0.97433   0.81568   0.19938   0.00000  Uiso   1.00
H257   H     0.53251   0.67686   0.20011   0.00000  Uiso   1.00
H258   H     0.80930   0.53488   0.21369   0.00000  Uiso   1.00
H259   H     0.71746   0.96557   0.09453   0.00000  Uiso   1.00
H260   H     0.69071   0.53486   0.11959   0.00000  Uiso   1.00
H261   H     0.78250   0.96561   0.23881   0.00000  Uiso   1.00
H262   H     0.81180   0.66359   0.23749   0.00000  Uiso   1.00
N263   N     0.75000   0.62934   0.16667   0.00000  Uiso   1.00
N264   N     0.75000   0.87065   0.16667   0.00000  Uiso   1.00
O265   O     0.68573   0.79071   0.16667   0.00000  Uiso   1.00
O266   O     0.81427   0.70928   0.16666   0.00000  Uiso   1.00
O267   O     0.81427   0.79071   0.16666   0.00000  Uiso   1.00
O268   O     0.68573   0.70928   0.16667   0.00000  Uiso   1.00
O269   O     0.75000   0.79071   0.09613   0.00000  Uiso   1.00
O270   O     0.75000   0.70929   0.23720   0.00000  Uiso   1.00
O271   O     0.75000   0.79071   0.23720   0.00000  Uiso   1.00
O272   O     0.75000   0.70929   0.09613   0.00000  Uiso   1.00
C273   C     0.16495   0.24995   0.50072   0.00000  Uiso   1.00
C274   C     0.26876   0.44694   0.53977   0.00000  Uiso   1.00
C275   C     0.24984   0.25000   0.40695   0.00000  Uiso   1.00
C276   C     0.25016   0.25000   0.59305   0.00000  Uiso   1.00
C277   C     0.24999   0.02718   0.50001   0.00000  Uiso   1.00
C278   C     0.24999   0.47312   0.50000   0.00000  Uiso   1.00
C279   C     0.24994   0.25001   0.35520   0.00000  Uiso   1.00
C280   C     0.25006   0.25001   0.64480   0.00000  Uiso   1.00
C281   C     0.04501   0.28603   0.48228   0.00000  Uiso   1.00
C282   C     0.45107   0.20765   0.48068   0.00000  Uiso   1.00
C283   C     0.45502   0.28587   0.51777   0.00000  Uiso   1.00
C284   C     0.33505   0.24996   0.49927   0.00000  Uiso   1.00
C285   C     0.04881   0.20746   0.51857   0.00000  Uiso   1.00
C286   C     0.09052   0.28853   0.48383   0.00000  Uiso   1.00
C287   C     0.40524   0.20922   0.47890   0.00000  Uiso   1.00
C288   C     0.40952   0.28837   0.51639   0.00000  Uiso   1.00
C289   C     0.09464   0.20902   0.52050   0.00000  Uiso   1.00
C290   C     0.11642   0.24937   0.50187   0.00000  Uiso   1.00
C291   C     0.38356   0.24939   0.49800   0.00000  Uiso   1.00
C292   C     0.02398   0.24586   0.49953   0.00000  Uiso   1.00
C293   C     0.47597   0.24587   0.50005   0.00000  Uiso   1.00
C294   C     0.31739   0.12631   0.56149   0.00000  Uiso   1.00
C295   C     0.28172   0.10373   0.52803   0.00000  Uiso   1.00
C296   C     0.20711   0.37371   0.41613   0.00000  Uiso   1.00
C297   C     0.18278   0.12624   0.43825   0.00000  Uiso   1.00
C298   C     0.29281   0.37376   0.58390   0.00000  Uiso   1.00
C299   C     0.23012   0.39652   0.46086   0.00000  Uiso   1.00
C300   C     0.21830   0.10371   0.47193   0.00000  Uiso   1.00
C301   C     0.26986   0.39654   0.53914   0.00000  Uiso   1.00
C302   C     0.28265   0.05339   0.52667   0.00000  Uiso   1.00
C303   C     0.23121   0.44692   0.46023   0.00000  Uiso   1.00
C304   C     0.21735   0.05337   0.47332   0.00000  Uiso   1.00
Cl305  Cl    0.11177   0.34259   0.46305   0.00000  Uiso   1.00
Cl306  Cl    0.37720   0.16134   0.44847   0.00000  Uiso   1.00
Cl307  Cl    0.38836   0.34215   0.53791   0.00000  Uiso   1.00
Cl308  Cl    0.12254   0.16085   0.55055   0.00000  Uiso   1.00
Cu309  Cu    0.25000   0.29821   0.50000   0.00000  Uiso   1.00
Cu310  Cu    0.25000   0.20178   0.50000   0.00000  Uiso   1.00
H311   H     0.02576   0.31598   0.46764   0.00000  Uiso   1.00
H312   H     0.32020   0.10718   0.59737   0.00000  Uiso   1.00
H313   H     0.34936   0.12326   0.54458   0.00000  Uiso   1.00
H314   H     0.18970   0.34098   0.42550   0.00000  Uiso   1.00
H315   H     0.18140   0.39766   0.39879   0.00000  Uiso   1.00
H316   H     0.23113   0.36661   0.38816   0.00000  Uiso   1.00
H317   H     0.18813   0.16366   0.42933   0.00000  Uiso   1.00
H318   H     0.18051   0.10739   0.40220   0.00000  Uiso   1.00
H319   H     0.15063   0.12270   0.45469   0.00000  Uiso   1.00
H320   H     0.31020   0.34103   0.57456   0.00000  Uiso   1.00
H321   H     0.31853   0.39772   0.60126   0.00000  Uiso   1.00
H322   H     0.46730   0.17719   0.46546   0.00000  Uiso   1.00
H323   H     0.26877   0.36668   0.61185   0.00000  Uiso   1.00
H324   H     0.47433   0.31568   0.53271   0.00000  Uiso   1.00
H325   H     0.03251   0.17686   0.53345   0.00000  Uiso   1.00
H326   H     0.30930   0.03488   0.54703   0.00000  Uiso   1.00
H327   H     0.21746   0.46557   0.42786   0.00000  Uiso   1.00
H328   H     0.19071   0.03486   0.45292   0.00000  Uiso   1.00
H329   H     0.28250   0.46561   0.57214   0.00000  Uiso   1.00
H330   H     0.31180   0.16359   0.57083   0.00000  Uiso   1.00
N331   N     0.25000   0.12934   0.50000   0.00000  Uiso   1.00
N332   N     0.25000   0.37065   0.50000   0.00000  Uiso   1.00
O333   O     0.18573   0.29071   0.50000   0.00000  Uiso   1.00
O334   O     0.31427   0.20928   0.50000   0.00000  Uiso   1.00
O335   O     0.31427   0.29071   0.50000   0.00000  Uiso   1.00
O336   O     0.18573   0.20928   0.50000   0.00000  Uiso   1.00
O337   O     0.25000   0.29071   0.42946   0.00000  Uiso   1.00
O338   O     0.25000   0.20929   0.57054   0.00000  Uiso   1.00
O339   O     0.25000   0.29071   0.57054   0.00000  Uiso   1.00
O340   O     0.25000   0.20929   0.42946   0.00000  Uiso   1.00
C341   C     0.66495   0.24995   0.50072   0.00000  Uiso   1.00
C342   C     0.76876   0.44694   0.53977   0.00000  Uiso   1.00
C343   C     0.74984   0.25000   0.40695   0.00000  Uiso   1.00
C344   C     0.75016   0.25000   0.59305   0.00000  Uiso   1.00
C345   C     0.74999   0.02718   0.50001   0.00000  Uiso   1.00
C346   C     0.74999   0.47312   0.50000   0.00000  Uiso   1.00
C347   C     0.74994   0.25001   0.35520   0.00000  Uiso   1.00
C348   C     0.75006   0.25001   0.64480   0.00000  Uiso   1.00
C349   C     0.54501   0.28603   0.48228   0.00000  Uiso   1.00
C350   C     0.95107   0.20765   0.48068   0.00000  Uiso   1.00
C351   C     0.95502   0.28587   0.51777   0.00000  Uiso   1.00
C352   C     0.83505   0.24996   0.49927   0.00000  Uiso   1.00
C353   C     0.54881   0.20746   0.51857   0.00000  Uiso   1.00
C354   C     0.59052   0.28853   0.48383   0.00000  Uiso   1.00
C355   C     0.90524   0.20922   0.47890   0.00000  Uiso   1.00
C356   C     0.90952   0.28837   0.51639   0.00000  Uiso   1.00
C357   C     0.59464   0.20902   0.52050   0.00000  Uiso   1.00
C358   C     0.61642   0.24937   0.50187   0.00000  Uiso   1.00
C359   C     0.88356   0.24939   0.49800   0.00000  Uiso   1.00
C360   C     0.52398   0.24586   0.49953   0.00000  Uiso   1.00
C361   C     0.97597   0.24587   0.50005   0.00000  Uiso   1.00
C362   C     0.81739   0.12631   0.56149   0.00000  Uiso   1.00
C363   C     0.78172   0.10373   0.52803   0.00000  Uiso   1.00
C364   C     0.70711   0.37371   0.41613   0.00000  Uiso   1.00
C365   C     0.68278   0.12624   0.43825   0.00000  Uiso   1.00
C366   C     0.79281   0.37376   0.58390   0.00000  Uiso   1.00
C367   C     0.73012   0.39652   0.46086   0.00000  Uiso   1.00
C368   C     0.71830   0.10371   0.47193   0.00000  Uiso   1.00
C369   C     0.76986   0.39654   0.53914   0.00000  Uiso   1.00
C370   C     0.78265   0.05339   0.52667   0.00000  Uiso   1.00
C371   C     0.73121   0.44692   0.46023   0.00000  Uiso   1.00
C372   C     0.71735   0.05337   0.47332   0.00000  Uiso   1.00
Cl373  Cl    0.61177   0.34259   0.46305   0.00000  Uiso   1.00
Cl374  Cl    0.87720   0.16134   0.44847   0.00000  Uiso   1.00
Cl375  Cl    0.88836   0.34215   0.53791   0.00000  Uiso   1.00
Cl376  Cl    0.62254   0.16085   0.55055   0.00000  Uiso   1.00
Cu377  Cu    0.75000   0.29821   0.50000   0.00000  Uiso   1.00
Cu378  Cu    0.75000   0.20178   0.50000   0.00000  Uiso   1.00
H379   H     0.52576   0.31598   0.46764   0.00000  Uiso   1.00
H380   H     0.82020   0.10718   0.59737   0.00000  Uiso   1.00
H381   H     0.84936   0.12326   0.54458   0.00000  Uiso   1.00
H382   H     0.68970   0.34098   0.42550   0.00000  Uiso   1.00
H383   H     0.68140   0.39766   0.39879   0.00000  Uiso   1.00
H384   H     0.73113   0.36661   0.38816   0.00000  Uiso   1.00
H385   H     0.68813   0.16366   0.42933   0.00000  Uiso   1.00
H386   H     0.68051   0.10739   0.40220   0.00000  Uiso   1.00
H387   H     0.65063   0.12270   0.45469   0.00000  Uiso   1.00
H388   H     0.81020   0.34103   0.57456   0.00000  Uiso   1.00
H389   H     0.81853   0.39772   0.60126   0.00000  Uiso   1.00
H390   H     0.96730   0.17719   0.46546   0.00000  Uiso   1.00
H391   H     0.76877   0.36668   0.61185   0.00000  Uiso   1.00
H392   H     0.97433   0.31568   0.53271   0.00000  Uiso   1.00
H393   H     0.53251   0.17686   0.53345   0.00000  Uiso   1.00
H394   H     0.80930   0.03488   0.54703   0.00000  Uiso   1.00
H395   H     0.71746   0.46557   0.42786   0.00000  Uiso   1.00
H396   H     0.69071   0.03486   0.45292   0.00000  Uiso   1.00
H397   H     0.78250   0.46561   0.57214   0.00000  Uiso   1.00
H398   H     0.81180   0.16359   0.57083   0.00000  Uiso   1.00
N399   N     0.75000   0.12934   0.50000   0.00000  Uiso   1.00
N400   N     0.75000   0.37065   0.50000   0.00000  Uiso   1.00
O401   O     0.68573   0.29071   0.50000   0.00000  Uiso   1.00
O402   O     0.81427   0.20928   0.50000   0.00000  Uiso   1.00
O403   O     0.81427   0.29071   0.50000   0.00000  Uiso   1.00
O404   O     0.68573   0.20928   0.50000   0.00000  Uiso   1.00
O405   O     0.75000   0.29071   0.42946   0.00000  Uiso   1.00
O406   O     0.75000   0.20929   0.57054   0.00000  Uiso   1.00
O407   O     0.75000   0.29071   0.57054   0.00000  Uiso   1.00
O408   O     0.75000   0.20929   0.42946   0.00000  Uiso   1.00
C409   C     0.16495   0.74995   0.50072   0.00000  Uiso   1.00
C410   C     0.26876   0.94694   0.53977   0.00000  Uiso   1.00
C411   C     0.24984   0.75000   0.40695   0.00000  Uiso   1.00
C412   C     0.25016   0.75000   0.59305   0.00000  Uiso   1.00
C413   C     0.24999   0.52718   0.50001   0.00000  Uiso   1.00
C414   C     0.24999   0.97312   0.50000   0.00000  Uiso   1.00
C415   C     0.24994   0.75001   0.35520   0.00000  Uiso   1.00
C416   C     0.25006   0.75001   0.64480   0.00000  Uiso   1.00
C417   C     0.04501   0.78603   0.48228   0.00000  Uiso   1.00
C418   C     0.45107   0.70765   0.48068   0.00000  Uiso   1.00
C419   C     0.45502   0.78587   0.51777   0.00000  Uiso   1.00
C420   C     0.33505   0.74996   0.49927   0.00000  Uiso   1.00
C421   C     0.04881   0.70746   0.51857   0.00000  Uiso   1.00
C422   C     0.09052   0.78853   0.48383   0.00000  Uiso   1.00
C423   C     0.40524   0.70922   0.47890   0.00000  Uiso   1.00
C424   C     0.40952   0.78837   0.51639   0.00000  Uiso   1.00
C425   C     0.09464   0.70902   0.52050   0.00000  Uiso   1.00
C426   C     0.11642   0.74937   0.50187   0.00000  Uiso   1.00
C427   C     0.38356   0.74939   0.49800   0.00000  Uiso   1.00
C428   C     0.02398   0.74586   0.49953   0.00000  Uiso   1.00
C429   C     0.47597   0.74587   0.50005   0.00000  Uiso   1.00
C430   C     0.31739   0.62631   0.56149   0.00000  Uiso   1.00
C431   C     0.28172   0.60373   0.52803   0.00000  Uiso   1.00
C432   C     0.20711   0.87371   0.41613   0.00000  Uiso   1.00
C433   C     0.18278   0.62624   0.43825   0.00000  Uiso   1.00
C434   C     0.29281   0.87376   0.58390   0.00000  Uiso   1.00
C435   C     0.23012   0.89652   0.46086   0.00000  Uiso   1.00
C436   C     0.21830   0.60371   0.47193   0.00000  Uiso   1.00
C437   C     0.26986   0.89654   0.53914   0.00000  Uiso   1.00
C438   C     0.28265   0.55339   0.52667   0.00000  Uiso   1.00
C439   C     0.23121   0.94692   0.46023   0.00000  Uiso   1.00
C440   C     0.21735   0.55337   0.47332   0.00000  Uiso   1.00
Cl441  Cl    0.11177   0.84259   0.46305   0.00000  Uiso   1.00
Cl442  Cl    0.37720   0.66134   0.44847   0.00000  Uiso   1.00
Cl443  Cl    0.38836   0.84215   0.53791   0.00000  Uiso   1.00
Cl444  Cl    0.12254   0.66085   0.55055   0.00000  Uiso   1.00
Cu445  Cu    0.25000   0.79821   0.50000   0.00000  Uiso   1.00
Cu446  Cu    0.25000   0.70178   0.50000   0.00000  Uiso   1.00
H447   H     0.02576   0.81598   0.46764   0.00000  Uiso   1.00
H448   H     0.32020   0.60718   0.59737   0.00000  Uiso   1.00
H449   H     0.34936   0.62326   0.54458   0.00000  Uiso   1.00
H450   H     0.18970   0.84098   0.42550   0.00000  Uiso   1.00
H451   H     0.18140   0.89766   0.39879   0.00000  Uiso   1.00
H452   H     0.23113   0.86661   0.38816   0.00000  Uiso   1.00
H453   H     0.18813   0.66366   0.42933   0.00000  Uiso   1.00
H454   H     0.18051   0.60739   0.40220   0.00000  Uiso   1.00
H455   H     0.15063   0.62270   0.45469   0.00000  Uiso   1.00
H456   H     0.31020   0.84103   0.57456   0.00000  Uiso   1.00
H457   H     0.31853   0.89772   0.60126   0.00000  Uiso   1.00
H458   H     0.46730   0.67719   0.46546   0.00000  Uiso   1.00
H459   H     0.26877   0.86668   0.61185   0.00000  Uiso   1.00
H460   H     0.47433   0.81568   0.53271   0.00000  Uiso   1.00
H461   H     0.03251   0.67686   0.53345   0.00000  Uiso   1.00
H462   H     0.30930   0.53488   0.54703   0.00000  Uiso   1.00
H463   H     0.21746   0.96557   0.42786   0.00000  Uiso   1.00
H464   H     0.19071   0.53486   0.45292   0.00000  Uiso   1.00
H465   H     0.28250   0.96561   0.57214   0.00000  Uiso   1.00
H466   H     0.31180   0.66359   0.57083   0.00000  Uiso   1.00
N467   N     0.25000   0.62934   0.50000   0.00000  Uiso   1.00
N468   N     0.25000   0.87065   0.50000   0.00000  Uiso   1.00
O469   O     0.18573   0.79071   0.50000   0.00000  Uiso   1.00
O470   O     0.31427   0.70928   0.50000   0.00000  Uiso   1.00
O471   O     0.31427   0.79071   0.50000   0.00000  Uiso   1.00
O472   O     0.18573   0.70928   0.50000   0.00000  Uiso   1.00
O473   O     0.25000   0.79071   0.42946   0.00000  Uiso   1.00
O474   O     0.25000   0.70929   0.57054   0.00000  Uiso   1.00
O475   O     0.25000   0.79071   0.57054   0.00000  Uiso   1.00
O476   O     0.25000   0.70929   0.42946   0.00000  Uiso   1.00
C477   C     0.66495   0.74995   0.50072   0.00000  Uiso   1.00
C478   C     0.76876   0.94694   0.53977   0.00000  Uiso   1.00
C479   C     0.74984   0.75000   0.40695   0.00000  Uiso   1.00
C480   C     0.75016   0.75000   0.59305   0.00000  Uiso   1.00
C481   C     0.74999   0.52718   0.50001   0.00000  Uiso   1.00
C482   C     0.74999   0.97312   0.50000   0.00000  Uiso   1.00
C483   C     0.74994   0.75001   0.35520   0.00000  Uiso   1.00
C484   C     0.75006   0.75001   0.64480   0.00000  Uiso   1.00
C485   C     0.54501   0.78603   0.48228   0.00000  Uiso   1.00
C486   C     0.95107   0.70765   0.48068   0.00000  Uiso   1.00
C487   C     0.95502   0.78587   0.51777   0.00000  Uiso   1.00
C488   C     0.83505   0.74996   0.49927   0.00000  Uiso   1.00
C489   C     0.54881   0.70746   0.51857   0.00000  Uiso   1.00
C490   C     0.59052   0.78853   0.48383   0.00000  Uiso   1.00
C491   C     0.90524   0.70922   0.47890   0.00000  Uiso   1.00
C492   C     0.90952   0.78837   0.51639   0.00000  Uiso   1.00
C493   C     0.59464   0.70902   0.52050   0.00000  Uiso   1.00
C494   C     0.61642   0.74937   0.50187   0.00000  Uiso   1.00
C495   C     0.88356   0.74939   0.49800   0.00000  Uiso   1.00
C496   C     0.52398   0.74586   0.49953   0.00000  Uiso   1.00
C497   C     0.97597   0.74587   0.50005   0.00000  Uiso   1.00
C498   C     0.81739   0.62631   0.56149   0.00000  Uiso   1.00
C499   C     0.78172   0.60373   0.52803   0.00000  Uiso   1.00
C500   C     0.70711   0.87371   0.41613   0.00000  Uiso   1.00
C501   C     0.68278   0.62624   0.43825   0.00000  Uiso   1.00
C502   C     0.79281   0.87376   0.58390   0.00000  Uiso   1.00
C503   C     0.73012   0.89652   0.46086   0.00000  Uiso   1.00
C504   C     0.71830   0.60371   0.47193   0.00000  Uiso   1.00
C505   C     0.76986   0.89654   0.53914   0.00000  Uiso   1.00
C506   C     0.78265   0.55339   0.52667   0.00000  Uiso   1.00
C507   C     0.73121   0.94692   0.46023   0.00000  Uiso   1.00
C508   C     0.71735   0.55337   0.47332   0.00000  Uiso   1.00
Cl509  Cl    0.61177   0.84259   0.46305   0.00000  Uiso   1.00
Cl510  Cl    0.87720   0.66134   0.44847   0.00000  Uiso   1.00
Cl511  Cl    0.88836   0.84215   0.53791   0.00000  Uiso   1.00
Cl512  Cl    0.62254   0.66085   0.55055   0.00000  Uiso   1.00
Cu513  Cu    0.75000   0.79821   0.50000   0.00000  Uiso   1.00
Cu514  Cu    0.75000   0.70178   0.50000   0.00000  Uiso   1.00
H515   H     0.52576   0.81598   0.46764   0.00000  Uiso   1.00
H516   H     0.82020   0.60718   0.59737   0.00000  Uiso   1.00
H517   H     0.84936   0.62326   0.54458   0.00000  Uiso   1.00
H518   H     0.68970   0.84098   0.42550   0.00000  Uiso   1.00
H519   H     0.68140   0.89766   0.39879   0.00000  Uiso   1.00
H520   H     0.73113   0.86661   0.38816   0.00000  Uiso   1.00
H521   H     0.68813   0.66366   0.42933   0.00000  Uiso   1.00
H522   H     0.68051   0.60739   0.40220   0.00000  Uiso   1.00
H523   H     0.65063   0.62270   0.45469   0.00000  Uiso   1.00
H524   H     0.81020   0.84103   0.57456   0.00000  Uiso   1.00
H525   H     0.81853   0.89772   0.60126   0.00000  Uiso   1.00
H526   H     0.96730   0.67719   0.46546   0.00000  Uiso   1.00
H527   H     0.76877   0.86668   0.61185   0.00000  Uiso   1.00
H528   H     0.97433   0.81568   0.53271   0.00000  Uiso   1.00
H529   H     0.53251   0.67686   0.53345   0.00000  Uiso   1.00
H530   H     0.80930   0.53488   0.54703   0.00000  Uiso   1.00
H531   H     0.71746   0.96557   0.42786   0.00000  Uiso   1.00
H532   H     0.69071   0.53486   0.45292   0.00000  Uiso   1.00
H533   H     0.78250   0.96561   0.57214   0.00000  Uiso   1.00
H534   H     0.81180   0.66359   0.57083   0.00000  Uiso   1.00
N535   N     0.75000   0.62934   0.50000   0.00000  Uiso   1.00
N536   N     0.75000   0.87065   0.50000   0.00000  Uiso   1.00
O537   O     0.68573   0.79071   0.50000   0.00000  Uiso   1.00
O538   O     0.81427   0.70928   0.50000   0.00000  Uiso   1.00
O539   O     0.81427   0.79071   0.50000   0.00000  Uiso   1.00
O540   O     0.68573   0.70928   0.50000   0.00000  Uiso   1.00
O541   O     0.75000   0.79071   0.42946   0.00000  Uiso   1.00
O542   O     0.75000   0.70929   0.57054   0.00000  Uiso   1.00
O543   O     0.75000   0.79071   0.57054   0.00000  Uiso   1.00
O544   O     0.75000   0.70929   0.42946   0.00000  Uiso   1.00
C545   C     0.16495   0.24995   0.83406   0.00000  Uiso   1.00
C546   C     0.26876   0.44694   0.87311   0.00000  Uiso   1.00
C547   C     0.24984   0.25000   0.74029   0.00000  Uiso   1.00
C548   C     0.25016   0.25000   0.92638   0.00000  Uiso   1.00
C549   C     0.24999   0.02718   0.83334   0.00000  Uiso   1.00
C550   C     0.24999   0.47312   0.83333   0.00000  Uiso   1.00
C551   C     0.24994   0.25001   0.68854   0.00000  Uiso   1.00
C552   C     0.25006   0.25001   0.97813   0.00000  Uiso   1.00
C553   C     0.04501   0.28603   0.81562   0.00000  Uiso   1.00
C554   C     0.45107   0.20765   0.81402   0.00000  Uiso   1.00
C555   C     0.45502   0.28587   0.85111   0.00000  Uiso   1.00
C556   C     0.33505   0.24996   0.83260   0.00000  Uiso   1.00
C557   C     0.04881   0.20746   0.85190   0.00000  Uiso   1.00
C558   C     0.09052   0.28853   0.81716   0.00000  Uiso   1.00
C559   C     0.40524   0.20922   0.81223   0.00000  Uiso   1.00
C560   C     0.40952   0.28837   0.84972   0.00000  Uiso   1.00
C561   C     0.09464   0.20902   0.85384   0.00000  Uiso   1.00
C562   C     0.11642   0.24937   0.83521   0.00000  Uiso   1.00
C563   C     0.38356   0.24939   0.83134   0.00000  Uiso   1.00
C564   C     0.02398   0.24586   0.83286   0.00000  Uiso   1.00
C565   C     0.47597   0.24587   0.83339   0.00000  Uiso   1.00
C566   C     0.31739   0.12631   0.89482   0.00000  Uiso   1.00
C567   C     0.28172   0.10373   0.86137   0.00000  Uiso   1.00
C568   C     0.20711   0.37371   0.74947   0.00000  Uiso   1.00
C569   C     0.18278   0.12624   0.77158   0.00000  Uiso   1.00
C570   C     0.29281   0.37376   0.91724   0.00000  Uiso   1.00
C571   C     0.23012   0.39652   0.79420   0.00000  Uiso   1.00
C572   C     0.21830   0.10371   0.80527   0.00000  Uiso   1.00
C573   C     0.26986   0.39654   0.87248   0.00000  Uiso   1.00
C574   C     0.28265   0.05339   0.86001   0.00000  Uiso   1.00
C575   C     0.23121   0.44692   0.79356   0.00000  Uiso   1.00
C576   C     0.21735   0.05337   0.80665   0.00000  Uiso   1.00
Cl577  Cl    0.11177   0.34259   0.79639   0.00000  Uiso   1.00
Cl578  Cl    0.37720   0.16134   0.78181   0.00000  Uiso   1.00
Cl579  Cl    0.38836   0.34215   0.87124   0.00000  Uiso   1.00
Cl580  Cl    0.12254   0.16085   0.88389   0.00000  Uiso   1.00
Cu581  Cu    0.25000   0.29821   0.83333   0.00000  Uiso   1.00
Cu582  Cu    0.25000   0.20178   0.83333   0.00000  Uiso   1.00
H583   H     0.02576   0.31598   0.80097   0.00000  Uiso   1.00
H584   H     0.32020   0.10718   0.93071   0.00000  Uiso   1.00
H585   H     0.34936   0.12326   0.87791   0.00000  Uiso   1.00
H586   H     0.18970   0.34098   0.75883   0.00000  Uiso   1.00
H587   H     0.18140   0.39766   0.73212   0.00000  Uiso   1.00
H588   H     0.23113   0.36661   0.72150   0.00000  Uiso   1.00
H589   H     0.18813   0.16366   0.76266   0.00000  Uiso   1.00
H590   H     0.18051   0.10739   0.73553   0.00000  Uiso   1.00
H591   H     0.15063   0.12270   0.78802   0.00000  Uiso   1.00
H592   H     0.31020   0.34103   0.90790   0.00000  Uiso   1.00
H593   H     0.31853   0.39772   0.93459   0.00000  Uiso   1.00
H594   H     0.46730   0.17719   0.79880   0.00000  Uiso   1.00
H595   H     0.26877   0.36668   0.94518   0.00000  Uiso   1.00
H596   H     0.47433   0.31568   0.86604   0.00000  Uiso   1.00
H597   H     0.03251   0.17686   0.86678   0.00000  Uiso   1.00
H598   H     0.30930   0.03488   0.88036   0.00000  Uiso   1.00
H599   H     0.21746   0.46557   0.76120   0.00000  Uiso   1.00
H600   H     0.19071   0.03486   0.78626   0.00000  Uiso   1.00
H601   H     0.28250   0.46561   0.90548   0.00000  Uiso   1.00
H602   H     0.31180   0.16359   0.90416   0.00000  Uiso   1.00
N603   N     0.25000   0.12934   0.83333   0.00000  Uiso   1.00
N604   N     0.25000   0.37065   0.83333   0.00000  Uiso   1.00
O605   O     0.18573   0.29071   0.83334   0.00000  Uiso   1.00
O606   O     0.31427   0.20928   0.83333   0.00000  Uiso   1.00
O607   O     0.31427   0.29071   0.83333   0.00000  Uiso   1.00
O608   O     0.18573   0.20928   0.83334   0.00000  Uiso   1.00
O609   O     0.25000   0.29071   0.76280   0.00000  Uiso   1.00
O610   O     0.25000   0.20929   0.90387   0.00000  Uiso   1.00
O611   O     0.25000   0.29071   0.90387   0.00000  Uiso   1.00
O612   O     0.25000   0.20929   0.76280   0.00000  Uiso   1.00
C613   C     0.66495   0.24995   0.83406   0.00000  Uiso   1.00
C614   C     0.76876   0.44694   0.87311   0.00000  Uiso   1.00
C615   C     0.74984   0.25000   0.74029   0.00000  Uiso   1.00
C616   C     0.75016   0.25000   0.92638   0.00000  Uiso   1.00
C617   C     0.74999   0.02718   0.83334   0.00000  Uiso   1.00
C618   C     0.74999   0.47312   0.83333   0.00000  Uiso   1.00
C619   C     0.74994   0.25001   0.68854   0.00000  Uiso   1.00
C620   C     0.75006   0.25001   0.97813   0.00000  Uiso   1.00
C621   C     0.54501   0.28603   0.81562   0.00000  Uiso   1.00
C622   C     0.95107   0.20765   0.81402   0.00000  Uiso   1.00
C623   C     0.95502   0.28587   0.85111   0.00000  Uiso   1.00
C624   C     0.83505   0.24996   0.83260   0.00000  Uiso   1.00
C625   C     0.54881   0.20746   0.85190   0.00000  Uiso   1.00
C626   C     0.59052   0.28853   0.81716   0.00000  Uiso   1.00
C627   C     0.90524   0.20922   0.81223   0.00000  Uiso   1.00
C628   C     0.90952   0.28837   0.84972   0.00000  Uiso   1.00
C629   C     0.59464   0.20902   0.85384   0.00000  Uiso   1.00
C630   C     0.61642   0.24937   0.83521   0.00000  Uiso   1.00
C631   C     0.88356   0.24939   0.83134   0.00000  Uiso   1.00
C632   C     0.52398   0.24586   0.83286   0.00000  Uiso   1.00
C633   C     0.97597   0.24587   0.83339   0.00000  Uiso   1.00
C634   C     0.81739   0.12631   0.89482   0.00000  Uiso   1.00
C635   C     0.78172   0.10373   0.86137   0.00000  Uiso   1.00
C636   C     0.70711   0.37371   0.74947   0.00000  Uiso   1.00
C637   C     0.68278   0.12624   0.77158   0.00000  Uiso   1.00
C638   C     0.79281   0.37376   0.91724   0.00000  Uiso   1.00
C639   C     0.73012   0.39652   0.79420   0.00000  Uiso   1.00
C640   C     0.71830   0.10371   0.80527   0.00000  Uiso   1.00
C641   C     0.76986   0.39654   0.87248   0.00000  Uiso   1.00
C642   C     0.78265   0.05339   0.86001   0.00000  Uiso   1.00
C643   C     0.73121   0.44692   0.79356   0.00000  Uiso   1.00
C644   C     0.71735   0.05337   0.80665   0.00000  Uiso   1.00
Cl645  Cl    0.61177   0.34259   0.79639   0.00000  Uiso   1.00
Cl646  Cl    0.87720   0.16134   0.78181   0.00000  Uiso   1.00
Cl647  Cl    0.88836   0.34215   0.87124   0.00000  Uiso   1.00
Cl648  Cl    0.62254   0.16085   0.88389   0.00000  Uiso   1.00
Cu649  Cu    0.75000   0.29821   0.83333   0.00000  Uiso   1.00
Cu650  Cu    0.75000   0.20178   0.83333   0.00000  Uiso   1.00
H651   H     0.52576   0.31598   0.80097   0.00000  Uiso   1.00
H652   H     0.82020   0.10718   0.93071   0.00000  Uiso   1.00
H653   H     0.84936   0.12326   0.87791   0.00000  Uiso   1.00
H654   H     0.68970   0.34098   0.75883   0.00000  Uiso   1.00
H655   H     0.68140   0.39766   0.73212   0.00000  Uiso   1.00
H656   H     0.73113   0.36661   0.72150   0.00000  Uiso   1.00
H657   H     0.68813   0.16366   0.76266   0.00000  Uiso   1.00
H658   H     0.68051   0.10739   0.73553   0.00000  Uiso   1.00
H659   H     0.65063   0.12270   0.78802   0.00000  Uiso   1.00
H660   H     0.81020   0.34103   0.90790   0.00000  Uiso   1.00
H661   H     0.81853   0.39772   0.93459   0.00000  Uiso   1.00
H662   H     0.96730   0.17719   0.79880   0.00000  Uiso   1.00
H663   H     0.76877   0.36668   0.94518   0.00000  Uiso   1.00
H664   H     0.97433   0.31568   0.86604   0.00000  Uiso   1.00
H665   H     0.53251   0.17686   0.86678   0.00000  Uiso   1.00
H666   H     0.80930   0.03488   0.88036   0.00000  Uiso   1.00
H667   H     0.71746   0.46557   0.76120   0.00000  Uiso   1.00
H668   H     0.69071   0.03486   0.78626   0.00000  Uiso   1.00
H669   H     0.78250   0.46561   0.90548   0.00000  Uiso   1.00
H670   H     0.81180   0.16359   0.90416   0.00000  Uiso   1.00
N671   N     0.75000   0.12934   0.83333   0.00000  Uiso   1.00
N672   N     0.75000   0.37065   0.83333   0.00000  Uiso   1.00
O673   O     0.68573   0.29071   0.83334   0.00000  Uiso   1.00
O674   O     0.81427   0.20928   0.83333   0.00000  Uiso   1.00
O675   O     0.81427   0.29071   0.83333   0.00000  Uiso   1.00
O676   O     0.68573   0.20928   0.83334   0.00000  Uiso   1.00
O677   O     0.75000   0.29071   0.76280   0.00000  Uiso   1.00
O678   O     0.75000   0.20929   0.90387   0.00000  Uiso   1.00
O679   O     0.75000   0.29071   0.90387   0.00000  Uiso   1.00
O680   O     0.75000   0.20929   0.76280   0.00000  Uiso   1.00
C681   C     0.16495   0.74995   0.83406   0.00000  Uiso   1.00
C682   C     0.26876   0.94694   0.87311   0.00000  Uiso   1.00
C683   C     0.24984   0.75000   0.74029   0.00000  Uiso   1.00
C684   C     0.25016   0.75000   0.92638   0.00000  Uiso   1.00
C685   C     0.24999   0.52718   0.83334   0.00000  Uiso   1.00
C686   C     0.24999   0.97312   0.83333   0.00000  Uiso   1.00
C687   C     0.24994   0.75001   0.68854   0.00000  Uiso   1.00
C688   C     0.25006   0.75001   0.97813   0.00000  Uiso   1.00
C689   C     0.04501   0.78603   0.81562   0.00000  Uiso   1.00
C690   C     0.45107   0.70765   0.81402   0.00000  Uiso   1.00
C691   C     0.45502   0.78587   0.85111   0.00000  Uiso   1.00
C692   C     0.33505   0.74996   0.83260   0.00000  Uiso   1.00
C693   C     0.04881   0.70746   0.85190   0.00000  Uiso   1.00
C694   C     0.09052   0.78853   0.81716   0.00000  Uiso   1.00
C695   C     0.40524   0.70922   0.81223   0.00000  Uiso   1.00
C696   C     0.40952   0.78837   0.84972   0.00000  Uiso   1.00
C697   C     0.09464   0.70902   0.85384   0.00000  Uiso   1.00
C698   C     0.11642   0.74937   0.83521   0.00000  Uiso   1.00
C699   C     0.38356   0.74939   0.83134   0.00000  Uiso   1.00
C700   C     0.02398   0.74586   0.83286   0.00000  Uiso   1.00
C701   C     0.47597   0.74587   0.83339   0.00000  Uiso   1.00
C702   C     0.31739   0.62631   0.89482   0.00000  Uiso   1.00
C703   C     0.28172   0.60373   0.86137   0.00000  Uiso   1.00
C704   C     0.20711   0.87371   0.74947   0.00000  Uiso   1.00
C705   C     0.18278   0.62624   0.77158   0.00000  Uiso   1.00
C706   C     0.29281   0.87376   0.91724   0.00000  Uiso   1.00
C707   C     0.23012   0.89652   0.79420   0.00000  Uiso   1.00
C708   C     0.21830   0.60371   0.80527   0.00000  Uiso   1.00
C709   C     0.26986   0.89654   0.87248   0.00000  Uiso   1.00
C710   C     0.28265   0.55339   0.86001   0.00000  Uiso   1.00
C711   C     0.23121   0.94692   0.79356   0.00000  Uiso   1.00
C712   C     0.21735   0.55337   0.80665   0.00000  Uiso   1.00
Cl713  Cl    0.11177   0.84259   0.79639   0.00000  Uiso   1.00
Cl714  Cl    0.37720   0.66134   0.78181   0.00000  Uiso   1.00
Cl715  Cl    0.38836   0.84215   0.87124   0.00000  Uiso   1.00
Cl716  Cl    0.12254   0.66085   0.88389   0.00000  Uiso   1.00
Cu717  Cu    0.25000   0.79821   0.83333   0.00000  Uiso   1.00
Cu718  Cu    0.25000   0.70178   0.83333   0.00000  Uiso   1.00
H719   H     0.02576   0.81598   0.80097   0.00000  Uiso   1.00
H720   H     0.32020   0.60718   0.93071   0.00000  Uiso   1.00
H721   H     0.34936   0.62326   0.87791   0.00000  Uiso   1.00
H722   H     0.18970   0.84098   0.75883   0.00000  Uiso   1.00
H723   H     0.18140   0.89766   0.73212   0.00000  Uiso   1.00
H724   H     0.23113   0.86661   0.72150   0.00000  Uiso   1.00
H725   H     0.18813   0.66366   0.76266   0.00000  Uiso   1.00
H726   H     0.18051   0.60739   0.73553   0.00000  Uiso   1.00
H727   H     0.15063   0.62270   0.78802   0.00000  Uiso   1.00
H728   H     0.31020   0.84103   0.90790   0.00000  Uiso   1.00
H729   H     0.31853   0.89772   0.93459   0.00000  Uiso   1.00
H730   H     0.46730   0.67719   0.79880   0.00000  Uiso   1.00
H731   H     0.26877   0.86668   0.94518   0.00000  Uiso   1.00
H732   H     0.47433   0.81568   0.86604   0.00000  Uiso   1.00
H733   H     0.03251   0.67686   0.86678   0.00000  Uiso   1.00
H734   H     0.30930   0.53488   0.88036   0.00000  Uiso   1.00
H735   H     0.21746   0.96557   0.76120   0.00000  Uiso   1.00
H736   H     0.19071   0.53486   0.78626   0.00000  Uiso   1.00
H737   H     0.28250   0.96561   0.90548   0.00000  Uiso   1.00
H738   H     0.31180   0.66359   0.90416   0.00000  Uiso   1.00
N739   N     0.25000   0.62934   0.83333   0.00000  Uiso   1.00
N740   N     0.25000   0.87065   0.83333   0.00000  Uiso   1.00
O741   O     0.18573   0.79071   0.83334   0.00000  Uiso   1.00
O742   O     0.31427   0.70928   0.83333   0.00000  Uiso   1.00
O743   O     0.31427   0.79071   0.83333   0.00000  Uiso   1.00
O744   O     0.18573   0.70928   0.83334   0.00000  Uiso   1.00
O745   O     0.25000   0.79071   0.76280   0.00000  Uiso   1.00
O746   O     0.25000   0.70929   0.90387   0.00000  Uiso   1.00
O747   O     0.25000   0.79071   0.90387   0.00000  Uiso   1.00
O748   O     0.25000   0.70929   0.76280   0.00000  Uiso   1.00
C749   C     0.66495   0.74995   0.83406   0.00000  Uiso   1.00
C750   C     0.76876   0.94694   0.87311   0.00000  Uiso   1.00
C751   C     0.74984   0.75000   0.74029   0.00000  Uiso   1.00
C752   C     0.75016   0.75000   0.92638   0.00000  Uiso   1.00
C753   C     0.74999   0.52718   0.83334   0.00000  Uiso   1.00
C754   C     0.74999   0.97312   0.83333   0.00000  Uiso   1.00
C755   C     0.74994   0.75001   0.68854   0.00000  Uiso   1.00
C756   C     0.75006   0.75001   0.97813   0.00000  Uiso   1.00
C757   C     0.54501   0.78603   0.81562   0.00000  Uiso   1.00
C758   C     0.95107   0.70765   0.81402   0.00000  Uiso   1.00
C759   C     0.95502   0.78587   0.85111   0.00000  Uiso   1.00
C760   C     0.83505   0.74996   0.83260   0.00000  Uiso   1.00
C761   C     0.54881   0.70746   0.85190   0.00000  Uiso   1.00
C762   C     0.59052   0.78853   0.81716   0.00000  Uiso   1.00
C763   C     0.90524   0.70922   0.81223   0.00000  Uiso   1.00
C764   C     0.90952   0.78837   0.84972   0.00000  Uiso   1.00
C765   C     0.59464   0.70902   0.85384   0.00000  Uiso   1.00
C766   C     0.61642   0.74937   0.83521   0.00000  Uiso   1.00
C767   C     0.88356   0.74939   0.83134   0.00000  Uiso   1.00
C768   C     0.52398   0.74586   0.83286   0.00000  Uiso   1.00
C769   C     0.97597   0.74587   0.83339   0.00000  Uiso   1.00
C770   C     0.81739   0.62631   0.89482   0.00000  Uiso   1.00
C771   C     0.78172   0.60373   0.86137   0.00000  Uiso   1.00
C772   C     0.70711   0.87371   0.74947   0.00000  Uiso   1.00
C773   C     0.68278   0.62624   0.77158   0.00000  Uiso   1.00
C774   C     0.79281   0.87376   0.91724   0.00000  Uiso   1.00
C775   C     0.73012   0.89652   0.79420   0.00000  Uiso   1.00
C776   C     0.71830   0.60371   0.80527   0.00000  Uiso   1.00
C777   C     0.76986   0.89654   0.87248   0.00000  Uiso   1.00
C778   C     0.78265   0.55339   0.86001   0.00000  Uiso   1.00
C779   C     0.73121   0.94692   0.79356   0.00000  Uiso   1.00
C780   C     0.71735   0.55337   0.80665   0.00000  Uiso   1.00
Cl781  Cl    0.61177   0.84259   0.79639   0.00000  Uiso   1.00
Cl782  Cl    0.87720   0.66134   0.78181   0.00000  Uiso   1.00
Cl783  Cl    0.88836   0.84215   0.87124   0.00000  Uiso   1.00
Cl784  Cl    0.62254   0.66085   0.88389   0.00000  Uiso   1.00
Cu785  Cu    0.75000   0.79821   0.83333   0.00000  Uiso   1.00
Cu786  Cu    0.75000   0.70178   0.83333   0.00000  Uiso   1.00
H787   H     0.52576   0.81598   0.80097   0.00000  Uiso   1.00
H788   H     0.82020   0.60718   0.93071   0.00000  Uiso   1.00
H789   H     0.84936   0.62326   0.87791   0.00000  Uiso   1.00
H790   H     0.68970   0.84098   0.75883   0.00000  Uiso   1.00
H791   H     0.68140   0.89766   0.73212   0.00000  Uiso   1.00
H792   H     0.73113   0.86661   0.72150   0.00000  Uiso   1.00
H793   H     0.68813   0.66366   0.76266   0.00000  Uiso   1.00
H794   H     0.68051   0.60739   0.73553   0.00000  Uiso   1.00
H795   H     0.65063   0.62270   0.78802   0.00000  Uiso   1.00
H796   H     0.81020   0.84103   0.90790   0.00000  Uiso   1.00
H797   H     0.81853   0.89772   0.93459   0.00000  Uiso   1.00
H798   H     0.96730   0.67719   0.79880   0.00000  Uiso   1.00
H799   H     0.76877   0.86668   0.94518   0.00000  Uiso   1.00
H800   H     0.97433   0.81568   0.86604   0.00000  Uiso   1.00
H801   H     0.53251   0.67686   0.86678   0.00000  Uiso   1.00
H802   H     0.80930   0.53488   0.88036   0.00000  Uiso   1.00
H803   H     0.71746   0.96557   0.76120   0.00000  Uiso   1.00
H804   H     0.69071   0.53486   0.78626   0.00000  Uiso   1.00
H805   H     0.78250   0.96561   0.90548   0.00000  Uiso   1.00
H806   H     0.81180   0.66359   0.90416   0.00000  Uiso   1.00
N807   N     0.75000   0.62934   0.83333   0.00000  Uiso   1.00
N808   N     0.75000   0.87065   0.83333   0.00000  Uiso   1.00
O809   O     0.68573   0.79071   0.83334   0.00000  Uiso   1.00
O810   O     0.81427   0.70928   0.83333   0.00000  Uiso   1.00
O811   O     0.81427   0.79071   0.83333   0.00000  Uiso   1.00
O812   O     0.68573   0.70928   0.83334   0.00000  Uiso   1.00
O813   O     0.75000   0.79071   0.76280   0.00000  Uiso   1.00
O814   O     0.75000   0.70929   0.90387   0.00000  Uiso   1.00
O815   O     0.75000   0.79071   0.90387   0.00000  Uiso   1.00
O816   O     0.75000   0.70929   0.76280   0.00000  Uiso   1.00
loop_
_geom_bond_atom_site_label_1
_geom_bond_atom_site_label_2
_geom_bond_distance
_geom_bond_site_symmetry_2
_ccdc_geom_bond_type
C1     C18     1.482   .     S
C1     O64     1.305   .     A
C1     O61     1.307   .     A
C2     H57     1.082   .     S
C2     C6      1.396   .     A
C2     C29     1.414   .     A
C3     O68     1.295   .     A
C3     O65     1.295   .     A
C3     C7      1.407   .     S
C4     O67     1.295   .     A
C4     C8      1.407   .     S
C4     O66     1.295   .     A
C5     C32     1.398   .     A
C5     C30     1.398   .     A
C5     C142    1.516   1_545 S
C6     C31     1.396   .     A
C6     C141    1.516   .     S
C7     C552    1.189   1_554 S
C8     C279    1.189   .     S
C9     C14     1.387   .     A
C9     C20     1.393   .     A
C9     H39     1.084   .     S
C10    C15     1.395   .     A
C10    C21     1.395   .     A
C10    H50     1.084   .     S
C11    C16     1.386   .     A
C11    H52     1.084   .     S
C11    C21     1.393   .     A
C12    C19     1.482   .     S
C12    O62     1.305   .     A
C12    O63     1.307   .     A
C13    H53     1.084   .     S
C13    C17     1.395   .     A
C13    C20     1.395   .     A
C14    C18     1.419   .     A
C14    Cl33    1.757   .     S
C15    Cl34    1.765   .     S
C15    C19     1.423   .     A
C16    Cl35    1.757   .     S
C16    C19     1.419   .     A
C17    Cl36    1.765   .     S
C17    C18     1.423   .     A
C20    C89     1.464   1_455 S
C21    C88     1.464   .     S
C22    H58     1.092   .     S
C22    H41     1.110   .     S
C22    H40     1.111   .     S
C22    C23     1.507   .     S
C23    N59     1.389   .     A
C23    C30     1.412   .     A
C24    C27     1.503   .     S
C24    H42     1.099   .     S
C24    H43     1.112   .     S
C24    H44     1.110   .     S
C25    H46     1.111   .     S
C25    C28     1.507   .     S
C25    H45     1.092   .     S
C25    H47     1.110   .     S
C26    H48     1.099   .     S
C26    H51     1.110   .     S
C26    H49     1.112   .     S
C26    C29     1.503   .     S
C27    C31     1.414   .     A
C27    N60     1.391   .     A
C28    C32     1.412   .     A
C28    N59     1.389   .     A
C29    N60     1.391   .     A
C30    H54     1.083   .     S
C31    H55     1.082   .     S
C32    H56     1.083   .     S
Cu37   O61     1.970   .     S
Cu37   Cu38    2.704   .     S
Cu37   O67     1.929   .     S
Cu37   O63     1.970   .     S
Cu37   N60     2.031   .     S
Cu37   O65     1.929   .     S
Cu38   O68     1.929   .     S
Cu38   N59     2.031   .     S
Cu38   O64     1.970   .     S
Cu38   O66     1.929   .     S
Cu38   O62     1.970   .     S
C69    C86     1.482   .     S
C69    O132    1.305   .     A
C69    O129    1.307   .     A
C70    H125    1.082   .     S
C70    C74     1.396   .     A
C70    C97     1.414   .     A
C71    O136    1.295   .     A
C71    O133    1.295   .     A
C71    C75     1.407   .     S
C72    O135    1.295   .     A
C72    C76     1.407   .     S
C72    O134    1.295   .     A
C73    C100    1.398   .     A
C73    C98     1.398   .     A
C73    C210    1.516   1_545 S
C74    C99     1.396   .     A
C74    C209    1.516   .     S
C75    C620    1.189   1_554 S
C76    C347    1.189   .     S
C77    C82     1.387   .     A
C77    C88     1.393   .     A
C77    H107    1.084   .     S
C78    C83     1.395   .     A
C78    C89     1.395   .     A
C78    H118    1.084   .     S
C79    C84     1.386   .     A
C79    H120    1.084   .     S
C79    C89     1.393   .     A
C80    C87     1.482   .     S
C80    O130    1.305   .     A
C80    O131    1.307   .     A
C81    H121    1.084   .     S
C81    C85     1.395   .     A
C81    C88     1.395   .     A
C82    C86     1.419   .     A
C82    Cl101   1.757   .     S
C83    Cl102   1.765   .     S
C83    C87     1.423   .     A
C84    Cl103   1.757   .     S
C84    C87     1.419   .     A
C85    Cl104   1.765   .     S
C85    C86     1.423   .     A
C89    C20     1.464   1_655 S
C90    H126    1.092   .     S
C90    H109    1.110   .     S
C90    H108    1.111   .     S
C90    C91     1.507   .     S
C91    N127    1.389   .     A
C91    C98     1.412   .     A
C92    C95     1.503   .     S
C92    H110    1.099   .     S
C92    H111    1.112   .     S
C92    H112    1.110   .     S
C93    H114    1.111   .     S
C93    C96     1.507   .     S
C93    H113    1.092   .     S
C93    H115    1.110   .     S
C94    H116    1.099   .     S
C94    H119    1.110   .     S
C94    H117    1.112   .     S
C94    C97     1.503   .     S
C95    C99     1.414   .     A
C95    N128    1.391   .     A
C96    C100    1.412   .     A
C96    N127    1.389   .     A
C97    N128    1.391   .     A
C98    H122    1.083   .     S
C99    H123    1.082   .     S
C100   H124    1.083   .     S
Cu105  O129    1.970   .     S
Cu105  Cu106   2.704   .     S
Cu105  O135    1.929   .     S
Cu105  O131    1.970   .     S
Cu105  N128    2.031   .     S
Cu105  O133    1.929   .     S
Cu106  O136    1.929   .     S
Cu106  N127    2.031   .     S
Cu106  O132    1.970   .     S
Cu106  O134    1.929   .     S
Cu106  O130    1.970   .     S
C137   C154    1.482   .     S
C137   O200    1.305   .     A
C137   O197    1.307   .     A
C138   H193    1.082   .     S
C138   C142    1.396   .     A
C138   C165    1.414   .     A
C139   O204    1.295   .     A
C139   O201    1.295   .     A
C139   C143    1.407   .     S
C140   O203    1.295   .     A
C140   C144    1.407   .     S
C140   O202    1.295   .     A
C141   C168    1.398   .     A
C141   C166    1.398   .     A
C142   C167    1.396   .     A
C142   C5      1.516   1_565 S
C143   C688    1.189   1_554 S
C144   C415    1.189   .     S
C145   C150    1.387   .     A
C145   C156    1.393   .     A
C145   H175    1.084   .     S
C146   C151    1.395   .     A
C146   C157    1.395   .     A
C146   H186    1.084   .     S
C147   C152    1.386   .     A
C147   H188    1.084   .     S
C147   C157    1.393   .     A
C148   C155    1.482   .     S
C148   O198    1.305   .     A
C148   O199    1.307   .     A
C149   H189    1.084   .     S
C149   C153    1.395   .     A
C149   C156    1.395   .     A
C150   C154    1.419   .     A
C150   Cl169   1.757   .     S
C151   Cl170   1.765   .     S
C151   C155    1.423   .     A
C152   Cl171   1.757   .     S
C152   C155    1.419   .     A
C153   Cl172   1.765   .     S
C153   C154    1.423   .     A
C156   C225    1.464   1_455 S
C157   C224    1.464   .     S
C158   H194    1.092   .     S
C158   H177    1.110   .     S
C158   H176    1.111   .     S
C158   C159    1.507   .     S
C159   N195    1.389   .     A
C159   C166    1.412   .     A
C160   C163    1.503   .     S
C160   H178    1.099   .     S
C160   H179    1.112   .     S
C160   H180    1.110   .     S
C161   H182    1.111   .     S
C161   C164    1.507   .     S
C161   H181    1.092   .     S
C161   H183    1.110   .     S
C162   H184    1.099   .     S
C162   H187    1.110   .     S
C162   H185    1.112   .     S
C162   C165    1.503   .     S
C163   C167    1.414   .     A
C163   N196    1.391   .     A
C164   C168    1.412   .     A
C164   N195    1.389   .     A
C165   N196    1.391   .     A
C166   H190    1.083   .     S
C167   H191    1.082   .     S
C168   H192    1.083   .     S
Cu173  O197    1.970   .     S
Cu173  Cu174   2.704   .     S
Cu173  O203    1.929   .     S
Cu173  O199    1.970   .     S
Cu173  N196    2.031   .     S
Cu173  O201    1.929   .     S
Cu174  O204    1.929   .     S
Cu174  N195    2.031   .     S
Cu174  O200    1.970   .     S
Cu174  O202    1.929   .     S
Cu174  O198    1.970   .     S
C205   C222    1.482   .     S
C205   O268    1.305   .     A
C205   O265    1.307   .     A
C206   H261    1.082   .     S
C206   C210    1.396   .     A
C206   C233    1.414   .     A
C207   O272    1.295   .     A
C207   O269    1.295   .     A
C207   C211    1.407   .     S
C208   O271    1.295   .     A
C208   C212    1.407   .     S
C208   O270    1.295   .     A
C209   C236    1.398   .     A
C209   C234    1.398   .     A
C210   C235    1.396   .     A
C210   C73     1.516   1_565 S
C211   C756    1.189   1_554 S
C212   C483    1.189   .     S
C213   C218    1.387   .     A
C213   C224    1.393   .     A
C213   H243    1.084   .     S
C214   C219    1.395   .     A
C214   C225    1.395   .     A
C214   H254    1.084   .     S
C215   C220    1.386   .     A
C215   H256    1.084   .     S
C215   C225    1.393   .     A
C216   C223    1.482   .     S
C216   O266    1.305   .     A
C216   O267    1.307   .     A
C217   H257    1.084   .     S
C217   C221    1.395   .     A
C217   C224    1.395   .     A
C218   C222    1.419   .     A
C218   Cl237   1.757   .     S
C219   Cl238   1.765   .     S
C219   C223    1.423   .     A
C220   Cl239   1.757   .     S
C220   C223    1.419   .     A
C221   Cl240   1.765   .     S
C221   C222    1.423   .     A
C225   C156    1.464   1_655 S
C226   H262    1.092   .     S
C226   H245    1.110   .     S
C226   H244    1.111   .     S
C226   C227    1.507   .     S
C227   N263    1.389   .     A
C227   C234    1.412   .     A
C228   C231    1.503   .     S
C228   H246    1.099   .     S
C228   H247    1.112   .     S
C228   H248    1.110   .     S
C229   H250    1.111   .     S
C229   C232    1.507   .     S
C229   H249    1.092   .     S
C229   H251    1.110   .     S
C230   H252    1.099   .     S
C230   H255    1.110   .     S
C230   H253    1.112   .     S
C230   C233    1.503   .     S
C231   C235    1.414   .     A
C231   N264    1.391   .     A
C232   C236    1.412   .     A
C232   N263    1.389   .     A
C233   N264    1.391   .     A
C234   H258    1.083   .     S
C235   H259    1.082   .     S
C236   H260    1.083   .     S
Cu241  O265    1.970   .     S
Cu241  Cu242   2.704   .     S
Cu241  O271    1.929   .     S
Cu241  O267    1.970   .     S
Cu241  N264    2.031   .     S
Cu241  O269    1.929   .     S
Cu242  O272    1.929   .     S
Cu242  N263    2.031   .     S
Cu242  O268    1.970   .     S
Cu242  O270    1.929   .     S
Cu242  O266    1.970   .     S
C273   C290    1.482   .     S
C273   O336    1.305   .     A
C273   O333    1.307   .     A
C274   H329    1.082   .     S
C274   C278    1.396   .     A
C274   C301    1.414   .     A
C275   O340    1.295   .     A
C275   O337    1.295   .     A
C275   C279    1.407   .     S
C276   O339    1.295   .     A
C276   C280    1.407   .     S
C276   O338    1.295   .     A
C277   C304    1.398   .     A
C277   C302    1.398   .     A
C277   C414    1.516   1_545 S
C278   C303    1.396   .     A
C278   C413    1.516   .     S
C280   C551    1.189   .     S
C281   C286    1.387   .     A
C281   C292    1.393   .     A
C281   H311    1.084   .     S
C282   C287    1.395   .     A
C282   C293    1.395   .     A
C282   H322    1.084   .     S
C283   C288    1.386   .     A
C283   H324    1.084   .     S
C283   C293    1.393   .     A
C284   C291    1.482   .     S
C284   O334    1.305   .     A
C284   O335    1.307   .     A
C285   H325    1.084   .     S
C285   C289    1.395   .     A
C285   C292    1.395   .     A
C286   C290    1.419   .     A
C286   Cl305   1.757   .     S
C287   Cl306   1.765   .     S
C287   C291    1.423   .     A
C288   Cl307   1.757   .     S
C288   C291    1.419   .     A
C289   Cl308   1.765   .     S
C289   C290    1.423   .     A
C292   C361    1.464   1_455 S
C293   C360    1.464   .     S
C294   H330    1.092   .     S
C294   H313    1.110   .     S
C294   H312    1.111   .     S
C294   C295    1.507   .     S
C295   N331    1.389   .     A
C295   C302    1.412   .     A
C296   C299    1.503   .     S
C296   H314    1.099   .     S
C296   H315    1.112   .     S
C296   H316    1.110   .     S
C297   H318    1.111   .     S
C297   C300    1.507   .     S
C297   H317    1.092   .     S
C297   H319    1.110   .     S
C298   H320    1.099   .     S
C298   H323    1.110   .     S
C298   H321    1.112   .     S
C298   C301    1.503   .     S
C299   C303    1.414   .     A
C299   N332    1.391   .     A
C300   C304    1.412   .     A
C300   N331    1.389   .     A
C301   N332    1.391   .     A
C302   H326    1.083   .     S
C303   H327    1.082   .     S
C304   H328    1.083   .     S
Cu309  O333    1.970   .     S
Cu309  Cu310   2.704   .     S
Cu309  O339    1.929   .     S
Cu309  O335    1.970   .     S
Cu309  N332    2.031   .     S
Cu309  O337    1.929   .     S
Cu310  O340    1.929   .     S
Cu310  N331    2.031   .     S
Cu310  O336    1.970   .     S
Cu310  O338    1.929   .     S
Cu310  O334    1.970   .     S
C341   C358    1.482   .     S
C341   O404    1.305   .     A
C341   O401    1.307   .     A
C342   H397    1.082   .     S
C342   C346    1.396   .     A
C342   C369    1.414   .     A
C343   O408    1.295   .     A
C343   O405    1.295   .     A
C343   C347    1.407   .     S
C344   O407    1.295   .     A
C344   C348    1.407   .     S
C344   O406    1.295   .     A
C345   C372    1.398   .     A
C345   C370    1.398   .     A
C345   C482    1.516   1_545 S
C346   C371    1.396   .     A
C346   C481    1.516   .     S
C348   C619    1.189   .     S
C349   C354    1.387   .     A
C349   C360    1.393   .     A
C349   H379    1.084   .     S
C350   C355    1.395   .     A
C350   C361    1.395   .     A
C350   H390    1.084   .     S
C351   C356    1.386   .     A
C351   H392    1.084   .     S
C351   C361    1.393   .     A
C352   C359    1.482   .     S
C352   O402    1.305   .     A
C352   O403    1.307   .     A
C353   H393    1.084   .     S
C353   C357    1.395   .     A
C353   C360    1.395   .     A
C354   C358    1.419   .     A
C354   Cl373   1.757   .     S
C355   Cl374   1.765   .     S
C355   C359    1.423   .     A
C356   Cl375   1.757   .     S
C356   C359    1.419   .     A
C357   Cl376   1.765   .     S
C357   C358    1.423   .     A
C361   C292    1.464   1_655 S
C362   H398    1.092   .     S
C362   H381    1.110   .     S
C362   H380    1.111   .     S
C362   C363    1.507   .     S
C363   N399    1.389   .     A
C363   C370    1.412   .     A
C364   C367    1.503   .     S
C364   H382    1.099   .     S
C364   H383    1.112   .     S
C364   H384    1.110   .     S
C365   H386    1.111   .     S
C365   C368    1.507   .     S
C365   H385    1.092   .     S
C365   H387    1.110   .     S
C366   H388    1.099   .     S
C366   H391    1.110   .     S
C366   H389    1.112   .     S
C366   C369    1.503   .     S
C367   C371    1.414   .     A
C367   N400    1.391   .     A
C368   C372    1.412   .     A
C368   N399    1.389   .     A
C369   N400    1.391   .     A
C370   H394    1.083   .     S
C371   H395    1.082   .     S
C372   H396    1.083   .     S
Cu377  O401    1.970   .     S
Cu377  Cu378   2.704   .     S
Cu377  O407    1.929   .     S
Cu377  O403    1.970   .     S
Cu377  N400    2.031   .     S
Cu377  O405    1.929   .     S
Cu378  O408    1.929   .     S
Cu378  N399    2.031   .     S
Cu378  O404    1.970   .     S
Cu378  O406    1.929   .     S
Cu378  O402    1.970   .     S
C409   C426    1.482   .     S
C409   O472    1.305   .     A
C409   O469    1.307   .     A
C410   H465    1.082   .     S
C410   C414    1.396   .     A
C410   C437    1.414   .     A
C411   O476    1.295   .     A
C411   O473    1.295   .     A
C411   C415    1.407   .     S
C412   O475    1.295   .     A
C412   C416    1.407   .     S
C412   O474    1.295   .     A
C413   C440    1.398   .     A
C413   C438    1.398   .     A
C414   C439    1.396   .     A
C414   C277    1.516   1_565 S
C416   C687    1.189   .     S
C417   C422    1.387   .     A
C417   C428    1.393   .     A
C417   H447    1.084   .     S
C418   C423    1.395   .     A
C418   C429    1.395   .     A
C418   H458    1.084   .     S
C419   C424    1.386   .     A
C419   H460    1.084   .     S
C419   C429    1.393   .     A
C420   C427    1.482   .     S
C420   O470    1.305   .     A
C420   O471    1.307   .     A
C421   H461    1.084   .     S
C421   C425    1.395   .     A
C421   C428    1.395   .     A
C422   C426    1.419   .     A
C422   Cl441   1.757   .     S
C423   Cl442   1.765   .     S
C423   C427    1.423   .     A
C424   Cl443   1.757   .     S
C424   C427    1.419   .     A
C425   Cl444   1.765   .     S
C425   C426    1.423   .     A
C428   C497    1.464   1_455 S
C429   C496    1.464   .     S
C430   H466    1.092   .     S
C430   H449    1.110   .     S
C430   H448    1.111   .     S
C430   C431    1.507   .     S
C431   N467    1.389   .     A
C431   C438    1.412   .     A
C432   C435    1.503   .     S
C432   H450    1.099   .     S
C432   H451    1.112   .     S
C432   H452    1.110   .     S
C433   H454    1.111   .     S
C433   C436    1.507   .     S
C433   H453    1.092   .     S
C433   H455    1.110   .     S
C434   H456    1.099   .     S
C434   H459    1.110   .     S
C434   H457    1.112   .     S
C434   C437    1.503   .     S
C435   C439    1.414   .     A
C435   N468    1.391   .     A
C436   C440    1.412   .     A
C436   N467    1.389   .     A
C437   N468    1.391   .     A
C438   H462    1.083   .     S
C439   H463    1.082   .     S
C440   H464    1.083   .     S
Cu445  O469    1.970   .     S
Cu445  Cu446   2.704   .     S
Cu445  O475    1.929   .     S
Cu445  O471    1.970   .     S
Cu445  N468    2.031   .     S
Cu445  O473    1.929   .     S
Cu446  O476    1.929   .     S
Cu446  N467    2.031   .     S
Cu446  O472    1.970   .     S
Cu446  O474    1.929   .     S
Cu446  O470    1.970   .     S
C477   C494    1.482   .     S
C477   O540    1.305   .     A
C477   O537    1.307   .     A
C478   H533    1.082   .     S
C478   C482    1.396   .     A
C478   C505    1.414   .     A
C479   O544    1.295   .     A
C479   O541    1.295   .     A
C479   C483    1.407   .     S
C480   O543    1.295   .     A
C480   C484    1.407   .     S
C480   O542    1.295   .     A
C481   C508    1.398   .     A
C481   C506    1.398   .     A
C482   C507    1.396   .     A
C482   C345    1.516   1_565 S
C484   C755    1.189   .     S
C485   C490    1.387   .     A
C485   C496    1.393   .     A
C485   H515    1.084   .     S
C486   C491    1.395   .     A
C486   C497    1.395   .     A
C486   H526    1.084   .     S
C487   C492    1.386   .     A
C487   H528    1.084   .     S
C487   C497    1.393   .     A
C488   C495    1.482   .     S
C488   O538    1.305   .     A
C488   O539    1.307   .     A
C489   H529    1.084   .     S
C489   C493    1.395   .     A
C489   C496    1.395   .     A
C490   C494    1.419   .     A
C490   Cl509   1.757   .     S
C491   Cl510   1.765   .     S
C491   C495    1.423   .     A
C492   Cl511   1.757   .     S
C492   C495    1.419   .     A
C493   Cl512   1.765   .     S
C493   C494    1.423   .     A
C497   C428    1.464   1_655 S
C498   H534    1.092   .     S
C498   H517    1.110   .     S
C498   H516    1.111   .     S
C498   C499    1.507   .     S
C499   N535    1.389   .     A
C499   C506    1.412   .     A
C500   C503    1.503   .     S
C500   H518    1.099   .     S
C500   H519    1.112   .     S
C500   H520    1.110   .     S
C501   H522    1.111   .     S
C501   C504    1.507   .     S
C501   H521    1.092   .     S
C501   H523    1.110   .     S
C502   H524    1.099   .     S
C502   H527    1.110   .     S
C502   H525    1.112   .     S
C502   C505    1.503   .     S
C503   C507    1.414   .     A
C503   N536    1.391   .     A
C504   C508    1.412   .     A
C504   N535    1.389   .     A
C505   N536    1.391   .     A
C506   H530    1.083   .     S
C507   H531    1.082   .     S
C508   H532    1.083   .     S
Cu513  O537    1.970   .     S
Cu513  Cu514   2.704   .     S
Cu513  O543    1.929   .     S
Cu513  O539    1.970   .     S
Cu513  N536    2.031   .     S
Cu513  O541    1.929   .     S
Cu514  O544    1.929   .     S
Cu514  N535    2.031   .     S
Cu514  O540    1.970   .     S
Cu514  O542    1.929   .     S
Cu514  O538    1.970   .     S
C545   C562    1.482   .     S
C545   O608    1.305   .     A
C545   O605    1.307   .     A
C546   H601    1.082   .     S
C546   C550    1.396   .     A
C546   C573    1.414   .     A
C547   O612    1.295   .     A
C547   O609    1.295   .     A
C547   C551    1.407   .     S
C548   O611    1.295   .     A
C548   C552    1.407   .     S
C548   O610    1.295   .     A
C549   C576    1.398   .     A
C549   C574    1.398   .     A
C549   C686    1.516   1_545 S
C550   C575    1.396   .     A
C550   C685    1.516   .     S
C552   C7      1.189   1_556 S
C553   C558    1.387   .     A
C553   C564    1.393   .     A
C553   H583    1.084   .     S
C554   C559    1.395   .     A
C554   C565    1.395   .     A
C554   H594    1.084   .     S
C555   C560    1.386   .     A
C555   H596    1.084   .     S
C555   C565    1.393   .     A
C556   C563    1.482   .     S
C556   O606    1.305   .     A
C556   O607    1.307   .     A
C557   H597    1.084   .     S
C557   C561    1.395   .     A
C557   C564    1.395   .     A
C558   C562    1.419   .     A
C558   Cl577   1.757   .     S
C559   Cl578   1.765   .     S
C559   C563    1.423   .     A
C560   Cl579   1.757   .     S
C560   C563    1.419   .     A
C561   Cl580   1.765   .     S
C561   C562    1.423   .     A
C564   C633    1.464   1_455 S
C565   C632    1.464   .     S
C566   H602    1.092   .     S
C566   H585    1.110   .     S
C566   H584    1.111   .     S
C566   C567    1.507   .     S
C567   N603    1.389   .     A
C567   C574    1.412   .     A
C568   C571    1.503   .     S
C568   H586    1.099   .     S
C568   H587    1.112   .     S
C568   H588    1.110   .     S
C569   H590    1.111   .     S
C569   C572    1.507   .     S
C569   H589    1.092   .     S
C569   H591    1.110   .     S
C570   H592    1.099   .     S
C570   H595    1.110   .     S
C570   H593    1.112   .     S
C570   C573    1.503   .     S
C571   C575    1.414   .     A
C571   N604    1.391   .     A
C572   C576    1.412   .     A
C572   N603    1.389   .     A
C573   N604    1.391   .     A
C574   H598    1.083   .     S
C575   H599    1.082   .     S
C576   H600    1.083   .     S
Cu581  O605    1.970   .     S
Cu581  Cu582   2.704   .     S
Cu581  O611    1.929   .     S
Cu581  O607    1.970   .     S
Cu581  N604    2.031   .     S
Cu581  O609    1.929   .     S
Cu582  O612    1.929   .     S
Cu582  N603    2.031   .     S
Cu582  O608    1.970   .     S
Cu582  O610    1.929   .     S
Cu582  O606    1.970   .     S
C613   C630    1.482   .     S
C613   O676    1.305   .     A
C613   O673    1.307   .     A
C614   H669    1.082   .     S
C614   C618    1.396   .     A
C614   C641    1.414   .     A
C615   O680    1.295   .     A
C615   O677    1.295   .     A
C615   C619    1.407   .     S
C616   O679    1.295   .     A
C616   C620    1.407   .     S
C616   O678    1.295   .     A
C617   C644    1.398   .     A
C617   C642    1.398   .     A
C617   C754    1.516   1_545 S
C618   C643    1.396   .     A
C618   C753    1.516   .     S
C620   C75     1.189   1_556 S
C621   C626    1.387   .     A
C621   C632    1.393   .     A
C621   H651    1.084   .     S
C622   C627    1.395   .     A
C622   C633    1.395   .     A
C622   H662    1.084   .     S
C623   C628    1.386   .     A
C623   H664    1.084   .     S
C623   C633    1.393   .     A
C624   C631    1.482   .     S
C624   O674    1.305   .     A
C624   O675    1.307   .     A
C625   H665    1.084   .     S
C625   C629    1.395   .     A
C625   C632    1.395   .     A
C626   C630    1.419   .     A
C626   Cl645   1.757   .     S
C627   Cl646   1.765   .     S
C627   C631    1.423   .     A
C628   Cl647   1.757   .     S
C628   C631    1.419   .     A
C629   Cl648   1.765   .     S
C629   C630    1.423   .     A
C633   C564    1.464   1_655 S
C634   H670    1.092   .     S
C634   H653    1.110   .     S
C634   H652    1.111   .     S
C634   C635    1.507   .     S
C635   N671    1.389   .     A
C635   C642    1.412   .     A
C636   C639    1.503   .     S
C636   H654    1.099   .     S
C636   H655    1.112   .     S
C636   H656    1.110   .     S
C637   H658    1.111   .     S
C637   C640    1.507   .     S
C637   H657    1.092   .     S
C637   H659    1.110   .     S
C638   H660    1.099   .     S
C638   H663    1.110   .     S
C638   H661    1.112   .     S
C638   C641    1.503   .     S
C639   C643    1.414   .     A
C639   N672    1.391   .     A
C640   C644    1.412   .     A
C640   N671    1.389   .     A
C641   N672    1.391   .     A
C642   H666    1.083   .     S
C643   H667    1.082   .     S
C644   H668    1.083   .     S
Cu649  O673    1.970   .     S
Cu649  Cu650   2.704   .     S
Cu649  O679    1.929   .     S
Cu649  O675    1.970   .     S
Cu649  N672    2.031   .     S
Cu649  O677    1.929   .     S
Cu650  O680    1.929   .     S
Cu650  N671    2.031   .     S
Cu650  O676    1.970   .     S
Cu650  O678    1.929   .     S
Cu650  O674    1.970   .     S
C681   C698    1.482   .     S
C681   O744    1.305   .     A
C681   O741    1.307   .     A
C682   H737    1.082   .     S
C682   C686    1.396   .     A
C682   C709    1.414   .     A
C683   O748    1.295   .     A
C683   O745    1.295   .     A
C683   C687    1.407   .     S
C684   O747    1.295   .     A
C684   C688    1.407   .     S
C684   O746    1.295   .     A
C685   C712    1.398   .     A
C685   C710    1.398   .     A
C686   C711    1.396   .     A
C686   C549    1.516   1_565 S
C688   C143    1.189   1_556 S
C689   C694    1.387   .     A
C689   C700    1.393   .     A
C689   H719    1.084   .     S
C690   C695    1.395   .     A
C690   C701    1.395   .     A
C690   H730    1.084   .     S
C691   C696    1.386   .     A
C691   H732    1.084   .     S
C691   C701    1.393   .     A
C692   C699    1.482   .     S
C692   O742    1.305   .     A
C692   O743    1.307   .     A
C693   H733    1.084   .     S
C693   C697    1.395   .     A
C693   C700    1.395   .     A
C694   C698    1.419   .     A
C694   Cl713   1.757   .     S
C695   Cl714   1.765   .     S
C695   C699    1.423   .     A
C696   Cl715   1.757   .     S
C696   C699    1.419   .     A
C697   Cl716   1.765   .     S
C697   C698    1.423   .     A
C700   C769    1.464   1_455 S
C701   C768    1.464   .     S
C702   H738    1.092   .     S
C702   H721    1.110   .     S
C702   H720    1.111   .     S
C702   C703    1.507   .     S
C703   N739    1.389   .     A
C703   C710    1.412   .     A
C704   C707    1.503   .     S
C704   H722    1.099   .     S
C704   H723    1.112   .     S
C704   H724    1.110   .     S
C705   H726    1.111   .     S
C705   C708    1.507   .     S
C705   H725    1.092   .     S
C705   H727    1.110   .     S
C706   H728    1.099   .     S
C706   H731    1.110   .     S
C706   H729    1.112   .     S
C706   C709    1.503   .     S
C707   C711    1.414   .     A
C707   N740    1.391   .     A
C708   C712    1.412   .     A
C708   N739    1.389   .     A
C709   N740    1.391   .     A
C710   H734    1.083   .     S
C711   H735    1.082   .     S
C712   H736    1.083   .     S
Cu717  O741    1.970   .     S
Cu717  Cu718   2.704   .     S
Cu717  O747    1.929   .     S
Cu717  O743    1.970   .     S
Cu717  N740    2.031   .     S
Cu717  O745    1.929   .     S
Cu718  O748    1.929   .     S
Cu718  N739    2.031   .     S
Cu718  O744    1.970   .     S
Cu718  O746    1.929   .     S
Cu718  O742    1.970   .     S
C749   C766    1.482   .     S
C749   O812    1.305   .     A
C749   O809    1.307   .     A
C750   H805    1.082   .     S
C750   C754    1.396   .     A
C750   C777    1.414   .     A
C751   O816    1.295   .     A
C751   O813    1.295   .     A
C751   C755    1.407   .     S
C752   O815    1.295   .     A
C752   C756    1.407   .     S
C752   O814    1.295   .     A
C753   C780    1.398   .     A
C753   C778    1.398   .     A
C754   C779    1.396   .     A
C754   C617    1.516   1_565 S
C756   C211    1.189   1_556 S
C757   C762    1.387   .     A
C757   C768    1.393   .     A
C757   H787    1.084   .     S
C758   C763    1.395   .     A
C758   C769    1.395   .     A
C758   H798    1.084   .     S
C759   C764    1.386   .     A
C759   H800    1.084   .     S
C759   C769    1.393   .     A
C760   C767    1.482   .     S
C760   O810    1.305   .     A
C760   O811    1.307   .     A
C761   H801    1.084   .     S
C761   C765    1.395   .     A
C761   C768    1.395   .     A
C762   C766    1.419   .     A
C762   Cl781   1.757   .     S
C763   Cl782   1.765   .     S
C763   C767    1.423   .     A
C764   Cl783   1.757   .     S
C764   C767    1.419   .     A
C765   Cl784   1.765   .     S
C765   C766    1.423   .     A
C769   C700    1.464   1_655 S
C770   H806    1.092   .     S
C770   H789    1.110   .     S
C770   H788    1.111   .     S
C770   C771    1.507   .     S
C771   N807    1.389   .     A
C771   C778    1.412   .     A
C772   C775    1.503   .     S
C772   H790    1.099   .     S
C772   H791    1.112   .     S
C772   H792    1.110   .     S
C773   H794    1.111   .     S
C773   C776    1.507   .     S
C773   H793    1.092   .     S
C773   H795    1.110   .     S
C774   H796    1.099   .     S
C774   H799    1.110   .     S
C774   H797    1.112   .     S
C774   C777    1.503   .     S
C775   C779    1.414   .     A
C775   N808    1.391   .     A
C776   C780    1.412   .     A
C776   N807    1.389   .     A
C777   N808    1.391   .     A
C778   H802    1.083   .     S
C779   H803    1.082   .     S
C780   H804    1.083   .     S
Cu785  O809    1.970   .     S
Cu785  Cu786   2.704   .     S
Cu785  O815    1.929   .     S
Cu785  O811    1.970   .     S
Cu785  N808    2.031   .     S
Cu785  O813    1.929   .     S
Cu786  O816    1.929   .     S
Cu786  N807    2.031   .     S
Cu786  O812    1.970   .     S
Cu786  O814    1.929   .     S
Cu786  O810    1.970   .     S
