data_str_m3_o1_o18_pcu_sym.23
_audit_creation_date              2020-01-03
_audit_creation_method            'Materials Studio'
_symmetry_space_group_name_H-M    'P1'
_symmetry_Int_Tables_number       1
_symmetry_cell_setting            triclinic
loop_
_symmetry_equiv_pos_as_xyz
  x,y,z
_cell_length_a                    29.5789
_cell_length_b                    32.1065
_cell_length_c                    31.0664
_cell_angle_alpha                 90.1043
_cell_angle_beta                  68.3486
_cell_angle_gamma                 90.0555
loop_
_atom_site_label
_atom_site_type_symbol
_atom_site_fract_x
_atom_site_fract_y
_atom_site_fract_z
_atom_site_U_iso_or_equiv
_atom_site_adp_type
_atom_site_occupancy
C1     C     0.16666   0.24668   0.25008   0.00000  Uiso   1.00
C2     C     0.13241   0.31195   0.23718   0.00000  Uiso   1.00
C3     C     0.16647   0.04251   0.25034   0.00000  Uiso   1.00
C4     C     0.16658   0.29084   0.25026   0.00000  Uiso   1.00
C5     C     0.31168   0.13048   0.24404   0.00000  Uiso   1.00
C6     C     0.02157   0.20282   0.25616   0.00000  Uiso   1.00
C7     C     0.02608   0.13046   0.24433   0.00000  Uiso   1.00
C8     C     0.30703   0.20280   0.25622   0.00000  Uiso   1.00
C9     C     0.13649   0.16644   0.33775   0.00000  Uiso   1.00
C10    C     0.19682   0.16470   0.16211   0.00000  Uiso   1.00
C11    C     0.11850   0.17062   0.38777   0.00000  Uiso   1.00
C12    C     0.16659   0.08666   0.25011   0.00000  Uiso   1.00
C13    C     0.21528   0.16191   0.11152   0.00000  Uiso   1.00
C14    C     0.06601   0.20634   0.45654   0.00000  Uiso   1.00
C15    C     0.28163   0.16596   0.03695   0.00000  Uiso   1.00
C16    C     0.07734   0.19508   0.41050   0.00000  Uiso   1.00
C17    C     0.26522   0.16594   0.08523   0.00000  Uiso   1.00
C18    C     0.14794   0.15659   0.41131   0.00000  Uiso   1.00
C19    C     0.18236   0.15694   0.08876   0.00000  Uiso   1.00
C20    C     0.14214   0.17511   0.45401   0.00000  Uiso   1.00
C21    C     0.19772   0.16836   0.04213   0.00000  Uiso   1.00
C22    C     0.09803   0.19627   0.47870   0.00000  Uiso   1.00
C23    C     0.11899   0.19683   0.04664   0.00000  Uiso   1.00
C24    C     0.24794   0.16783   0.01501   0.00000  Uiso   1.00
C25    C     0.17833   0.17314   0.47335   0.00000  Uiso   1.00
C26    C     0.16430   0.17838   0.02134   0.00000  Uiso   1.00
C27    C     0.22842   0.17021   0.44605   0.00000  Uiso   1.00
C28    C     0.08699   0.20728   0.02495   0.00000  Uiso   1.00
C29    C     0.26306   0.16918   0.46675   0.00000  Uiso   1.00
C30    C     0.20058   0.31207   0.26355   0.00000  Uiso   1.00
C31    C     0.13235   0.02128   0.23724   0.00000  Uiso   1.00
C32    C     0.20052   0.02143   0.26361   0.00000  Uiso   1.00
H33    H     0.05332   0.22316   0.04453   0.00000  Uiso   1.00
H34    H     0.10610   0.03753   0.22662   0.00000  Uiso   1.00
H35    H     0.22667   0.03781   0.27432   0.00000  Uiso   1.00
H36    H     0.10620   0.29559   0.22653   0.00000  Uiso   1.00
H37    H     0.29570   0.10147   0.23907   0.00000  Uiso   1.00
H38    H     0.03755   0.23183   0.26116   0.00000  Uiso   1.00
H39    H     0.04584   0.10144   0.23943   0.00000  Uiso   1.00
H40    H     0.28719   0.23178   0.26130   0.00000  Uiso   1.00
H41    H     0.05287   0.13627   0.14141   0.00000  Uiso   1.00
H42    H     0.25037   0.09027   0.34235   0.00000  Uiso   1.00
H43    H     0.30137   0.16866   0.44514   0.00000  Uiso   1.00
H44    H     0.29154   0.16793   0.10185   0.00000  Uiso   1.00
H45    H     0.05455   0.20605   0.39245   0.00000  Uiso   1.00
H46    H     0.03346   0.22442   0.47411   0.00000  Uiso   1.00
H47    H     0.32026   0.16584   0.01707   0.00000  Uiso   1.00
H48    H     0.10980   0.20602   0.08234   0.00000  Uiso   1.00
H49    H     0.24113   0.17181   0.40876   0.00000  Uiso   1.00
H50    H     0.22678   0.29580   0.27421   0.00000  Uiso   1.00
N51    N     0.04759   0.16668   0.25001   0.00000  Uiso   1.00
N52    N     0.28574   0.16666   0.24999   0.00000  Uiso   1.00
O53    O     0.12846   0.22775   0.25001   0.00000  Uiso   1.00
O54    O     0.13902   0.09155   0.14320   0.00000  Uiso   1.00
O55    O     0.08102   0.15208   0.14292   0.00000  Uiso   1.00
O56    O     0.18580   0.08704   0.43413   0.00000  Uiso   1.00
O57    O     0.15399   0.08104   0.37206   0.00000  Uiso   1.00
O58    O     0.23680   0.11816   0.35359   0.00000  Uiso   1.00
O59    O     0.20488   0.10558   0.25000   0.00000  Uiso   1.00
O60    O     0.20490   0.22774   0.25000   0.00000  Uiso   1.00
O61    O     0.12843   0.10559   0.25000   0.00000  Uiso   1.00
O62    O     0.10661   0.16667   0.31612   0.00000  Uiso   1.00
O63    O     0.22672   0.16666   0.18388   0.00000  Uiso   1.00
O64    O     0.18305   0.16666   0.31612   0.00000  Uiso   1.00
O65    O     0.15028   0.16667   0.18388   0.00000  Uiso   1.00
O66    O     0.12073   0.10192   0.07348   0.00000  Uiso   1.00
S67    S     0.13022   0.12381   0.11217   0.00000  Uiso   1.00
S68    S     0.18101   0.10895   0.39329   0.00000  Uiso   1.00
Zn69   Zn    0.11562   0.16667   0.25000   0.00000  Uiso   1.00
Zn70   Zn    0.21771   0.16666   0.25000   0.00000  Uiso   1.00
C71    C     0.50000   0.24668   0.25008   0.00000  Uiso   1.00
C72    C     0.46574   0.31195   0.23718   0.00000  Uiso   1.00
C73    C     0.49980   0.04251   0.25034   0.00000  Uiso   1.00
C74    C     0.49991   0.29084   0.25026   0.00000  Uiso   1.00
C75    C     0.64502   0.13048   0.24404   0.00000  Uiso   1.00
C76    C     0.35490   0.20282   0.25616   0.00000  Uiso   1.00
C77    C     0.35942   0.13046   0.24433   0.00000  Uiso   1.00
C78    C     0.64036   0.20280   0.25622   0.00000  Uiso   1.00
C79    C     0.46983   0.16644   0.33775   0.00000  Uiso   1.00
C80    C     0.53016   0.16470   0.16211   0.00000  Uiso   1.00
C81    C     0.45184   0.17062   0.38777   0.00000  Uiso   1.00
C82    C     0.49992   0.08666   0.25011   0.00000  Uiso   1.00
C83    C     0.54861   0.16191   0.11152   0.00000  Uiso   1.00
C84    C     0.39934   0.20634   0.45654   0.00000  Uiso   1.00
C85    C     0.61496   0.16596   0.03695   0.00000  Uiso   1.00
C86    C     0.41068   0.19508   0.41050   0.00000  Uiso   1.00
C87    C     0.59856   0.16594   0.08523   0.00000  Uiso   1.00
C88    C     0.48127   0.15659   0.41131   0.00000  Uiso   1.00
C89    C     0.51570   0.15694   0.08876   0.00000  Uiso   1.00
C90    C     0.47547   0.17511   0.45401   0.00000  Uiso   1.00
C91    C     0.53105   0.16836   0.04213   0.00000  Uiso   1.00
C92    C     0.43136   0.19627   0.47870   0.00000  Uiso   1.00
C93    C     0.45232   0.19683   0.04664   0.00000  Uiso   1.00
C94    C     0.58127   0.16783   0.01501   0.00000  Uiso   1.00
C95    C     0.51167   0.17314   0.47335   0.00000  Uiso   1.00
C96    C     0.49764   0.17838   0.02134   0.00000  Uiso   1.00
C97    C     0.56175   0.17021   0.44605   0.00000  Uiso   1.00
C98    C     0.42032   0.20728   0.02495   0.00000  Uiso   1.00
C99    C     0.59640   0.16918   0.46675   0.00000  Uiso   1.00
C100   C     0.53391   0.31207   0.26355   0.00000  Uiso   1.00
C101   C     0.46568   0.02128   0.23724   0.00000  Uiso   1.00
C102   C     0.53385   0.02143   0.26361   0.00000  Uiso   1.00
H103   H     0.38665   0.22316   0.04453   0.00000  Uiso   1.00
H104   H     0.43944   0.03753   0.22662   0.00000  Uiso   1.00
H105   H     0.56001   0.03781   0.27432   0.00000  Uiso   1.00
H106   H     0.43953   0.29559   0.22653   0.00000  Uiso   1.00
H107   H     0.62903   0.10147   0.23907   0.00000  Uiso   1.00
H108   H     0.37088   0.23183   0.26116   0.00000  Uiso   1.00
H109   H     0.37918   0.10144   0.23943   0.00000  Uiso   1.00
H110   H     0.62053   0.23178   0.26130   0.00000  Uiso   1.00
H111   H     0.38620   0.13627   0.14141   0.00000  Uiso   1.00
H112   H     0.58371   0.09027   0.34235   0.00000  Uiso   1.00
H113   H     0.63471   0.16866   0.44514   0.00000  Uiso   1.00
H114   H     0.62488   0.16793   0.10185   0.00000  Uiso   1.00
H115   H     0.38788   0.20605   0.39245   0.00000  Uiso   1.00
H116   H     0.36679   0.22442   0.47411   0.00000  Uiso   1.00
H117   H     0.65359   0.16584   0.01707   0.00000  Uiso   1.00
H118   H     0.44313   0.20602   0.08234   0.00000  Uiso   1.00
H119   H     0.57446   0.17181   0.40876   0.00000  Uiso   1.00
H120   H     0.56012   0.29580   0.27421   0.00000  Uiso   1.00
N121   N     0.38093   0.16668   0.25001   0.00000  Uiso   1.00
N122   N     0.61907   0.16666   0.24999   0.00000  Uiso   1.00
O123   O     0.46179   0.22775   0.25001   0.00000  Uiso   1.00
O124   O     0.47236   0.09155   0.14320   0.00000  Uiso   1.00
O125   O     0.41435   0.15208   0.14292   0.00000  Uiso   1.00
O126   O     0.51914   0.08704   0.43413   0.00000  Uiso   1.00
O127   O     0.48732   0.08104   0.37206   0.00000  Uiso   1.00
O128   O     0.57013   0.11816   0.35359   0.00000  Uiso   1.00
O129   O     0.53821   0.10558   0.25000   0.00000  Uiso   1.00
O130   O     0.53823   0.22774   0.25000   0.00000  Uiso   1.00
O131   O     0.46177   0.10559   0.25000   0.00000  Uiso   1.00
O132   O     0.43994   0.16667   0.31612   0.00000  Uiso   1.00
O133   O     0.56006   0.16666   0.18388   0.00000  Uiso   1.00
O134   O     0.51639   0.16666   0.31612   0.00000  Uiso   1.00
O135   O     0.48361   0.16667   0.18388   0.00000  Uiso   1.00
O136   O     0.45406   0.10192   0.07348   0.00000  Uiso   1.00
S137   S     0.46355   0.12381   0.11217   0.00000  Uiso   1.00
S138   S     0.51434   0.10895   0.39329   0.00000  Uiso   1.00
Zn139  Zn    0.44896   0.16667   0.25000   0.00000  Uiso   1.00
Zn140  Zn    0.55104   0.16666   0.25000   0.00000  Uiso   1.00
C141   C     0.83333   0.24668   0.25008   0.00000  Uiso   1.00
C142   C     0.79907   0.31195   0.23718   0.00000  Uiso   1.00
C143   C     0.83314   0.04251   0.25034   0.00000  Uiso   1.00
C144   C     0.83324   0.29084   0.25026   0.00000  Uiso   1.00
C145   C     0.97835   0.13048   0.24404   0.00000  Uiso   1.00
C146   C     0.68824   0.20282   0.25616   0.00000  Uiso   1.00
C147   C     0.69275   0.13046   0.24433   0.00000  Uiso   1.00
C148   C     0.97370   0.20280   0.25622   0.00000  Uiso   1.00
C149   C     0.80316   0.16644   0.33775   0.00000  Uiso   1.00
C150   C     0.86349   0.16470   0.16211   0.00000  Uiso   1.00
C151   C     0.78517   0.17062   0.38777   0.00000  Uiso   1.00
C152   C     0.83326   0.08666   0.25011   0.00000  Uiso   1.00
C153   C     0.88195   0.16191   0.11152   0.00000  Uiso   1.00
C154   C     0.73268   0.20634   0.45654   0.00000  Uiso   1.00
C155   C     0.94829   0.16596   0.03695   0.00000  Uiso   1.00
C156   C     0.74401   0.19508   0.41050   0.00000  Uiso   1.00
C157   C     0.93189   0.16594   0.08523   0.00000  Uiso   1.00
C158   C     0.81461   0.15659   0.41131   0.00000  Uiso   1.00
C159   C     0.84903   0.15694   0.08876   0.00000  Uiso   1.00
C160   C     0.80881   0.17511   0.45401   0.00000  Uiso   1.00
C161   C     0.86438   0.16836   0.04213   0.00000  Uiso   1.00
C162   C     0.76469   0.19627   0.47870   0.00000  Uiso   1.00
C163   C     0.78566   0.19683   0.04664   0.00000  Uiso   1.00
C164   C     0.91460   0.16783   0.01501   0.00000  Uiso   1.00
C165   C     0.84500   0.17314   0.47335   0.00000  Uiso   1.00
C166   C     0.83097   0.17838   0.02134   0.00000  Uiso   1.00
C167   C     0.89509   0.17021   0.44605   0.00000  Uiso   1.00
C168   C     0.75366   0.20728   0.02495   0.00000  Uiso   1.00
C169   C     0.92973   0.16918   0.46675   0.00000  Uiso   1.00
C170   C     0.86725   0.31207   0.26355   0.00000  Uiso   1.00
C171   C     0.79901   0.02128   0.23724   0.00000  Uiso   1.00
C172   C     0.86718   0.02143   0.26361   0.00000  Uiso   1.00
H173   H     0.71998   0.22316   0.04453   0.00000  Uiso   1.00
H174   H     0.77277   0.03753   0.22662   0.00000  Uiso   1.00
H175   H     0.89334   0.03781   0.27432   0.00000  Uiso   1.00
H176   H     0.77286   0.29559   0.22653   0.00000  Uiso   1.00
H177   H     0.96236   0.10147   0.23907   0.00000  Uiso   1.00
H178   H     0.70421   0.23183   0.26116   0.00000  Uiso   1.00
H179   H     0.71251   0.10144   0.23943   0.00000  Uiso   1.00
H180   H     0.95386   0.23178   0.26130   0.00000  Uiso   1.00
H181   H     0.71954   0.13627   0.14141   0.00000  Uiso   1.00
H182   H     0.91704   0.09027   0.34235   0.00000  Uiso   1.00
H183   H     0.96804   0.16866   0.44514   0.00000  Uiso   1.00
H184   H     0.95821   0.16793   0.10185   0.00000  Uiso   1.00
H185   H     0.72121   0.20605   0.39245   0.00000  Uiso   1.00
H186   H     0.70012   0.22442   0.47411   0.00000  Uiso   1.00
H187   H     0.98693   0.16584   0.01707   0.00000  Uiso   1.00
H188   H     0.77646   0.20602   0.08234   0.00000  Uiso   1.00
H189   H     0.90780   0.17181   0.40876   0.00000  Uiso   1.00
H190   H     0.89345   0.29580   0.27421   0.00000  Uiso   1.00
N191   N     0.71426   0.16668   0.25001   0.00000  Uiso   1.00
N192   N     0.95241   0.16666   0.24999   0.00000  Uiso   1.00
O193   O     0.79512   0.22775   0.25001   0.00000  Uiso   1.00
O194   O     0.80569   0.09155   0.14320   0.00000  Uiso   1.00
O195   O     0.74768   0.15208   0.14292   0.00000  Uiso   1.00
O196   O     0.85247   0.08704   0.43413   0.00000  Uiso   1.00
O197   O     0.82066   0.08104   0.37206   0.00000  Uiso   1.00
O198   O     0.90346   0.11816   0.35359   0.00000  Uiso   1.00
O199   O     0.87154   0.10558   0.25000   0.00000  Uiso   1.00
O200   O     0.87157   0.22774   0.25000   0.00000  Uiso   1.00
O201   O     0.79510   0.10559   0.25000   0.00000  Uiso   1.00
O202   O     0.77328   0.16667   0.31612   0.00000  Uiso   1.00
O203   O     0.89339   0.16666   0.18388   0.00000  Uiso   1.00
O204   O     0.84972   0.16666   0.31612   0.00000  Uiso   1.00
O205   O     0.81695   0.16667   0.18388   0.00000  Uiso   1.00
O206   O     0.78739   0.10192   0.07348   0.00000  Uiso   1.00
S207   S     0.79689   0.12381   0.11217   0.00000  Uiso   1.00
S208   S     0.84768   0.10895   0.39329   0.00000  Uiso   1.00
Zn209  Zn    0.78229   0.16667   0.25000   0.00000  Uiso   1.00
Zn210  Zn    0.88438   0.16666   0.25000   0.00000  Uiso   1.00
C211   C     0.16666   0.58002   0.25008   0.00000  Uiso   1.00
C212   C     0.13241   0.64528   0.23718   0.00000  Uiso   1.00
C213   C     0.16647   0.37585   0.25034   0.00000  Uiso   1.00
C214   C     0.16658   0.62418   0.25026   0.00000  Uiso   1.00
C215   C     0.31168   0.46382   0.24404   0.00000  Uiso   1.00
C216   C     0.02157   0.53615   0.25616   0.00000  Uiso   1.00
C217   C     0.02608   0.46379   0.24433   0.00000  Uiso   1.00
C218   C     0.30703   0.53613   0.25622   0.00000  Uiso   1.00
C219   C     0.13649   0.49977   0.33775   0.00000  Uiso   1.00
C220   C     0.19682   0.49803   0.16211   0.00000  Uiso   1.00
C221   C     0.11850   0.50395   0.38777   0.00000  Uiso   1.00
C222   C     0.16659   0.41999   0.25011   0.00000  Uiso   1.00
C223   C     0.21528   0.49524   0.11152   0.00000  Uiso   1.00
C224   C     0.06601   0.53967   0.45654   0.00000  Uiso   1.00
C225   C     0.28163   0.49929   0.03695   0.00000  Uiso   1.00
C226   C     0.07734   0.52841   0.41050   0.00000  Uiso   1.00
C227   C     0.26522   0.49928   0.08523   0.00000  Uiso   1.00
C228   C     0.14794   0.48992   0.41131   0.00000  Uiso   1.00
C229   C     0.18236   0.49028   0.08876   0.00000  Uiso   1.00
C230   C     0.14214   0.50844   0.45401   0.00000  Uiso   1.00
C231   C     0.19772   0.50169   0.04213   0.00000  Uiso   1.00
C232   C     0.09803   0.52960   0.47870   0.00000  Uiso   1.00
C233   C     0.11899   0.53017   0.04664   0.00000  Uiso   1.00
C234   C     0.24794   0.50117   0.01501   0.00000  Uiso   1.00
C235   C     0.17833   0.50647   0.47335   0.00000  Uiso   1.00
C236   C     0.16430   0.51171   0.02134   0.00000  Uiso   1.00
C237   C     0.22842   0.50355   0.44605   0.00000  Uiso   1.00
C238   C     0.08699   0.54061   0.02495   0.00000  Uiso   1.00
C239   C     0.26306   0.50252   0.46675   0.00000  Uiso   1.00
C240   C     0.20058   0.64541   0.26355   0.00000  Uiso   1.00
C241   C     0.13235   0.35461   0.23724   0.00000  Uiso   1.00
C242   C     0.20052   0.35476   0.26361   0.00000  Uiso   1.00
H243   H     0.05332   0.55649   0.04453   0.00000  Uiso   1.00
H244   H     0.10610   0.37086   0.22662   0.00000  Uiso   1.00
H245   H     0.22667   0.37115   0.27432   0.00000  Uiso   1.00
H246   H     0.10620   0.62892   0.22653   0.00000  Uiso   1.00
H247   H     0.29570   0.43480   0.23907   0.00000  Uiso   1.00
H248   H     0.03755   0.56516   0.26116   0.00000  Uiso   1.00
H249   H     0.04584   0.43478   0.23943   0.00000  Uiso   1.00
H250   H     0.28719   0.56512   0.26130   0.00000  Uiso   1.00
H251   H     0.05287   0.46960   0.14141   0.00000  Uiso   1.00
H252   H     0.25037   0.42361   0.34235   0.00000  Uiso   1.00
H253   H     0.30137   0.50199   0.44514   0.00000  Uiso   1.00
H254   H     0.29154   0.50127   0.10185   0.00000  Uiso   1.00
H255   H     0.05455   0.53938   0.39245   0.00000  Uiso   1.00
H256   H     0.03346   0.55775   0.47411   0.00000  Uiso   1.00
H257   H     0.32026   0.49917   0.01707   0.00000  Uiso   1.00
H258   H     0.10980   0.53935   0.08234   0.00000  Uiso   1.00
H259   H     0.24113   0.50514   0.40876   0.00000  Uiso   1.00
H260   H     0.22678   0.62914   0.27421   0.00000  Uiso   1.00
N261   N     0.04759   0.50001   0.25001   0.00000  Uiso   1.00
N262   N     0.28574   0.49999   0.24999   0.00000  Uiso   1.00
O263   O     0.12846   0.56108   0.25001   0.00000  Uiso   1.00
O264   O     0.13902   0.42488   0.14320   0.00000  Uiso   1.00
O265   O     0.08102   0.48542   0.14292   0.00000  Uiso   1.00
O266   O     0.18580   0.42038   0.43413   0.00000  Uiso   1.00
O267   O     0.15399   0.41437   0.37206   0.00000  Uiso   1.00
O268   O     0.23680   0.45149   0.35359   0.00000  Uiso   1.00
O269   O     0.20488   0.43892   0.25000   0.00000  Uiso   1.00
O270   O     0.20490   0.56107   0.25000   0.00000  Uiso   1.00
O271   O     0.12843   0.43893   0.25000   0.00000  Uiso   1.00
O272   O     0.10661   0.50001   0.31612   0.00000  Uiso   1.00
O273   O     0.22672   0.49999   0.18388   0.00000  Uiso   1.00
O274   O     0.18305   0.50000   0.31612   0.00000  Uiso   1.00
O275   O     0.15028   0.50000   0.18388   0.00000  Uiso   1.00
O276   O     0.12073   0.43525   0.07348   0.00000  Uiso   1.00
S277   S     0.13022   0.45715   0.11217   0.00000  Uiso   1.00
S278   S     0.18101   0.44228   0.39329   0.00000  Uiso   1.00
Zn279  Zn    0.11562   0.50001   0.25000   0.00000  Uiso   1.00
Zn280  Zn    0.21771   0.49999   0.25000   0.00000  Uiso   1.00
C281   C     0.50000   0.58002   0.25008   0.00000  Uiso   1.00
C282   C     0.46574   0.64528   0.23718   0.00000  Uiso   1.00
C283   C     0.49980   0.37585   0.25034   0.00000  Uiso   1.00
C284   C     0.49991   0.62418   0.25026   0.00000  Uiso   1.00
C285   C     0.64502   0.46382   0.24404   0.00000  Uiso   1.00
C286   C     0.35490   0.53615   0.25616   0.00000  Uiso   1.00
C287   C     0.35942   0.46379   0.24433   0.00000  Uiso   1.00
C288   C     0.64036   0.53613   0.25622   0.00000  Uiso   1.00
C289   C     0.46983   0.49977   0.33775   0.00000  Uiso   1.00
C290   C     0.53016   0.49803   0.16211   0.00000  Uiso   1.00
C291   C     0.45184   0.50395   0.38777   0.00000  Uiso   1.00
C292   C     0.49992   0.41999   0.25011   0.00000  Uiso   1.00
C293   C     0.54861   0.49524   0.11152   0.00000  Uiso   1.00
C294   C     0.39934   0.53967   0.45654   0.00000  Uiso   1.00
C295   C     0.61496   0.49929   0.03695   0.00000  Uiso   1.00
C296   C     0.41068   0.52841   0.41050   0.00000  Uiso   1.00
C297   C     0.59856   0.49928   0.08523   0.00000  Uiso   1.00
C298   C     0.48127   0.48992   0.41131   0.00000  Uiso   1.00
C299   C     0.51570   0.49028   0.08876   0.00000  Uiso   1.00
C300   C     0.47547   0.50844   0.45401   0.00000  Uiso   1.00
C301   C     0.53105   0.50169   0.04213   0.00000  Uiso   1.00
C302   C     0.43136   0.52960   0.47870   0.00000  Uiso   1.00
C303   C     0.45232   0.53017   0.04664   0.00000  Uiso   1.00
C304   C     0.58127   0.50117   0.01501   0.00000  Uiso   1.00
C305   C     0.51167   0.50647   0.47335   0.00000  Uiso   1.00
C306   C     0.49764   0.51171   0.02134   0.00000  Uiso   1.00
C307   C     0.56175   0.50355   0.44605   0.00000  Uiso   1.00
C308   C     0.42032   0.54061   0.02495   0.00000  Uiso   1.00
C309   C     0.59640   0.50252   0.46675   0.00000  Uiso   1.00
C310   C     0.53391   0.64541   0.26355   0.00000  Uiso   1.00
C311   C     0.46568   0.35461   0.23724   0.00000  Uiso   1.00
C312   C     0.53385   0.35476   0.26361   0.00000  Uiso   1.00
H313   H     0.38665   0.55649   0.04453   0.00000  Uiso   1.00
H314   H     0.43944   0.37086   0.22662   0.00000  Uiso   1.00
H315   H     0.56001   0.37115   0.27432   0.00000  Uiso   1.00
H316   H     0.43953   0.62892   0.22653   0.00000  Uiso   1.00
H317   H     0.62903   0.43480   0.23907   0.00000  Uiso   1.00
H318   H     0.37088   0.56516   0.26116   0.00000  Uiso   1.00
H319   H     0.37918   0.43478   0.23943   0.00000  Uiso   1.00
H320   H     0.62053   0.56512   0.26130   0.00000  Uiso   1.00
H321   H     0.38620   0.46960   0.14141   0.00000  Uiso   1.00
H322   H     0.58371   0.42361   0.34235   0.00000  Uiso   1.00
H323   H     0.63471   0.50199   0.44514   0.00000  Uiso   1.00
H324   H     0.62488   0.50127   0.10185   0.00000  Uiso   1.00
H325   H     0.38788   0.53938   0.39245   0.00000  Uiso   1.00
H326   H     0.36679   0.55775   0.47411   0.00000  Uiso   1.00
H327   H     0.65359   0.49917   0.01707   0.00000  Uiso   1.00
H328   H     0.44313   0.53935   0.08234   0.00000  Uiso   1.00
H329   H     0.57446   0.50514   0.40876   0.00000  Uiso   1.00
H330   H     0.56012   0.62914   0.27421   0.00000  Uiso   1.00
N331   N     0.38093   0.50001   0.25001   0.00000  Uiso   1.00
N332   N     0.61907   0.49999   0.24999   0.00000  Uiso   1.00
O333   O     0.46179   0.56108   0.25001   0.00000  Uiso   1.00
O334   O     0.47236   0.42488   0.14320   0.00000  Uiso   1.00
O335   O     0.41435   0.48542   0.14292   0.00000  Uiso   1.00
O336   O     0.51914   0.42038   0.43413   0.00000  Uiso   1.00
O337   O     0.48732   0.41437   0.37206   0.00000  Uiso   1.00
O338   O     0.57013   0.45149   0.35359   0.00000  Uiso   1.00
O339   O     0.53821   0.43892   0.25000   0.00000  Uiso   1.00
O340   O     0.53823   0.56107   0.25000   0.00000  Uiso   1.00
O341   O     0.46177   0.43893   0.25000   0.00000  Uiso   1.00
O342   O     0.43994   0.50001   0.31612   0.00000  Uiso   1.00
O343   O     0.56006   0.49999   0.18388   0.00000  Uiso   1.00
O344   O     0.51639   0.50000   0.31612   0.00000  Uiso   1.00
O345   O     0.48361   0.50000   0.18388   0.00000  Uiso   1.00
O346   O     0.45406   0.43525   0.07348   0.00000  Uiso   1.00
S347   S     0.46355   0.45715   0.11217   0.00000  Uiso   1.00
S348   S     0.51434   0.44228   0.39329   0.00000  Uiso   1.00
Zn349  Zn    0.44896   0.50001   0.25000   0.00000  Uiso   1.00
Zn350  Zn    0.55104   0.49999   0.25000   0.00000  Uiso   1.00
C351   C     0.83333   0.58002   0.25008   0.00000  Uiso   1.00
C352   C     0.79907   0.64528   0.23718   0.00000  Uiso   1.00
C353   C     0.83314   0.37585   0.25034   0.00000  Uiso   1.00
C354   C     0.83324   0.62418   0.25026   0.00000  Uiso   1.00
C355   C     0.97835   0.46382   0.24404   0.00000  Uiso   1.00
C356   C     0.68824   0.53615   0.25616   0.00000  Uiso   1.00
C357   C     0.69275   0.46379   0.24433   0.00000  Uiso   1.00
C358   C     0.97370   0.53613   0.25622   0.00000  Uiso   1.00
C359   C     0.80316   0.49977   0.33775   0.00000  Uiso   1.00
C360   C     0.86349   0.49803   0.16211   0.00000  Uiso   1.00
C361   C     0.78517   0.50395   0.38777   0.00000  Uiso   1.00
C362   C     0.83326   0.41999   0.25011   0.00000  Uiso   1.00
C363   C     0.88195   0.49524   0.11152   0.00000  Uiso   1.00
C364   C     0.73268   0.53967   0.45654   0.00000  Uiso   1.00
C365   C     0.94829   0.49929   0.03695   0.00000  Uiso   1.00
C366   C     0.74401   0.52841   0.41050   0.00000  Uiso   1.00
C367   C     0.93189   0.49928   0.08523   0.00000  Uiso   1.00
C368   C     0.81461   0.48992   0.41131   0.00000  Uiso   1.00
C369   C     0.84903   0.49028   0.08876   0.00000  Uiso   1.00
C370   C     0.80881   0.50844   0.45401   0.00000  Uiso   1.00
C371   C     0.86438   0.50169   0.04213   0.00000  Uiso   1.00
C372   C     0.76469   0.52960   0.47870   0.00000  Uiso   1.00
C373   C     0.78566   0.53017   0.04664   0.00000  Uiso   1.00
C374   C     0.91460   0.50117   0.01501   0.00000  Uiso   1.00
C375   C     0.84500   0.50647   0.47335   0.00000  Uiso   1.00
C376   C     0.83097   0.51171   0.02134   0.00000  Uiso   1.00
C377   C     0.89509   0.50355   0.44605   0.00000  Uiso   1.00
C378   C     0.75366   0.54061   0.02495   0.00000  Uiso   1.00
C379   C     0.92973   0.50252   0.46675   0.00000  Uiso   1.00
C380   C     0.86725   0.64541   0.26355   0.00000  Uiso   1.00
C381   C     0.79901   0.35461   0.23724   0.00000  Uiso   1.00
C382   C     0.86718   0.35476   0.26361   0.00000  Uiso   1.00
H383   H     0.71998   0.55649   0.04453   0.00000  Uiso   1.00
H384   H     0.77277   0.37086   0.22662   0.00000  Uiso   1.00
H385   H     0.89334   0.37115   0.27432   0.00000  Uiso   1.00
H386   H     0.77286   0.62892   0.22653   0.00000  Uiso   1.00
H387   H     0.96236   0.43480   0.23907   0.00000  Uiso   1.00
H388   H     0.70421   0.56516   0.26116   0.00000  Uiso   1.00
H389   H     0.71251   0.43478   0.23943   0.00000  Uiso   1.00
H390   H     0.95386   0.56512   0.26130   0.00000  Uiso   1.00
H391   H     0.71954   0.46960   0.14141   0.00000  Uiso   1.00
H392   H     0.91704   0.42361   0.34235   0.00000  Uiso   1.00
H393   H     0.96804   0.50199   0.44514   0.00000  Uiso   1.00
H394   H     0.95821   0.50127   0.10185   0.00000  Uiso   1.00
H395   H     0.72121   0.53938   0.39245   0.00000  Uiso   1.00
H396   H     0.70012   0.55775   0.47411   0.00000  Uiso   1.00
H397   H     0.98693   0.49917   0.01707   0.00000  Uiso   1.00
H398   H     0.77646   0.53935   0.08234   0.00000  Uiso   1.00
H399   H     0.90780   0.50514   0.40876   0.00000  Uiso   1.00
H400   H     0.89345   0.62914   0.27421   0.00000  Uiso   1.00
N401   N     0.71426   0.50001   0.25001   0.00000  Uiso   1.00
N402   N     0.95241   0.49999   0.24999   0.00000  Uiso   1.00
O403   O     0.79512   0.56108   0.25001   0.00000  Uiso   1.00
O404   O     0.80569   0.42488   0.14320   0.00000  Uiso   1.00
O405   O     0.74768   0.48542   0.14292   0.00000  Uiso   1.00
O406   O     0.85247   0.42038   0.43413   0.00000  Uiso   1.00
O407   O     0.82066   0.41437   0.37206   0.00000  Uiso   1.00
O408   O     0.90346   0.45149   0.35359   0.00000  Uiso   1.00
O409   O     0.87154   0.43892   0.25000   0.00000  Uiso   1.00
O410   O     0.87157   0.56107   0.25000   0.00000  Uiso   1.00
O411   O     0.79510   0.43893   0.25000   0.00000  Uiso   1.00
O412   O     0.77328   0.50001   0.31612   0.00000  Uiso   1.00
O413   O     0.89339   0.49999   0.18388   0.00000  Uiso   1.00
O414   O     0.84972   0.50000   0.31612   0.00000  Uiso   1.00
O415   O     0.81695   0.50000   0.18388   0.00000  Uiso   1.00
O416   O     0.78739   0.43525   0.07348   0.00000  Uiso   1.00
S417   S     0.79689   0.45715   0.11217   0.00000  Uiso   1.00
S418   S     0.84768   0.44228   0.39329   0.00000  Uiso   1.00
Zn419  Zn    0.78229   0.50001   0.25000   0.00000  Uiso   1.00
Zn420  Zn    0.88438   0.49999   0.25000   0.00000  Uiso   1.00
C421   C     0.16666   0.91335   0.25008   0.00000  Uiso   1.00
C422   C     0.13241   0.97861   0.23718   0.00000  Uiso   1.00
C423   C     0.16647   0.70918   0.25034   0.00000  Uiso   1.00
C424   C     0.16658   0.95751   0.25026   0.00000  Uiso   1.00
C425   C     0.31168   0.79715   0.24404   0.00000  Uiso   1.00
C426   C     0.02157   0.86949   0.25616   0.00000  Uiso   1.00
C427   C     0.02608   0.79712   0.24433   0.00000  Uiso   1.00
C428   C     0.30703   0.86946   0.25622   0.00000  Uiso   1.00
C429   C     0.13649   0.83310   0.33775   0.00000  Uiso   1.00
C430   C     0.19682   0.83137   0.16211   0.00000  Uiso   1.00
C431   C     0.11850   0.83729   0.38777   0.00000  Uiso   1.00
C432   C     0.16659   0.75332   0.25011   0.00000  Uiso   1.00
C433   C     0.21528   0.82857   0.11152   0.00000  Uiso   1.00
C434   C     0.06601   0.87300   0.45654   0.00000  Uiso   1.00
C435   C     0.28163   0.83263   0.03695   0.00000  Uiso   1.00
C436   C     0.07734   0.86174   0.41050   0.00000  Uiso   1.00
C437   C     0.26522   0.83261   0.08523   0.00000  Uiso   1.00
C438   C     0.14794   0.82325   0.41131   0.00000  Uiso   1.00
C439   C     0.18236   0.82361   0.08876   0.00000  Uiso   1.00
C440   C     0.14214   0.84178   0.45401   0.00000  Uiso   1.00
C441   C     0.19772   0.83503   0.04213   0.00000  Uiso   1.00
C442   C     0.09803   0.86293   0.47870   0.00000  Uiso   1.00
C443   C     0.11899   0.86350   0.04664   0.00000  Uiso   1.00
C444   C     0.24794   0.83450   0.01501   0.00000  Uiso   1.00
C445   C     0.17833   0.83981   0.47335   0.00000  Uiso   1.00
C446   C     0.16430   0.84504   0.02134   0.00000  Uiso   1.00
C447   C     0.22842   0.83688   0.44605   0.00000  Uiso   1.00
C448   C     0.08699   0.87394   0.02495   0.00000  Uiso   1.00
C449   C     0.26306   0.83585   0.46675   0.00000  Uiso   1.00
C450   C     0.20058   0.97874   0.26355   0.00000  Uiso   1.00
C451   C     0.13235   0.68795   0.23724   0.00000  Uiso   1.00
C452   C     0.20052   0.68809   0.26361   0.00000  Uiso   1.00
H453   H     0.05332   0.88982   0.04453   0.00000  Uiso   1.00
H454   H     0.10610   0.70419   0.22662   0.00000  Uiso   1.00
H455   H     0.22667   0.70448   0.27432   0.00000  Uiso   1.00
H456   H     0.10620   0.96226   0.22653   0.00000  Uiso   1.00
H457   H     0.29570   0.76814   0.23907   0.00000  Uiso   1.00
H458   H     0.03755   0.89850   0.26116   0.00000  Uiso   1.00
H459   H     0.04584   0.76811   0.23943   0.00000  Uiso   1.00
H460   H     0.28719   0.89845   0.26130   0.00000  Uiso   1.00
H461   H     0.05287   0.80294   0.14141   0.00000  Uiso   1.00
H462   H     0.25037   0.75694   0.34235   0.00000  Uiso   1.00
H463   H     0.30137   0.83533   0.44514   0.00000  Uiso   1.00
H464   H     0.29154   0.83460   0.10185   0.00000  Uiso   1.00
H465   H     0.05455   0.87271   0.39245   0.00000  Uiso   1.00
H466   H     0.03346   0.89108   0.47411   0.00000  Uiso   1.00
H467   H     0.32026   0.83250   0.01707   0.00000  Uiso   1.00
H468   H     0.10980   0.87269   0.08234   0.00000  Uiso   1.00
H469   H     0.24113   0.83847   0.40876   0.00000  Uiso   1.00
H470   H     0.22678   0.96247   0.27421   0.00000  Uiso   1.00
N471   N     0.04759   0.83334   0.25001   0.00000  Uiso   1.00
N472   N     0.28574   0.83332   0.24999   0.00000  Uiso   1.00
O473   O     0.12846   0.89442   0.25001   0.00000  Uiso   1.00
O474   O     0.13902   0.75821   0.14320   0.00000  Uiso   1.00
O475   O     0.08102   0.81875   0.14292   0.00000  Uiso   1.00
O476   O     0.18580   0.75371   0.43413   0.00000  Uiso   1.00
O477   O     0.15399   0.74771   0.37206   0.00000  Uiso   1.00
O478   O     0.23680   0.78483   0.35359   0.00000  Uiso   1.00
O479   O     0.20488   0.77225   0.25000   0.00000  Uiso   1.00
O480   O     0.20490   0.89441   0.25000   0.00000  Uiso   1.00
O481   O     0.12843   0.77226   0.25000   0.00000  Uiso   1.00
O482   O     0.10661   0.83334   0.31612   0.00000  Uiso   1.00
O483   O     0.22672   0.83333   0.18388   0.00000  Uiso   1.00
O484   O     0.18305   0.83333   0.31612   0.00000  Uiso   1.00
O485   O     0.15028   0.83334   0.18388   0.00000  Uiso   1.00
O486   O     0.12073   0.76858   0.07348   0.00000  Uiso   1.00
S487   S     0.13022   0.79048   0.11217   0.00000  Uiso   1.00
S488   S     0.18101   0.77561   0.39329   0.00000  Uiso   1.00
Zn489  Zn    0.11562   0.83334   0.25000   0.00000  Uiso   1.00
Zn490  Zn    0.21771   0.83333   0.25000   0.00000  Uiso   1.00
C491   C     0.50000   0.91335   0.25008   0.00000  Uiso   1.00
C492   C     0.46574   0.97861   0.23718   0.00000  Uiso   1.00
C493   C     0.49980   0.70918   0.25034   0.00000  Uiso   1.00
C494   C     0.49991   0.95751   0.25026   0.00000  Uiso   1.00
C495   C     0.64502   0.79715   0.24404   0.00000  Uiso   1.00
C496   C     0.35490   0.86949   0.25616   0.00000  Uiso   1.00
C497   C     0.35942   0.79712   0.24433   0.00000  Uiso   1.00
C498   C     0.64036   0.86946   0.25622   0.00000  Uiso   1.00
C499   C     0.46983   0.83310   0.33775   0.00000  Uiso   1.00
C500   C     0.53016   0.83137   0.16211   0.00000  Uiso   1.00
C501   C     0.45184   0.83729   0.38777   0.00000  Uiso   1.00
C502   C     0.49992   0.75332   0.25011   0.00000  Uiso   1.00
C503   C     0.54861   0.82857   0.11152   0.00000  Uiso   1.00
C504   C     0.39934   0.87300   0.45654   0.00000  Uiso   1.00
C505   C     0.61496   0.83263   0.03695   0.00000  Uiso   1.00
C506   C     0.41068   0.86174   0.41050   0.00000  Uiso   1.00
C507   C     0.59856   0.83261   0.08523   0.00000  Uiso   1.00
C508   C     0.48127   0.82325   0.41131   0.00000  Uiso   1.00
C509   C     0.51570   0.82361   0.08876   0.00000  Uiso   1.00
C510   C     0.47547   0.84178   0.45401   0.00000  Uiso   1.00
C511   C     0.53105   0.83503   0.04213   0.00000  Uiso   1.00
C512   C     0.43136   0.86293   0.47870   0.00000  Uiso   1.00
C513   C     0.45232   0.86350   0.04664   0.00000  Uiso   1.00
C514   C     0.58127   0.83450   0.01501   0.00000  Uiso   1.00
C515   C     0.51167   0.83981   0.47335   0.00000  Uiso   1.00
C516   C     0.49764   0.84504   0.02134   0.00000  Uiso   1.00
C517   C     0.56175   0.83688   0.44605   0.00000  Uiso   1.00
C518   C     0.42032   0.87394   0.02495   0.00000  Uiso   1.00
C519   C     0.59640   0.83585   0.46675   0.00000  Uiso   1.00
C520   C     0.53391   0.97874   0.26355   0.00000  Uiso   1.00
C521   C     0.46568   0.68795   0.23724   0.00000  Uiso   1.00
C522   C     0.53385   0.68809   0.26361   0.00000  Uiso   1.00
H523   H     0.38665   0.88982   0.04453   0.00000  Uiso   1.00
H524   H     0.43944   0.70419   0.22662   0.00000  Uiso   1.00
H525   H     0.56001   0.70448   0.27432   0.00000  Uiso   1.00
H526   H     0.43953   0.96226   0.22653   0.00000  Uiso   1.00
H527   H     0.62903   0.76814   0.23907   0.00000  Uiso   1.00
H528   H     0.37088   0.89850   0.26116   0.00000  Uiso   1.00
H529   H     0.37918   0.76811   0.23943   0.00000  Uiso   1.00
H530   H     0.62053   0.89845   0.26130   0.00000  Uiso   1.00
H531   H     0.38620   0.80294   0.14141   0.00000  Uiso   1.00
H532   H     0.58371   0.75694   0.34235   0.00000  Uiso   1.00
H533   H     0.63471   0.83533   0.44514   0.00000  Uiso   1.00
H534   H     0.62488   0.83460   0.10185   0.00000  Uiso   1.00
H535   H     0.38788   0.87271   0.39245   0.00000  Uiso   1.00
H536   H     0.36679   0.89108   0.47411   0.00000  Uiso   1.00
H537   H     0.65359   0.83250   0.01707   0.00000  Uiso   1.00
H538   H     0.44313   0.87269   0.08234   0.00000  Uiso   1.00
H539   H     0.57446   0.83847   0.40876   0.00000  Uiso   1.00
H540   H     0.56012   0.96247   0.27421   0.00000  Uiso   1.00
N541   N     0.38093   0.83334   0.25001   0.00000  Uiso   1.00
N542   N     0.61907   0.83332   0.24999   0.00000  Uiso   1.00
O543   O     0.46179   0.89442   0.25001   0.00000  Uiso   1.00
O544   O     0.47236   0.75821   0.14320   0.00000  Uiso   1.00
O545   O     0.41435   0.81875   0.14292   0.00000  Uiso   1.00
O546   O     0.51914   0.75371   0.43413   0.00000  Uiso   1.00
O547   O     0.48732   0.74771   0.37206   0.00000  Uiso   1.00
O548   O     0.57013   0.78483   0.35359   0.00000  Uiso   1.00
O549   O     0.53821   0.77225   0.25000   0.00000  Uiso   1.00
O550   O     0.53823   0.89441   0.25000   0.00000  Uiso   1.00
O551   O     0.46177   0.77226   0.25000   0.00000  Uiso   1.00
O552   O     0.43994   0.83334   0.31612   0.00000  Uiso   1.00
O553   O     0.56006   0.83333   0.18388   0.00000  Uiso   1.00
O554   O     0.51639   0.83333   0.31612   0.00000  Uiso   1.00
O555   O     0.48361   0.83334   0.18388   0.00000  Uiso   1.00
O556   O     0.45406   0.76858   0.07348   0.00000  Uiso   1.00
S557   S     0.46355   0.79048   0.11217   0.00000  Uiso   1.00
S558   S     0.51434   0.77561   0.39329   0.00000  Uiso   1.00
Zn559  Zn    0.44896   0.83334   0.25000   0.00000  Uiso   1.00
Zn560  Zn    0.55104   0.83333   0.25000   0.00000  Uiso   1.00
C561   C     0.83333   0.91335   0.25008   0.00000  Uiso   1.00
C562   C     0.79907   0.97861   0.23718   0.00000  Uiso   1.00
C563   C     0.83314   0.70918   0.25034   0.00000  Uiso   1.00
C564   C     0.83324   0.95751   0.25026   0.00000  Uiso   1.00
C565   C     0.97835   0.79715   0.24404   0.00000  Uiso   1.00
C566   C     0.68824   0.86949   0.25616   0.00000  Uiso   1.00
C567   C     0.69275   0.79712   0.24433   0.00000  Uiso   1.00
C568   C     0.97370   0.86946   0.25622   0.00000  Uiso   1.00
C569   C     0.80316   0.83310   0.33775   0.00000  Uiso   1.00
C570   C     0.86349   0.83137   0.16211   0.00000  Uiso   1.00
C571   C     0.78517   0.83729   0.38777   0.00000  Uiso   1.00
C572   C     0.83326   0.75332   0.25011   0.00000  Uiso   1.00
C573   C     0.88195   0.82857   0.11152   0.00000  Uiso   1.00
C574   C     0.73268   0.87300   0.45654   0.00000  Uiso   1.00
C575   C     0.94829   0.83263   0.03695   0.00000  Uiso   1.00
C576   C     0.74401   0.86174   0.41050   0.00000  Uiso   1.00
C577   C     0.93189   0.83261   0.08523   0.00000  Uiso   1.00
C578   C     0.81461   0.82325   0.41131   0.00000  Uiso   1.00
C579   C     0.84903   0.82361   0.08876   0.00000  Uiso   1.00
C580   C     0.80881   0.84178   0.45401   0.00000  Uiso   1.00
C581   C     0.86438   0.83503   0.04213   0.00000  Uiso   1.00
C582   C     0.76469   0.86293   0.47870   0.00000  Uiso   1.00
C583   C     0.78566   0.86350   0.04664   0.00000  Uiso   1.00
C584   C     0.91460   0.83450   0.01501   0.00000  Uiso   1.00
C585   C     0.84500   0.83981   0.47335   0.00000  Uiso   1.00
C586   C     0.83097   0.84504   0.02134   0.00000  Uiso   1.00
C587   C     0.89509   0.83688   0.44605   0.00000  Uiso   1.00
C588   C     0.75366   0.87394   0.02495   0.00000  Uiso   1.00
C589   C     0.92973   0.83585   0.46675   0.00000  Uiso   1.00
C590   C     0.86725   0.97874   0.26355   0.00000  Uiso   1.00
C591   C     0.79901   0.68795   0.23724   0.00000  Uiso   1.00
C592   C     0.86718   0.68809   0.26361   0.00000  Uiso   1.00
H593   H     0.71998   0.88982   0.04453   0.00000  Uiso   1.00
H594   H     0.77277   0.70419   0.22662   0.00000  Uiso   1.00
H595   H     0.89334   0.70448   0.27432   0.00000  Uiso   1.00
H596   H     0.77286   0.96226   0.22653   0.00000  Uiso   1.00
H597   H     0.96236   0.76814   0.23907   0.00000  Uiso   1.00
H598   H     0.70421   0.89850   0.26116   0.00000  Uiso   1.00
H599   H     0.71251   0.76811   0.23943   0.00000  Uiso   1.00
H600   H     0.95386   0.89845   0.26130   0.00000  Uiso   1.00
H601   H     0.71954   0.80294   0.14141   0.00000  Uiso   1.00
H602   H     0.91704   0.75694   0.34235   0.00000  Uiso   1.00
H603   H     0.96804   0.83533   0.44514   0.00000  Uiso   1.00
H604   H     0.95821   0.83460   0.10185   0.00000  Uiso   1.00
H605   H     0.72121   0.87271   0.39245   0.00000  Uiso   1.00
H606   H     0.70012   0.89108   0.47411   0.00000  Uiso   1.00
H607   H     0.98693   0.83250   0.01707   0.00000  Uiso   1.00
H608   H     0.77646   0.87269   0.08234   0.00000  Uiso   1.00
H609   H     0.90780   0.83847   0.40876   0.00000  Uiso   1.00
H610   H     0.89345   0.96247   0.27421   0.00000  Uiso   1.00
N611   N     0.71426   0.83334   0.25001   0.00000  Uiso   1.00
N612   N     0.95241   0.83332   0.24999   0.00000  Uiso   1.00
O613   O     0.79512   0.89442   0.25001   0.00000  Uiso   1.00
O614   O     0.80569   0.75821   0.14320   0.00000  Uiso   1.00
O615   O     0.74768   0.81875   0.14292   0.00000  Uiso   1.00
O616   O     0.85247   0.75371   0.43413   0.00000  Uiso   1.00
O617   O     0.82066   0.74771   0.37206   0.00000  Uiso   1.00
O618   O     0.90346   0.78483   0.35359   0.00000  Uiso   1.00
O619   O     0.87154   0.77225   0.25000   0.00000  Uiso   1.00
O620   O     0.87157   0.89441   0.25000   0.00000  Uiso   1.00
O621   O     0.79510   0.77226   0.25000   0.00000  Uiso   1.00
O622   O     0.77328   0.83334   0.31612   0.00000  Uiso   1.00
O623   O     0.89339   0.83333   0.18388   0.00000  Uiso   1.00
O624   O     0.84972   0.83333   0.31612   0.00000  Uiso   1.00
O625   O     0.81695   0.83334   0.18388   0.00000  Uiso   1.00
O626   O     0.78739   0.76858   0.07348   0.00000  Uiso   1.00
S627   S     0.79689   0.79048   0.11217   0.00000  Uiso   1.00
S628   S     0.84768   0.77561   0.39329   0.00000  Uiso   1.00
Zn629  Zn    0.78229   0.83334   0.25000   0.00000  Uiso   1.00
Zn630  Zn    0.88438   0.83333   0.25000   0.00000  Uiso   1.00
C631   C     0.16666   0.24668   0.75008   0.00000  Uiso   1.00
C632   C     0.13241   0.31195   0.73718   0.00000  Uiso   1.00
C633   C     0.16647   0.04251   0.75034   0.00000  Uiso   1.00
C634   C     0.16658   0.29084   0.75026   0.00000  Uiso   1.00
C635   C     0.31168   0.13048   0.74404   0.00000  Uiso   1.00
C636   C     0.02157   0.20282   0.75616   0.00000  Uiso   1.00
C637   C     0.02608   0.13046   0.74433   0.00000  Uiso   1.00
C638   C     0.30703   0.20280   0.75622   0.00000  Uiso   1.00
C639   C     0.13649   0.16644   0.83775   0.00000  Uiso   1.00
C640   C     0.19682   0.16470   0.66211   0.00000  Uiso   1.00
C641   C     0.11850   0.17062   0.88777   0.00000  Uiso   1.00
C642   C     0.16659   0.08666   0.75011   0.00000  Uiso   1.00
C643   C     0.21528   0.16191   0.61152   0.00000  Uiso   1.00
C644   C     0.06601   0.20634   0.95654   0.00000  Uiso   1.00
C645   C     0.28163   0.16596   0.53695   0.00000  Uiso   1.00
C646   C     0.07734   0.19508   0.91050   0.00000  Uiso   1.00
C647   C     0.26522   0.16594   0.58523   0.00000  Uiso   1.00
C648   C     0.14794   0.15659   0.91131   0.00000  Uiso   1.00
C649   C     0.18236   0.15694   0.58876   0.00000  Uiso   1.00
C650   C     0.14214   0.17511   0.95401   0.00000  Uiso   1.00
C651   C     0.19772   0.16836   0.54213   0.00000  Uiso   1.00
C652   C     0.09803   0.19627   0.97870   0.00000  Uiso   1.00
C653   C     0.11899   0.19683   0.54664   0.00000  Uiso   1.00
C654   C     0.24794   0.16783   0.51501   0.00000  Uiso   1.00
C655   C     0.17833   0.17314   0.97335   0.00000  Uiso   1.00
C656   C     0.16430   0.17838   0.52134   0.00000  Uiso   1.00
C657   C     0.22842   0.17021   0.94605   0.00000  Uiso   1.00
C658   C     0.08699   0.20728   0.52495   0.00000  Uiso   1.00
C659   C     0.26306   0.16918   0.96675   0.00000  Uiso   1.00
C660   C     0.20058   0.31207   0.76355   0.00000  Uiso   1.00
C661   C     0.13235   0.02128   0.73724   0.00000  Uiso   1.00
C662   C     0.20052   0.02143   0.76361   0.00000  Uiso   1.00
H663   H     0.05332   0.22316   0.54453   0.00000  Uiso   1.00
H664   H     0.10610   0.03753   0.72662   0.00000  Uiso   1.00
H665   H     0.22667   0.03781   0.77432   0.00000  Uiso   1.00
H666   H     0.10620   0.29559   0.72653   0.00000  Uiso   1.00
H667   H     0.29570   0.10147   0.73907   0.00000  Uiso   1.00
H668   H     0.03755   0.23183   0.76116   0.00000  Uiso   1.00
H669   H     0.04584   0.10144   0.73943   0.00000  Uiso   1.00
H670   H     0.28719   0.23178   0.76130   0.00000  Uiso   1.00
H671   H     0.05287   0.13627   0.64141   0.00000  Uiso   1.00
H672   H     0.25037   0.09027   0.84235   0.00000  Uiso   1.00
H673   H     0.30137   0.16866   0.94514   0.00000  Uiso   1.00
H674   H     0.29154   0.16793   0.60185   0.00000  Uiso   1.00
H675   H     0.05455   0.20605   0.89245   0.00000  Uiso   1.00
H676   H     0.03346   0.22442   0.97411   0.00000  Uiso   1.00
H677   H     0.32026   0.16584   0.51707   0.00000  Uiso   1.00
H678   H     0.10980   0.20602   0.58234   0.00000  Uiso   1.00
H679   H     0.24113   0.17181   0.90876   0.00000  Uiso   1.00
H680   H     0.22678   0.29580   0.77421   0.00000  Uiso   1.00
N681   N     0.04759   0.16668   0.75001   0.00000  Uiso   1.00
N682   N     0.28574   0.16666   0.74999   0.00000  Uiso   1.00
O683   O     0.12846   0.22775   0.75001   0.00000  Uiso   1.00
O684   O     0.13902   0.09155   0.64320   0.00000  Uiso   1.00
O685   O     0.08102   0.15208   0.64292   0.00000  Uiso   1.00
O686   O     0.18580   0.08704   0.93413   0.00000  Uiso   1.00
O687   O     0.15399   0.08104   0.87206   0.00000  Uiso   1.00
O688   O     0.23680   0.11816   0.85359   0.00000  Uiso   1.00
O689   O     0.20488   0.10558   0.75000   0.00000  Uiso   1.00
O690   O     0.20490   0.22774   0.75000   0.00000  Uiso   1.00
O691   O     0.12843   0.10559   0.75000   0.00000  Uiso   1.00
O692   O     0.10661   0.16667   0.81612   0.00000  Uiso   1.00
O693   O     0.22672   0.16666   0.68388   0.00000  Uiso   1.00
O694   O     0.18305   0.16666   0.81612   0.00000  Uiso   1.00
O695   O     0.15028   0.16667   0.68388   0.00000  Uiso   1.00
O696   O     0.12073   0.10192   0.57348   0.00000  Uiso   1.00
S697   S     0.13022   0.12381   0.61217   0.00000  Uiso   1.00
S698   S     0.18101   0.10895   0.89329   0.00000  Uiso   1.00
Zn699  Zn    0.11562   0.16667   0.75000   0.00000  Uiso   1.00
Zn700  Zn    0.21771   0.16666   0.75000   0.00000  Uiso   1.00
C701   C     0.50000   0.24668   0.75008   0.00000  Uiso   1.00
C702   C     0.46574   0.31195   0.73718   0.00000  Uiso   1.00
C703   C     0.49980   0.04251   0.75034   0.00000  Uiso   1.00
C704   C     0.49991   0.29084   0.75026   0.00000  Uiso   1.00
C705   C     0.64502   0.13048   0.74404   0.00000  Uiso   1.00
C706   C     0.35490   0.20282   0.75616   0.00000  Uiso   1.00
C707   C     0.35942   0.13046   0.74433   0.00000  Uiso   1.00
C708   C     0.64036   0.20280   0.75622   0.00000  Uiso   1.00
C709   C     0.46983   0.16644   0.83775   0.00000  Uiso   1.00
C710   C     0.53016   0.16470   0.66211   0.00000  Uiso   1.00
C711   C     0.45184   0.17062   0.88777   0.00000  Uiso   1.00
C712   C     0.49992   0.08666   0.75011   0.00000  Uiso   1.00
C713   C     0.54861   0.16191   0.61152   0.00000  Uiso   1.00
C714   C     0.39934   0.20634   0.95654   0.00000  Uiso   1.00
C715   C     0.61496   0.16596   0.53695   0.00000  Uiso   1.00
C716   C     0.41068   0.19508   0.91050   0.00000  Uiso   1.00
C717   C     0.59856   0.16594   0.58523   0.00000  Uiso   1.00
C718   C     0.48127   0.15659   0.91131   0.00000  Uiso   1.00
C719   C     0.51570   0.15694   0.58876   0.00000  Uiso   1.00
C720   C     0.47547   0.17511   0.95401   0.00000  Uiso   1.00
C721   C     0.53105   0.16836   0.54213   0.00000  Uiso   1.00
C722   C     0.43136   0.19627   0.97870   0.00000  Uiso   1.00
C723   C     0.45232   0.19683   0.54664   0.00000  Uiso   1.00
C724   C     0.58127   0.16783   0.51501   0.00000  Uiso   1.00
C725   C     0.51167   0.17314   0.97335   0.00000  Uiso   1.00
C726   C     0.49764   0.17838   0.52134   0.00000  Uiso   1.00
C727   C     0.56175   0.17021   0.94605   0.00000  Uiso   1.00
C728   C     0.42032   0.20728   0.52495   0.00000  Uiso   1.00
C729   C     0.59640   0.16918   0.96675   0.00000  Uiso   1.00
C730   C     0.53391   0.31207   0.76355   0.00000  Uiso   1.00
C731   C     0.46568   0.02128   0.73724   0.00000  Uiso   1.00
C732   C     0.53385   0.02143   0.76361   0.00000  Uiso   1.00
H733   H     0.38665   0.22316   0.54453   0.00000  Uiso   1.00
H734   H     0.43944   0.03753   0.72662   0.00000  Uiso   1.00
H735   H     0.56001   0.03781   0.77432   0.00000  Uiso   1.00
H736   H     0.43953   0.29559   0.72653   0.00000  Uiso   1.00
H737   H     0.62903   0.10147   0.73907   0.00000  Uiso   1.00
H738   H     0.37088   0.23183   0.76116   0.00000  Uiso   1.00
H739   H     0.37918   0.10144   0.73943   0.00000  Uiso   1.00
H740   H     0.62053   0.23178   0.76130   0.00000  Uiso   1.00
H741   H     0.38620   0.13627   0.64141   0.00000  Uiso   1.00
H742   H     0.58371   0.09027   0.84235   0.00000  Uiso   1.00
H743   H     0.63471   0.16866   0.94514   0.00000  Uiso   1.00
H744   H     0.62488   0.16793   0.60185   0.00000  Uiso   1.00
H745   H     0.38788   0.20605   0.89245   0.00000  Uiso   1.00
H746   H     0.36679   0.22442   0.97411   0.00000  Uiso   1.00
H747   H     0.65359   0.16584   0.51707   0.00000  Uiso   1.00
H748   H     0.44313   0.20602   0.58234   0.00000  Uiso   1.00
H749   H     0.57446   0.17181   0.90876   0.00000  Uiso   1.00
H750   H     0.56012   0.29580   0.77421   0.00000  Uiso   1.00
N751   N     0.38093   0.16668   0.75001   0.00000  Uiso   1.00
N752   N     0.61907   0.16666   0.74999   0.00000  Uiso   1.00
O753   O     0.46179   0.22775   0.75001   0.00000  Uiso   1.00
O754   O     0.47236   0.09155   0.64320   0.00000  Uiso   1.00
O755   O     0.41435   0.15208   0.64292   0.00000  Uiso   1.00
O756   O     0.51914   0.08704   0.93413   0.00000  Uiso   1.00
O757   O     0.48732   0.08104   0.87206   0.00000  Uiso   1.00
O758   O     0.57013   0.11816   0.85359   0.00000  Uiso   1.00
O759   O     0.53821   0.10558   0.75000   0.00000  Uiso   1.00
O760   O     0.53823   0.22774   0.75000   0.00000  Uiso   1.00
O761   O     0.46177   0.10559   0.75000   0.00000  Uiso   1.00
O762   O     0.43994   0.16667   0.81612   0.00000  Uiso   1.00
O763   O     0.56006   0.16666   0.68388   0.00000  Uiso   1.00
O764   O     0.51639   0.16666   0.81612   0.00000  Uiso   1.00
O765   O     0.48361   0.16667   0.68388   0.00000  Uiso   1.00
O766   O     0.45406   0.10192   0.57348   0.00000  Uiso   1.00
S767   S     0.46355   0.12381   0.61217   0.00000  Uiso   1.00
S768   S     0.51434   0.10895   0.89329   0.00000  Uiso   1.00
Zn769  Zn    0.44896   0.16667   0.75000   0.00000  Uiso   1.00
Zn770  Zn    0.55104   0.16666   0.75000   0.00000  Uiso   1.00
C771   C     0.83333   0.24668   0.75008   0.00000  Uiso   1.00
C772   C     0.79907   0.31195   0.73718   0.00000  Uiso   1.00
C773   C     0.83314   0.04251   0.75034   0.00000  Uiso   1.00
C774   C     0.83324   0.29084   0.75026   0.00000  Uiso   1.00
C775   C     0.97835   0.13048   0.74404   0.00000  Uiso   1.00
C776   C     0.68824   0.20282   0.75616   0.00000  Uiso   1.00
C777   C     0.69275   0.13046   0.74433   0.00000  Uiso   1.00
C778   C     0.97370   0.20280   0.75622   0.00000  Uiso   1.00
C779   C     0.80316   0.16644   0.83775   0.00000  Uiso   1.00
C780   C     0.86349   0.16470   0.66211   0.00000  Uiso   1.00
C781   C     0.78517   0.17062   0.88777   0.00000  Uiso   1.00
C782   C     0.83326   0.08666   0.75011   0.00000  Uiso   1.00
C783   C     0.88195   0.16191   0.61152   0.00000  Uiso   1.00
C784   C     0.73268   0.20634   0.95654   0.00000  Uiso   1.00
C785   C     0.94829   0.16596   0.53695   0.00000  Uiso   1.00
C786   C     0.74401   0.19508   0.91050   0.00000  Uiso   1.00
C787   C     0.93189   0.16594   0.58523   0.00000  Uiso   1.00
C788   C     0.81461   0.15659   0.91131   0.00000  Uiso   1.00
C789   C     0.84903   0.15694   0.58876   0.00000  Uiso   1.00
C790   C     0.80881   0.17511   0.95401   0.00000  Uiso   1.00
C791   C     0.86438   0.16836   0.54213   0.00000  Uiso   1.00
C792   C     0.76469   0.19627   0.97870   0.00000  Uiso   1.00
C793   C     0.78566   0.19683   0.54664   0.00000  Uiso   1.00
C794   C     0.91460   0.16783   0.51501   0.00000  Uiso   1.00
C795   C     0.84500   0.17314   0.97335   0.00000  Uiso   1.00
C796   C     0.83097   0.17838   0.52134   0.00000  Uiso   1.00
C797   C     0.89509   0.17021   0.94605   0.00000  Uiso   1.00
C798   C     0.75366   0.20728   0.52495   0.00000  Uiso   1.00
C799   C     0.92973   0.16918   0.96675   0.00000  Uiso   1.00
C800   C     0.86725   0.31207   0.76355   0.00000  Uiso   1.00
C801   C     0.79901   0.02128   0.73724   0.00000  Uiso   1.00
C802   C     0.86718   0.02143   0.76361   0.00000  Uiso   1.00
H803   H     0.71998   0.22316   0.54453   0.00000  Uiso   1.00
H804   H     0.77277   0.03753   0.72662   0.00000  Uiso   1.00
H805   H     0.89334   0.03781   0.77432   0.00000  Uiso   1.00
H806   H     0.77286   0.29559   0.72653   0.00000  Uiso   1.00
H807   H     0.96236   0.10147   0.73907   0.00000  Uiso   1.00
H808   H     0.70421   0.23183   0.76116   0.00000  Uiso   1.00
H809   H     0.71251   0.10144   0.73943   0.00000  Uiso   1.00
H810   H     0.95386   0.23178   0.76130   0.00000  Uiso   1.00
H811   H     0.71954   0.13627   0.64141   0.00000  Uiso   1.00
H812   H     0.91704   0.09027   0.84235   0.00000  Uiso   1.00
H813   H     0.96804   0.16866   0.94514   0.00000  Uiso   1.00
H814   H     0.95821   0.16793   0.60185   0.00000  Uiso   1.00
H815   H     0.72121   0.20605   0.89245   0.00000  Uiso   1.00
H816   H     0.70012   0.22442   0.97411   0.00000  Uiso   1.00
H817   H     0.98693   0.16584   0.51707   0.00000  Uiso   1.00
H818   H     0.77646   0.20602   0.58234   0.00000  Uiso   1.00
H819   H     0.90780   0.17181   0.90876   0.00000  Uiso   1.00
H820   H     0.89345   0.29580   0.77421   0.00000  Uiso   1.00
N821   N     0.71426   0.16668   0.75001   0.00000  Uiso   1.00
N822   N     0.95241   0.16666   0.74999   0.00000  Uiso   1.00
O823   O     0.79512   0.22775   0.75001   0.00000  Uiso   1.00
O824   O     0.80569   0.09155   0.64320   0.00000  Uiso   1.00
O825   O     0.74768   0.15208   0.64292   0.00000  Uiso   1.00
O826   O     0.85247   0.08704   0.93413   0.00000  Uiso   1.00
O827   O     0.82066   0.08104   0.87206   0.00000  Uiso   1.00
O828   O     0.90346   0.11816   0.85359   0.00000  Uiso   1.00
O829   O     0.87154   0.10558   0.75000   0.00000  Uiso   1.00
O830   O     0.87157   0.22774   0.75000   0.00000  Uiso   1.00
O831   O     0.79510   0.10559   0.75000   0.00000  Uiso   1.00
O832   O     0.77328   0.16667   0.81612   0.00000  Uiso   1.00
O833   O     0.89339   0.16666   0.68388   0.00000  Uiso   1.00
O834   O     0.84972   0.16666   0.81612   0.00000  Uiso   1.00
O835   O     0.81695   0.16667   0.68388   0.00000  Uiso   1.00
O836   O     0.78739   0.10192   0.57348   0.00000  Uiso   1.00
S837   S     0.79689   0.12381   0.61217   0.00000  Uiso   1.00
S838   S     0.84768   0.10895   0.89329   0.00000  Uiso   1.00
Zn839  Zn    0.78229   0.16667   0.75000   0.00000  Uiso   1.00
Zn840  Zn    0.88438   0.16666   0.75000   0.00000  Uiso   1.00
C841   C     0.16666   0.58002   0.75008   0.00000  Uiso   1.00
C842   C     0.13241   0.64528   0.73718   0.00000  Uiso   1.00
C843   C     0.16647   0.37585   0.75034   0.00000  Uiso   1.00
C844   C     0.16658   0.62418   0.75026   0.00000  Uiso   1.00
C845   C     0.31168   0.46382   0.74404   0.00000  Uiso   1.00
C846   C     0.02157   0.53615   0.75616   0.00000  Uiso   1.00
C847   C     0.02608   0.46379   0.74433   0.00000  Uiso   1.00
C848   C     0.30703   0.53613   0.75622   0.00000  Uiso   1.00
C849   C     0.13649   0.49977   0.83775   0.00000  Uiso   1.00
C850   C     0.19682   0.49803   0.66211   0.00000  Uiso   1.00
C851   C     0.11850   0.50395   0.88777   0.00000  Uiso   1.00
C852   C     0.16659   0.41999   0.75011   0.00000  Uiso   1.00
C853   C     0.21528   0.49524   0.61152   0.00000  Uiso   1.00
C854   C     0.06601   0.53967   0.95654   0.00000  Uiso   1.00
C855   C     0.28163   0.49929   0.53695   0.00000  Uiso   1.00
C856   C     0.07734   0.52841   0.91050   0.00000  Uiso   1.00
C857   C     0.26522   0.49928   0.58523   0.00000  Uiso   1.00
C858   C     0.14794   0.48992   0.91131   0.00000  Uiso   1.00
C859   C     0.18236   0.49028   0.58876   0.00000  Uiso   1.00
C860   C     0.14214   0.50844   0.95401   0.00000  Uiso   1.00
C861   C     0.19772   0.50169   0.54213   0.00000  Uiso   1.00
C862   C     0.09803   0.52960   0.97870   0.00000  Uiso   1.00
C863   C     0.11899   0.53017   0.54664   0.00000  Uiso   1.00
C864   C     0.24794   0.50117   0.51501   0.00000  Uiso   1.00
C865   C     0.17833   0.50647   0.97335   0.00000  Uiso   1.00
C866   C     0.16430   0.51171   0.52134   0.00000  Uiso   1.00
C867   C     0.22842   0.50355   0.94605   0.00000  Uiso   1.00
C868   C     0.08699   0.54061   0.52495   0.00000  Uiso   1.00
C869   C     0.26306   0.50252   0.96675   0.00000  Uiso   1.00
C870   C     0.20058   0.64541   0.76355   0.00000  Uiso   1.00
C871   C     0.13235   0.35461   0.73724   0.00000  Uiso   1.00
C872   C     0.20052   0.35476   0.76361   0.00000  Uiso   1.00
H873   H     0.05332   0.55649   0.54453   0.00000  Uiso   1.00
H874   H     0.10610   0.37086   0.72662   0.00000  Uiso   1.00
H875   H     0.22667   0.37115   0.77432   0.00000  Uiso   1.00
H876   H     0.10620   0.62892   0.72653   0.00000  Uiso   1.00
H877   H     0.29570   0.43480   0.73907   0.00000  Uiso   1.00
H878   H     0.03755   0.56516   0.76116   0.00000  Uiso   1.00
H879   H     0.04584   0.43478   0.73943   0.00000  Uiso   1.00
H880   H     0.28719   0.56512   0.76130   0.00000  Uiso   1.00
H881   H     0.05287   0.46960   0.64141   0.00000  Uiso   1.00
H882   H     0.25037   0.42361   0.84235   0.00000  Uiso   1.00
H883   H     0.30137   0.50199   0.94514   0.00000  Uiso   1.00
H884   H     0.29154   0.50127   0.60185   0.00000  Uiso   1.00
H885   H     0.05455   0.53938   0.89245   0.00000  Uiso   1.00
H886   H     0.03346   0.55775   0.97411   0.00000  Uiso   1.00
H887   H     0.32026   0.49917   0.51707   0.00000  Uiso   1.00
H888   H     0.10980   0.53935   0.58234   0.00000  Uiso   1.00
H889   H     0.24113   0.50514   0.90876   0.00000  Uiso   1.00
H890   H     0.22678   0.62914   0.77421   0.00000  Uiso   1.00
N891   N     0.04759   0.50001   0.75001   0.00000  Uiso   1.00
N892   N     0.28574   0.49999   0.74999   0.00000  Uiso   1.00
O893   O     0.12846   0.56108   0.75001   0.00000  Uiso   1.00
O894   O     0.13902   0.42488   0.64320   0.00000  Uiso   1.00
O895   O     0.08102   0.48542   0.64292   0.00000  Uiso   1.00
O896   O     0.18580   0.42038   0.93413   0.00000  Uiso   1.00
O897   O     0.15399   0.41437   0.87206   0.00000  Uiso   1.00
O898   O     0.23680   0.45149   0.85359   0.00000  Uiso   1.00
O899   O     0.20488   0.43892   0.75000   0.00000  Uiso   1.00
O900   O     0.20490   0.56107   0.75000   0.00000  Uiso   1.00
O901   O     0.12843   0.43893   0.75000   0.00000  Uiso   1.00
O902   O     0.10661   0.50001   0.81612   0.00000  Uiso   1.00
O903   O     0.22672   0.49999   0.68388   0.00000  Uiso   1.00
O904   O     0.18305   0.50000   0.81612   0.00000  Uiso   1.00
O905   O     0.15028   0.50000   0.68388   0.00000  Uiso   1.00
O906   O     0.12073   0.43525   0.57348   0.00000  Uiso   1.00
S907   S     0.13022   0.45715   0.61217   0.00000  Uiso   1.00
S908   S     0.18101   0.44228   0.89329   0.00000  Uiso   1.00
Zn909  Zn    0.11562   0.50001   0.75000   0.00000  Uiso   1.00
Zn910  Zn    0.21771   0.49999   0.75000   0.00000  Uiso   1.00
C911   C     0.50000   0.58002   0.75008   0.00000  Uiso   1.00
C912   C     0.46574   0.64528   0.73718   0.00000  Uiso   1.00
C913   C     0.49980   0.37585   0.75034   0.00000  Uiso   1.00
C914   C     0.49991   0.62418   0.75026   0.00000  Uiso   1.00
C915   C     0.64502   0.46382   0.74404   0.00000  Uiso   1.00
C916   C     0.35490   0.53615   0.75616   0.00000  Uiso   1.00
C917   C     0.35942   0.46379   0.74433   0.00000  Uiso   1.00
C918   C     0.64036   0.53613   0.75622   0.00000  Uiso   1.00
C919   C     0.46983   0.49977   0.83775   0.00000  Uiso   1.00
C920   C     0.53016   0.49803   0.66211   0.00000  Uiso   1.00
C921   C     0.45184   0.50395   0.88777   0.00000  Uiso   1.00
C922   C     0.49992   0.41999   0.75011   0.00000  Uiso   1.00
C923   C     0.54861   0.49524   0.61152   0.00000  Uiso   1.00
C924   C     0.39934   0.53967   0.95654   0.00000  Uiso   1.00
C925   C     0.61496   0.49929   0.53695   0.00000  Uiso   1.00
C926   C     0.41068   0.52841   0.91050   0.00000  Uiso   1.00
C927   C     0.59856   0.49928   0.58523   0.00000  Uiso   1.00
C928   C     0.48127   0.48992   0.91131   0.00000  Uiso   1.00
C929   C     0.51570   0.49028   0.58876   0.00000  Uiso   1.00
C930   C     0.47547   0.50844   0.95401   0.00000  Uiso   1.00
C931   C     0.53105   0.50169   0.54213   0.00000  Uiso   1.00
C932   C     0.43136   0.52960   0.97870   0.00000  Uiso   1.00
C933   C     0.45232   0.53017   0.54664   0.00000  Uiso   1.00
C934   C     0.58127   0.50117   0.51501   0.00000  Uiso   1.00
C935   C     0.51167   0.50647   0.97335   0.00000  Uiso   1.00
C936   C     0.49764   0.51171   0.52134   0.00000  Uiso   1.00
C937   C     0.56175   0.50355   0.94605   0.00000  Uiso   1.00
C938   C     0.42032   0.54061   0.52495   0.00000  Uiso   1.00
C939   C     0.59640   0.50252   0.96675   0.00000  Uiso   1.00
C940   C     0.53391   0.64541   0.76355   0.00000  Uiso   1.00
C941   C     0.46568   0.35461   0.73724   0.00000  Uiso   1.00
C942   C     0.53385   0.35476   0.76361   0.00000  Uiso   1.00
H943   H     0.38665   0.55649   0.54453   0.00000  Uiso   1.00
H944   H     0.43944   0.37086   0.72662   0.00000  Uiso   1.00
H945   H     0.56001   0.37115   0.77432   0.00000  Uiso   1.00
H946   H     0.43953   0.62892   0.72653   0.00000  Uiso   1.00
H947   H     0.62903   0.43480   0.73907   0.00000  Uiso   1.00
H948   H     0.37088   0.56516   0.76116   0.00000  Uiso   1.00
H949   H     0.37918   0.43478   0.73943   0.00000  Uiso   1.00
H950   H     0.62053   0.56512   0.76130   0.00000  Uiso   1.00
H951   H     0.38620   0.46960   0.64141   0.00000  Uiso   1.00
H952   H     0.58371   0.42361   0.84235   0.00000  Uiso   1.00
H953   H     0.63471   0.50199   0.94514   0.00000  Uiso   1.00
H954   H     0.62488   0.50127   0.60185   0.00000  Uiso   1.00
H955   H     0.38788   0.53938   0.89245   0.00000  Uiso   1.00
H956   H     0.36679   0.55775   0.97411   0.00000  Uiso   1.00
H957   H     0.65359   0.49917   0.51707   0.00000  Uiso   1.00
H958   H     0.44313   0.53935   0.58234   0.00000  Uiso   1.00
H959   H     0.57446   0.50514   0.90876   0.00000  Uiso   1.00
H960   H     0.56012   0.62914   0.77421   0.00000  Uiso   1.00
N961   N     0.38093   0.50001   0.75001   0.00000  Uiso   1.00
N962   N     0.61907   0.49999   0.74999   0.00000  Uiso   1.00
O963   O     0.46179   0.56108   0.75001   0.00000  Uiso   1.00
O964   O     0.47236   0.42488   0.64320   0.00000  Uiso   1.00
O965   O     0.41435   0.48542   0.64292   0.00000  Uiso   1.00
O966   O     0.51914   0.42038   0.93413   0.00000  Uiso   1.00
O967   O     0.48732   0.41437   0.87206   0.00000  Uiso   1.00
O968   O     0.57013   0.45149   0.85359   0.00000  Uiso   1.00
O969   O     0.53821   0.43892   0.75000   0.00000  Uiso   1.00
O970   O     0.53823   0.56107   0.75000   0.00000  Uiso   1.00
O971   O     0.46177   0.43893   0.75000   0.00000  Uiso   1.00
O972   O     0.43994   0.50001   0.81612   0.00000  Uiso   1.00
O973   O     0.56006   0.49999   0.68388   0.00000  Uiso   1.00
O974   O     0.51639   0.50000   0.81612   0.00000  Uiso   1.00
O975   O     0.48361   0.50000   0.68388   0.00000  Uiso   1.00
O976   O     0.45406   0.43525   0.57348   0.00000  Uiso   1.00
S977   S     0.46355   0.45715   0.61217   0.00000  Uiso   1.00
S978   S     0.51434   0.44228   0.89329   0.00000  Uiso   1.00
Zn979  Zn    0.44896   0.50001   0.75000   0.00000  Uiso   1.00
Zn980  Zn    0.55104   0.49999   0.75000   0.00000  Uiso   1.00
C981   C     0.83333   0.58002   0.75008   0.00000  Uiso   1.00
C982   C     0.79907   0.64528   0.73718   0.00000  Uiso   1.00
C983   C     0.83314   0.37585   0.75034   0.00000  Uiso   1.00
C984   C     0.83324   0.62418   0.75026   0.00000  Uiso   1.00
C985   C     0.97835   0.46382   0.74404   0.00000  Uiso   1.00
C986   C     0.68824   0.53615   0.75616   0.00000  Uiso   1.00
C987   C     0.69275   0.46379   0.74433   0.00000  Uiso   1.00
C988   C     0.97370   0.53613   0.75622   0.00000  Uiso   1.00
C989   C     0.80316   0.49977   0.83775   0.00000  Uiso   1.00
C990   C     0.86349   0.49803   0.66211   0.00000  Uiso   1.00
C991   C     0.78517   0.50395   0.88777   0.00000  Uiso   1.00
C992   C     0.83326   0.41999   0.75011   0.00000  Uiso   1.00
C993   C     0.88195   0.49524   0.61152   0.00000  Uiso   1.00
C994   C     0.73268   0.53967   0.95654   0.00000  Uiso   1.00
C995   C     0.94829   0.49929   0.53695   0.00000  Uiso   1.00
C996   C     0.74401   0.52841   0.91050   0.00000  Uiso   1.00
C997   C     0.93189   0.49928   0.58523   0.00000  Uiso   1.00
C998   C     0.81461   0.48992   0.91131   0.00000  Uiso   1.00
C999   C     0.84903   0.49028   0.58876   0.00000  Uiso   1.00
C1000  C     0.80881   0.50844   0.95401   0.00000  Uiso   1.00
C1001  C     0.86438   0.50169   0.54213   0.00000  Uiso   1.00
C1002  C     0.76469   0.52960   0.97870   0.00000  Uiso   1.00
C1003  C     0.78566   0.53017   0.54664   0.00000  Uiso   1.00
C1004  C     0.91460   0.50117   0.51501   0.00000  Uiso   1.00
C1005  C     0.84500   0.50647   0.97335   0.00000  Uiso   1.00
C1006  C     0.83097   0.51171   0.52134   0.00000  Uiso   1.00
C1007  C     0.89509   0.50355   0.94605   0.00000  Uiso   1.00
C1008  C     0.75366   0.54061   0.52495   0.00000  Uiso   1.00
C1009  C     0.92973   0.50252   0.96675   0.00000  Uiso   1.00
C1010  C     0.86725   0.64541   0.76355   0.00000  Uiso   1.00
C1011  C     0.79901   0.35461   0.73724   0.00000  Uiso   1.00
C1012  C     0.86718   0.35476   0.76361   0.00000  Uiso   1.00
H1013  H     0.71998   0.55649   0.54453   0.00000  Uiso   1.00
H1014  H     0.77277   0.37086   0.72662   0.00000  Uiso   1.00
H1015  H     0.89334   0.37115   0.77432   0.00000  Uiso   1.00
H1016  H     0.77286   0.62892   0.72653   0.00000  Uiso   1.00
H1017  H     0.96236   0.43480   0.73907   0.00000  Uiso   1.00
H1018  H     0.70421   0.56516   0.76116   0.00000  Uiso   1.00
H1019  H     0.71251   0.43478   0.73943   0.00000  Uiso   1.00
H1020  H     0.95386   0.56512   0.76130   0.00000  Uiso   1.00
H1021  H     0.71954   0.46960   0.64141   0.00000  Uiso   1.00
H1022  H     0.91704   0.42361   0.84235   0.00000  Uiso   1.00
H1023  H     0.96804   0.50199   0.94514   0.00000  Uiso   1.00
H1024  H     0.95821   0.50127   0.60185   0.00000  Uiso   1.00
H1025  H     0.72121   0.53938   0.89245   0.00000  Uiso   1.00
H1026  H     0.70012   0.55775   0.97411   0.00000  Uiso   1.00
H1027  H     0.98693   0.49917   0.51707   0.00000  Uiso   1.00
H1028  H     0.77646   0.53935   0.58234   0.00000  Uiso   1.00
H1029  H     0.90780   0.50514   0.90876   0.00000  Uiso   1.00
H1030  H     0.89345   0.62914   0.77421   0.00000  Uiso   1.00
N1031  N     0.71426   0.50001   0.75001   0.00000  Uiso   1.00
N1032  N     0.95241   0.49999   0.74999   0.00000  Uiso   1.00
O1033  O     0.79512   0.56108   0.75001   0.00000  Uiso   1.00
O1034  O     0.80569   0.42488   0.64320   0.00000  Uiso   1.00
O1035  O     0.74768   0.48542   0.64292   0.00000  Uiso   1.00
O1036  O     0.85247   0.42038   0.93413   0.00000  Uiso   1.00
O1037  O     0.82066   0.41437   0.87206   0.00000  Uiso   1.00
O1038  O     0.90346   0.45149   0.85359   0.00000  Uiso   1.00
O1039  O     0.87154   0.43892   0.75000   0.00000  Uiso   1.00
O1040  O     0.87157   0.56107   0.75000   0.00000  Uiso   1.00
O1041  O     0.79510   0.43893   0.75000   0.00000  Uiso   1.00
O1042  O     0.77328   0.50001   0.81612   0.00000  Uiso   1.00
O1043  O     0.89339   0.49999   0.68388   0.00000  Uiso   1.00
O1044  O     0.84972   0.50000   0.81612   0.00000  Uiso   1.00
O1045  O     0.81695   0.50000   0.68388   0.00000  Uiso   1.00
O1046  O     0.78739   0.43525   0.57348   0.00000  Uiso   1.00
S1047  S     0.79689   0.45715   0.61217   0.00000  Uiso   1.00
S1048  S     0.84768   0.44228   0.89329   0.00000  Uiso   1.00
Zn1049 Zn    0.78229   0.50001   0.75000   0.00000  Uiso   1.00
Zn1050 Zn    0.88438   0.49999   0.75000   0.00000  Uiso   1.00
C1051  C     0.16666   0.91335   0.75008   0.00000  Uiso   1.00
C1052  C     0.13241   0.97861   0.73718   0.00000  Uiso   1.00
C1053  C     0.16647   0.70918   0.75034   0.00000  Uiso   1.00
C1054  C     0.16658   0.95751   0.75026   0.00000  Uiso   1.00
C1055  C     0.31168   0.79715   0.74404   0.00000  Uiso   1.00
C1056  C     0.02157   0.86949   0.75616   0.00000  Uiso   1.00
C1057  C     0.02608   0.79712   0.74433   0.00000  Uiso   1.00
C1058  C     0.30703   0.86946   0.75622   0.00000  Uiso   1.00
C1059  C     0.13649   0.83310   0.83775   0.00000  Uiso   1.00
C1060  C     0.19682   0.83137   0.66211   0.00000  Uiso   1.00
C1061  C     0.11850   0.83729   0.88777   0.00000  Uiso   1.00
C1062  C     0.16659   0.75332   0.75011   0.00000  Uiso   1.00
C1063  C     0.21528   0.82857   0.61152   0.00000  Uiso   1.00
C1064  C     0.06601   0.87300   0.95654   0.00000  Uiso   1.00
C1065  C     0.28163   0.83263   0.53695   0.00000  Uiso   1.00
C1066  C     0.07734   0.86174   0.91050   0.00000  Uiso   1.00
C1067  C     0.26522   0.83261   0.58523   0.00000  Uiso   1.00
C1068  C     0.14794   0.82325   0.91131   0.00000  Uiso   1.00
C1069  C     0.18236   0.82361   0.58876   0.00000  Uiso   1.00
C1070  C     0.14214   0.84178   0.95401   0.00000  Uiso   1.00
C1071  C     0.19772   0.83503   0.54213   0.00000  Uiso   1.00
C1072  C     0.09803   0.86293   0.97870   0.00000  Uiso   1.00
C1073  C     0.11899   0.86350   0.54664   0.00000  Uiso   1.00
C1074  C     0.24794   0.83450   0.51501   0.00000  Uiso   1.00
C1075  C     0.17833   0.83981   0.97335   0.00000  Uiso   1.00
C1076  C     0.16430   0.84504   0.52134   0.00000  Uiso   1.00
C1077  C     0.22842   0.83688   0.94605   0.00000  Uiso   1.00
C1078  C     0.08699   0.87394   0.52495   0.00000  Uiso   1.00
C1079  C     0.26306   0.83585   0.96675   0.00000  Uiso   1.00
C1080  C     0.20058   0.97874   0.76355   0.00000  Uiso   1.00
C1081  C     0.13235   0.68795   0.73724   0.00000  Uiso   1.00
C1082  C     0.20052   0.68809   0.76361   0.00000  Uiso   1.00
H1083  H     0.05332   0.88982   0.54453   0.00000  Uiso   1.00
H1084  H     0.10610   0.70419   0.72662   0.00000  Uiso   1.00
H1085  H     0.22667   0.70448   0.77432   0.00000  Uiso   1.00
H1086  H     0.10620   0.96226   0.72653   0.00000  Uiso   1.00
H1087  H     0.29570   0.76814   0.73907   0.00000  Uiso   1.00
H1088  H     0.03755   0.89850   0.76116   0.00000  Uiso   1.00
H1089  H     0.04584   0.76811   0.73943   0.00000  Uiso   1.00
H1090  H     0.28719   0.89845   0.76130   0.00000  Uiso   1.00
H1091  H     0.05287   0.80294   0.64141   0.00000  Uiso   1.00
H1092  H     0.25037   0.75694   0.84235   0.00000  Uiso   1.00
H1093  H     0.30137   0.83533   0.94514   0.00000  Uiso   1.00
H1094  H     0.29154   0.83460   0.60185   0.00000  Uiso   1.00
H1095  H     0.05455   0.87271   0.89245   0.00000  Uiso   1.00
H1096  H     0.03346   0.89108   0.97411   0.00000  Uiso   1.00
H1097  H     0.32026   0.83250   0.51707   0.00000  Uiso   1.00
H1098  H     0.10980   0.87269   0.58234   0.00000  Uiso   1.00
H1099  H     0.24113   0.83847   0.90876   0.00000  Uiso   1.00
H1100  H     0.22678   0.96247   0.77421   0.00000  Uiso   1.00
N1101  N     0.04759   0.83334   0.75001   0.00000  Uiso   1.00
N1102  N     0.28574   0.83332   0.74999   0.00000  Uiso   1.00
O1103  O     0.12846   0.89442   0.75001   0.00000  Uiso   1.00
O1104  O     0.13902   0.75821   0.64320   0.00000  Uiso   1.00
O1105  O     0.08102   0.81875   0.64292   0.00000  Uiso   1.00
O1106  O     0.18580   0.75371   0.93413   0.00000  Uiso   1.00
O1107  O     0.15399   0.74771   0.87206   0.00000  Uiso   1.00
O1108  O     0.23680   0.78483   0.85359   0.00000  Uiso   1.00
O1109  O     0.20488   0.77225   0.75000   0.00000  Uiso   1.00
O1110  O     0.20490   0.89441   0.75000   0.00000  Uiso   1.00
O1111  O     0.12843   0.77226   0.75000   0.00000  Uiso   1.00
O1112  O     0.10661   0.83334   0.81612   0.00000  Uiso   1.00
O1113  O     0.22672   0.83333   0.68388   0.00000  Uiso   1.00
O1114  O     0.18305   0.83333   0.81612   0.00000  Uiso   1.00
O1115  O     0.15028   0.83334   0.68388   0.00000  Uiso   1.00
O1116  O     0.12073   0.76858   0.57348   0.00000  Uiso   1.00
S1117  S     0.13022   0.79048   0.61217   0.00000  Uiso   1.00
S1118  S     0.18101   0.77561   0.89329   0.00000  Uiso   1.00
Zn1119 Zn    0.11562   0.83334   0.75000   0.00000  Uiso   1.00
Zn1120 Zn    0.21771   0.83333   0.75000   0.00000  Uiso   1.00
C1121  C     0.50000   0.91335   0.75008   0.00000  Uiso   1.00
C1122  C     0.46574   0.97861   0.73718   0.00000  Uiso   1.00
C1123  C     0.49980   0.70918   0.75034   0.00000  Uiso   1.00
C1124  C     0.49991   0.95751   0.75026   0.00000  Uiso   1.00
C1125  C     0.64502   0.79715   0.74404   0.00000  Uiso   1.00
C1126  C     0.35490   0.86949   0.75616   0.00000  Uiso   1.00
C1127  C     0.35942   0.79712   0.74433   0.00000  Uiso   1.00
C1128  C     0.64036   0.86946   0.75622   0.00000  Uiso   1.00
C1129  C     0.46983   0.83310   0.83775   0.00000  Uiso   1.00
C1130  C     0.53016   0.83137   0.66211   0.00000  Uiso   1.00
C1131  C     0.45184   0.83729   0.88777   0.00000  Uiso   1.00
C1132  C     0.49992   0.75332   0.75011   0.00000  Uiso   1.00
C1133  C     0.54861   0.82857   0.61152   0.00000  Uiso   1.00
C1134  C     0.39934   0.87300   0.95654   0.00000  Uiso   1.00
C1135  C     0.61496   0.83263   0.53695   0.00000  Uiso   1.00
C1136  C     0.41068   0.86174   0.91050   0.00000  Uiso   1.00
C1137  C     0.59856   0.83261   0.58523   0.00000  Uiso   1.00
C1138  C     0.48127   0.82325   0.91131   0.00000  Uiso   1.00
C1139  C     0.51570   0.82361   0.58876   0.00000  Uiso   1.00
C1140  C     0.47547   0.84178   0.95401   0.00000  Uiso   1.00
C1141  C     0.53105   0.83503   0.54213   0.00000  Uiso   1.00
C1142  C     0.43136   0.86293   0.97870   0.00000  Uiso   1.00
C1143  C     0.45232   0.86350   0.54664   0.00000  Uiso   1.00
C1144  C     0.58127   0.83450   0.51501   0.00000  Uiso   1.00
C1145  C     0.51167   0.83981   0.97335   0.00000  Uiso   1.00
C1146  C     0.49764   0.84504   0.52134   0.00000  Uiso   1.00
C1147  C     0.56175   0.83688   0.94605   0.00000  Uiso   1.00
C1148  C     0.42032   0.87394   0.52495   0.00000  Uiso   1.00
C1149  C     0.59640   0.83585   0.96675   0.00000  Uiso   1.00
C1150  C     0.53391   0.97874   0.76355   0.00000  Uiso   1.00
C1151  C     0.46568   0.68795   0.73724   0.00000  Uiso   1.00
C1152  C     0.53385   0.68809   0.76361   0.00000  Uiso   1.00
H1153  H     0.38665   0.88982   0.54453   0.00000  Uiso   1.00
H1154  H     0.43944   0.70419   0.72662   0.00000  Uiso   1.00
H1155  H     0.56001   0.70448   0.77432   0.00000  Uiso   1.00
H1156  H     0.43953   0.96226   0.72653   0.00000  Uiso   1.00
H1157  H     0.62903   0.76814   0.73907   0.00000  Uiso   1.00
H1158  H     0.37088   0.89850   0.76116   0.00000  Uiso   1.00
H1159  H     0.37918   0.76811   0.73943   0.00000  Uiso   1.00
H1160  H     0.62053   0.89845   0.76130   0.00000  Uiso   1.00
H1161  H     0.38620   0.80294   0.64141   0.00000  Uiso   1.00
H1162  H     0.58371   0.75694   0.84235   0.00000  Uiso   1.00
H1163  H     0.63471   0.83533   0.94514   0.00000  Uiso   1.00
H1164  H     0.62488   0.83460   0.60185   0.00000  Uiso   1.00
H1165  H     0.38788   0.87271   0.89245   0.00000  Uiso   1.00
H1166  H     0.36679   0.89108   0.97411   0.00000  Uiso   1.00
H1167  H     0.65359   0.83250   0.51707   0.00000  Uiso   1.00
H1168  H     0.44313   0.87269   0.58234   0.00000  Uiso   1.00
H1169  H     0.57446   0.83847   0.90876   0.00000  Uiso   1.00
H1170  H     0.56012   0.96247   0.77421   0.00000  Uiso   1.00
N1171  N     0.38093   0.83334   0.75001   0.00000  Uiso   1.00
N1172  N     0.61907   0.83332   0.74999   0.00000  Uiso   1.00
O1173  O     0.46179   0.89442   0.75001   0.00000  Uiso   1.00
O1174  O     0.47236   0.75821   0.64320   0.00000  Uiso   1.00
O1175  O     0.41435   0.81875   0.64292   0.00000  Uiso   1.00
O1176  O     0.51914   0.75371   0.93413   0.00000  Uiso   1.00
O1177  O     0.48732   0.74771   0.87206   0.00000  Uiso   1.00
O1178  O     0.57013   0.78483   0.85359   0.00000  Uiso   1.00
O1179  O     0.53821   0.77225   0.75000   0.00000  Uiso   1.00
O1180  O     0.53823   0.89441   0.75000   0.00000  Uiso   1.00
O1181  O     0.46177   0.77226   0.75000   0.00000  Uiso   1.00
O1182  O     0.43994   0.83334   0.81612   0.00000  Uiso   1.00
O1183  O     0.56006   0.83333   0.68388   0.00000  Uiso   1.00
O1184  O     0.51639   0.83333   0.81612   0.00000  Uiso   1.00
O1185  O     0.48361   0.83334   0.68388   0.00000  Uiso   1.00
O1186  O     0.45406   0.76858   0.57348   0.00000  Uiso   1.00
S1187  S     0.46355   0.79048   0.61217   0.00000  Uiso   1.00
S1188  S     0.51434   0.77561   0.89329   0.00000  Uiso   1.00
Zn1189 Zn    0.44896   0.83334   0.75000   0.00000  Uiso   1.00
Zn1190 Zn    0.55104   0.83333   0.75000   0.00000  Uiso   1.00
C1191  C     0.83333   0.91335   0.75008   0.00000  Uiso   1.00
C1192  C     0.79907   0.97861   0.73718   0.00000  Uiso   1.00
C1193  C     0.83314   0.70918   0.75034   0.00000  Uiso   1.00
C1194  C     0.83324   0.95751   0.75026   0.00000  Uiso   1.00
C1195  C     0.97835   0.79715   0.74404   0.00000  Uiso   1.00
C1196  C     0.68824   0.86949   0.75616   0.00000  Uiso   1.00
C1197  C     0.69275   0.79712   0.74433   0.00000  Uiso   1.00
C1198  C     0.97370   0.86946   0.75622   0.00000  Uiso   1.00
C1199  C     0.80316   0.83310   0.83775   0.00000  Uiso   1.00
C1200  C     0.86349   0.83137   0.66211   0.00000  Uiso   1.00
C1201  C     0.78517   0.83729   0.88777   0.00000  Uiso   1.00
C1202  C     0.83326   0.75332   0.75011   0.00000  Uiso   1.00
C1203  C     0.88195   0.82857   0.61152   0.00000  Uiso   1.00
C1204  C     0.73268   0.87300   0.95654   0.00000  Uiso   1.00
C1205  C     0.94829   0.83263   0.53695   0.00000  Uiso   1.00
C1206  C     0.74401   0.86174   0.91050   0.00000  Uiso   1.00
C1207  C     0.93189   0.83261   0.58523   0.00000  Uiso   1.00
C1208  C     0.81461   0.82325   0.91131   0.00000  Uiso   1.00
C1209  C     0.84903   0.82361   0.58876   0.00000  Uiso   1.00
C1210  C     0.80881   0.84178   0.95401   0.00000  Uiso   1.00
C1211  C     0.86438   0.83503   0.54213   0.00000  Uiso   1.00
C1212  C     0.76469   0.86293   0.97870   0.00000  Uiso   1.00
C1213  C     0.78566   0.86350   0.54664   0.00000  Uiso   1.00
C1214  C     0.91460   0.83450   0.51501   0.00000  Uiso   1.00
C1215  C     0.84500   0.83981   0.97335   0.00000  Uiso   1.00
C1216  C     0.83097   0.84504   0.52134   0.00000  Uiso   1.00
C1217  C     0.89509   0.83688   0.94605   0.00000  Uiso   1.00
C1218  C     0.75366   0.87394   0.52495   0.00000  Uiso   1.00
C1219  C     0.92973   0.83585   0.96675   0.00000  Uiso   1.00
C1220  C     0.86725   0.97874   0.76355   0.00000  Uiso   1.00
C1221  C     0.79901   0.68795   0.73724   0.00000  Uiso   1.00
C1222  C     0.86718   0.68809   0.76361   0.00000  Uiso   1.00
H1223  H     0.71998   0.88982   0.54453   0.00000  Uiso   1.00
H1224  H     0.77277   0.70419   0.72662   0.00000  Uiso   1.00
H1225  H     0.89334   0.70448   0.77432   0.00000  Uiso   1.00
H1226  H     0.77286   0.96226   0.72653   0.00000  Uiso   1.00
H1227  H     0.96236   0.76814   0.73907   0.00000  Uiso   1.00
H1228  H     0.70421   0.89850   0.76116   0.00000  Uiso   1.00
H1229  H     0.71251   0.76811   0.73943   0.00000  Uiso   1.00
H1230  H     0.95386   0.89845   0.76130   0.00000  Uiso   1.00
H1231  H     0.71954   0.80294   0.64141   0.00000  Uiso   1.00
H1232  H     0.91704   0.75694   0.84235   0.00000  Uiso   1.00
H1233  H     0.96804   0.83533   0.94514   0.00000  Uiso   1.00
H1234  H     0.95821   0.83460   0.60185   0.00000  Uiso   1.00
H1235  H     0.72121   0.87271   0.89245   0.00000  Uiso   1.00
H1236  H     0.70012   0.89108   0.97411   0.00000  Uiso   1.00
H1237  H     0.98693   0.83250   0.51707   0.00000  Uiso   1.00
H1238  H     0.77646   0.87269   0.58234   0.00000  Uiso   1.00
H1239  H     0.90780   0.83847   0.90876   0.00000  Uiso   1.00
H1240  H     0.89345   0.96247   0.77421   0.00000  Uiso   1.00
N1241  N     0.71426   0.83334   0.75001   0.00000  Uiso   1.00
N1242  N     0.95241   0.83332   0.74999   0.00000  Uiso   1.00
O1243  O     0.79512   0.89442   0.75001   0.00000  Uiso   1.00
O1244  O     0.80569   0.75821   0.64320   0.00000  Uiso   1.00
O1245  O     0.74768   0.81875   0.64292   0.00000  Uiso   1.00
O1246  O     0.85247   0.75371   0.93413   0.00000  Uiso   1.00
O1247  O     0.82066   0.74771   0.87206   0.00000  Uiso   1.00
O1248  O     0.90346   0.78483   0.85359   0.00000  Uiso   1.00
O1249  O     0.87154   0.77225   0.75000   0.00000  Uiso   1.00
O1250  O     0.87157   0.89441   0.75000   0.00000  Uiso   1.00
O1251  O     0.79510   0.77226   0.75000   0.00000  Uiso   1.00
O1252  O     0.77328   0.83334   0.81612   0.00000  Uiso   1.00
O1253  O     0.89339   0.83333   0.68388   0.00000  Uiso   1.00
O1254  O     0.84972   0.83333   0.81612   0.00000  Uiso   1.00
O1255  O     0.81695   0.83334   0.68388   0.00000  Uiso   1.00
O1256  O     0.78739   0.76858   0.57348   0.00000  Uiso   1.00
S1257  S     0.79689   0.79048   0.61217   0.00000  Uiso   1.00
S1258  S     0.84768   0.77561   0.89329   0.00000  Uiso   1.00
Zn1259 Zn    0.78229   0.83334   0.75000   0.00000  Uiso   1.00
Zn1260 Zn    0.88438   0.83333   0.75000   0.00000  Uiso   1.00
loop_
_geom_bond_atom_site_label_1
_geom_bond_atom_site_label_2
_geom_bond_distance
_geom_bond_site_symmetry_2
_ccdc_geom_bond_type
C1     C4      1.418   .     S
C1     O60     1.284   .     A
C1     O53     1.283   .     A
C2     C4      1.397   .     A
C2     H36     1.084   .     S
C2     C241    1.370   .     S
C3     C31     1.396   .     A
C3     C32     1.397   .     A
C3     C12     1.417   .     S
C4     C30     1.397   .     A
C5     H37     1.081   .     S
C5     N52     1.367   .     A
C5     C77     1.415   .     S
C6     H38     1.081   .     S
C6     N51     1.367   .     A
C6     C148    1.415   1_455 S
C7     N51     1.367   .     A
C7     H39     1.080   .     S
C7     C145    1.415   1_455 S
C8     N52     1.367   .     A
C8     H40     1.080   .     S
C8     C76     1.415   .     S
C9     O64     1.290   .     A
C9     C11     1.451   .     S
C9     O62     1.293   .     A
C10    O63     1.298   .     A
C10    O65     1.292   .     A
C10    C13     1.464   .     S
C11    C18     1.403   .     A
C11    C16     1.401   .     A
C12    O61     1.284   .     A
C12    O59     1.283   .     A
C13    C17     1.406   .     A
C13    C19     1.407   .     A
C14    C22     1.399   .     A
C14    C16     1.390   .     A
C14    H46     1.084   .     S
C15    C24     1.401   .     A
C15    C17     1.396   .     A
C15    H47     1.080   .     S
C16    H45     1.083   .     S
C17    H44     1.083   .     S
C18    S68     1.790   .     S
C18    C20     1.404   .     A
C19    S67     1.792   .     S
C19    C21     1.398   .     A
C20    C22     1.419   .     A
C20    C25     1.409   .     A
C21    C26     1.404   .     A
C21    C24     1.412   .     A
C22    C658    1.396   .     S
C23    H48     1.081   .     S
C23    C28     1.391   .     A
C23    C26     1.410   .     A
C24    C659    1.398   1_554 S
C25    C27     1.413   .     A
C25    C656    1.402   .     S
C26    C655    1.402   1_554 S
C27    C29     1.397   .     A
C27    H49     1.079   .     S
C28    H33     1.084   .     S
C28    C652    1.396   1_554 S
C29    H43     1.083   .     S
C29    C654    1.398   .     S
C30    H50     1.084   .     S
C30    C242    1.371   .     S
C31    H34     1.083   .     S
C31    C422    1.370   1_545 S
C32    H35     1.084   .     S
C32    C450    1.371   1_545 S
H41    O55     0.990   .     S
H42    O58     0.990   .     S
N51    Zn69    2.012   .     S
N52    Zn70    2.012   .     S
O53    Zn69    1.997   .     S
O54    S67     1.503   .     D
O55    S67     1.682   .     S
O56    S68     1.504   .     D
O57    S68     1.504   .     D
O58    S68     1.682   .     S
O59    Zn70    1.997   .     S
O60    Zn70    1.998   .     S
O61    Zn69    1.998   .     S
O62    Zn69    1.972   .     S
O63    Zn70    1.972   .     S
O64    Zn70    1.928   .     S
O65    Zn69    1.928   .     S
O66    S67     1.504   .     D
C71    C74     1.418   .     S
C71    O130    1.284   .     A
C71    O123    1.283   .     A
C72    C74     1.397   .     A
C72    H106    1.084   .     S
C72    C311    1.370   .     S
C73    C101    1.396   .     A
C73    C102    1.397   .     A
C73    C82     1.417   .     S
C74    C100    1.397   .     A
C75    H107    1.081   .     S
C75    N122    1.367   .     A
C75    C147    1.415   .     S
C76    H108    1.081   .     S
C76    N121    1.367   .     A
C77    N121    1.367   .     A
C77    H109    1.080   .     S
C78    N122    1.367   .     A
C78    H110    1.080   .     S
C78    C146    1.415   .     S
C79    O134    1.290   .     A
C79    C81     1.451   .     S
C79    O132    1.293   .     A
C80    O133    1.298   .     A
C80    O135    1.292   .     A
C80    C83     1.464   .     S
C81    C88     1.403   .     A
C81    C86     1.401   .     A
C82    O131    1.284   .     A
C82    O129    1.283   .     A
C83    C87     1.406   .     A
C83    C89     1.407   .     A
C84    C92     1.399   .     A
C84    C86     1.390   .     A
C84    H116    1.084   .     S
C85    C94     1.401   .     A
C85    C87     1.396   .     A
C85    H117    1.080   .     S
C86    H115    1.083   .     S
C87    H114    1.083   .     S
C88    S138    1.790   .     S
C88    C90     1.404   .     A
C89    S137    1.792   .     S
C89    C91     1.398   .     A
C90    C92     1.419   .     A
C90    C95     1.409   .     A
C91    C96     1.404   .     A
C91    C94     1.412   .     A
C92    C728    1.396   .     S
C93    H118    1.081   .     S
C93    C98     1.391   .     A
C93    C96     1.410   .     A
C94    C729    1.398   1_554 S
C95    C97     1.413   .     A
C95    C726    1.402   .     S
C96    C725    1.402   1_554 S
C97    C99     1.397   .     A
C97    H119    1.079   .     S
C98    H103    1.084   .     S
C98    C722    1.396   1_554 S
C99    H113    1.083   .     S
C99    C724    1.398   .     S
C100   H120    1.084   .     S
C100   C312    1.371   .     S
C101   H104    1.083   .     S
C101   C492    1.370   1_545 S
C102   H105    1.084   .     S
C102   C520    1.371   1_545 S
H111   O125    0.990   .     S
H112   O128    0.990   .     S
N121   Zn139   2.012   .     S
N122   Zn140   2.012   .     S
O123   Zn139   1.997   .     S
O124   S137    1.503   .     D
O125   S137    1.682   .     S
O126   S138    1.504   .     D
O127   S138    1.504   .     D
O128   S138    1.682   .     S
O129   Zn140   1.997   .     S
O130   Zn140   1.998   .     S
O131   Zn139   1.998   .     S
O132   Zn139   1.972   .     S
O133   Zn140   1.972   .     S
O134   Zn140   1.928   .     S
O135   Zn139   1.928   .     S
O136   S137    1.504   .     D
C141   C144    1.418   .     S
C141   O200    1.284   .     A
C141   O193    1.283   .     A
C142   C144    1.397   .     A
C142   H176    1.084   .     S
C142   C381    1.370   .     S
C143   C171    1.396   .     A
C143   C172    1.397   .     A
C143   C152    1.417   .     S
C144   C170    1.397   .     A
C145   H177    1.081   .     S
C145   N192    1.367   .     A
C145   C7      1.415   1_655 S
C146   H178    1.081   .     S
C146   N191    1.367   .     A
C147   N191    1.367   .     A
C147   H179    1.080   .     S
C148   N192    1.367   .     A
C148   H180    1.080   .     S
C148   C6      1.415   1_655 S
C149   O204    1.290   .     A
C149   C151    1.451   .     S
C149   O202    1.293   .     A
C150   O203    1.298   .     A
C150   O205    1.292   .     A
C150   C153    1.464   .     S
C151   C158    1.403   .     A
C151   C156    1.401   .     A
C152   O201    1.284   .     A
C152   O199    1.283   .     A
C153   C157    1.406   .     A
C153   C159    1.407   .     A
C154   C162    1.399   .     A
C154   C156    1.390   .     A
C154   H186    1.084   .     S
C155   C164    1.401   .     A
C155   C157    1.396   .     A
C155   H187    1.080   .     S
C156   H185    1.083   .     S
C157   H184    1.083   .     S
C158   S208    1.790   .     S
C158   C160    1.404   .     A
C159   S207    1.792   .     S
C159   C161    1.398   .     A
C160   C162    1.419   .     A
C160   C165    1.409   .     A
C161   C166    1.404   .     A
C161   C164    1.412   .     A
C162   C798    1.396   .     S
C163   H188    1.081   .     S
C163   C168    1.391   .     A
C163   C166    1.410   .     A
C164   C799    1.398   1_554 S
C165   C167    1.413   .     A
C165   C796    1.402   .     S
C166   C795    1.402   1_554 S
C167   C169    1.397   .     A
C167   H189    1.079   .     S
C168   H173    1.084   .     S
C168   C792    1.396   1_554 S
C169   H183    1.083   .     S
C169   C794    1.398   .     S
C170   H190    1.084   .     S
C170   C382    1.371   .     S
C171   H174    1.083   .     S
C171   C562    1.370   1_545 S
C172   H175    1.084   .     S
C172   C590    1.371   1_545 S
H181   O195    0.990   .     S
H182   O198    0.990   .     S
N191   Zn209   2.012   .     S
N192   Zn210   2.012   .     S
O193   Zn209   1.997   .     S
O194   S207    1.503   .     D
O195   S207    1.682   .     S
O196   S208    1.504   .     D
O197   S208    1.504   .     D
O198   S208    1.682   .     S
O199   Zn210   1.997   .     S
O200   Zn210   1.998   .     S
O201   Zn209   1.998   .     S
O202   Zn209   1.972   .     S
O203   Zn210   1.972   .     S
O204   Zn210   1.928   .     S
O205   Zn209   1.928   .     S
O206   S207    1.504   .     D
C211   C214    1.418   .     S
C211   O270    1.284   .     A
C211   O263    1.283   .     A
C212   C214    1.397   .     A
C212   H246    1.084   .     S
C212   C451    1.370   .     S
C213   C241    1.396   .     A
C213   C242    1.397   .     A
C213   C222    1.417   .     S
C214   C240    1.397   .     A
C215   H247    1.081   .     S
C215   N262    1.367   .     A
C215   C287    1.415   .     S
C216   H248    1.081   .     S
C216   N261    1.367   .     A
C216   C358    1.415   1_455 S
C217   N261    1.367   .     A
C217   H249    1.080   .     S
C217   C355    1.415   1_455 S
C218   N262    1.367   .     A
C218   H250    1.080   .     S
C218   C286    1.415   .     S
C219   O274    1.290   .     A
C219   C221    1.451   .     S
C219   O272    1.293   .     A
C220   O273    1.298   .     A
C220   O275    1.292   .     A
C220   C223    1.464   .     S
C221   C228    1.403   .     A
C221   C226    1.401   .     A
C222   O271    1.284   .     A
C222   O269    1.283   .     A
C223   C227    1.406   .     A
C223   C229    1.407   .     A
C224   C232    1.399   .     A
C224   C226    1.390   .     A
C224   H256    1.084   .     S
C225   C234    1.401   .     A
C225   C227    1.396   .     A
C225   H257    1.080   .     S
C226   H255    1.083   .     S
C227   H254    1.083   .     S
C228   S278    1.790   .     S
C228   C230    1.404   .     A
C229   S277    1.792   .     S
C229   C231    1.398   .     A
C230   C232    1.419   .     A
C230   C235    1.409   .     A
C231   C236    1.404   .     A
C231   C234    1.412   .     A
C232   C868    1.396   .     S
C233   H258    1.081   .     S
C233   C238    1.391   .     A
C233   C236    1.410   .     A
C234   C869    1.398   1_554 S
C235   C237    1.413   .     A
C235   C866    1.402   .     S
C236   C865    1.402   1_554 S
C237   C239    1.397   .     A
C237   H259    1.079   .     S
C238   H243    1.084   .     S
C238   C862    1.396   1_554 S
C239   H253    1.083   .     S
C239   C864    1.398   .     S
C240   H260    1.084   .     S
C240   C452    1.371   .     S
C241   H244    1.083   .     S
C242   H245    1.084   .     S
H251   O265    0.990   .     S
H252   O268    0.990   .     S
N261   Zn279   2.012   .     S
N262   Zn280   2.012   .     S
O263   Zn279   1.997   .     S
O264   S277    1.503   .     D
O265   S277    1.682   .     S
O266   S278    1.504   .     D
O267   S278    1.504   .     D
O268   S278    1.682   .     S
O269   Zn280   1.997   .     S
O270   Zn280   1.998   .     S
O271   Zn279   1.998   .     S
O272   Zn279   1.972   .     S
O273   Zn280   1.972   .     S
O274   Zn280   1.928   .     S
O275   Zn279   1.928   .     S
O276   S277    1.504   .     D
C281   C284    1.418   .     S
C281   O340    1.284   .     A
C281   O333    1.283   .     A
C282   C284    1.397   .     A
C282   H316    1.084   .     S
C282   C521    1.370   .     S
C283   C311    1.396   .     A
C283   C312    1.397   .     A
C283   C292    1.417   .     S
C284   C310    1.397   .     A
C285   H317    1.081   .     S
C285   N332    1.367   .     A
C285   C357    1.415   .     S
C286   H318    1.081   .     S
C286   N331    1.367   .     A
C287   N331    1.367   .     A
C287   H319    1.080   .     S
C288   N332    1.367   .     A
C288   H320    1.080   .     S
C288   C356    1.415   .     S
C289   O344    1.290   .     A
C289   C291    1.451   .     S
C289   O342    1.293   .     A
C290   O343    1.298   .     A
C290   O345    1.292   .     A
C290   C293    1.464   .     S
C291   C298    1.403   .     A
C291   C296    1.401   .     A
C292   O341    1.284   .     A
C292   O339    1.283   .     A
C293   C297    1.406   .     A
C293   C299    1.407   .     A
C294   C302    1.399   .     A
C294   C296    1.390   .     A
C294   H326    1.084   .     S
C295   C304    1.401   .     A
C295   C297    1.396   .     A
C295   H327    1.080   .     S
C296   H325    1.083   .     S
C297   H324    1.083   .     S
C298   S348    1.790   .     S
C298   C300    1.404   .     A
C299   S347    1.792   .     S
C299   C301    1.398   .     A
C300   C302    1.419   .     A
C300   C305    1.409   .     A
C301   C306    1.404   .     A
C301   C304    1.412   .     A
C302   C938    1.396   .     S
C303   H328    1.081   .     S
C303   C308    1.391   .     A
C303   C306    1.410   .     A
C304   C939    1.398   1_554 S
C305   C307    1.413   .     A
C305   C936    1.402   .     S
C306   C935    1.402   1_554 S
C307   C309    1.397   .     A
C307   H329    1.079   .     S
C308   H313    1.084   .     S
C308   C932    1.396   1_554 S
C309   H323    1.083   .     S
C309   C934    1.398   .     S
C310   H330    1.084   .     S
C310   C522    1.371   .     S
C311   H314    1.083   .     S
C312   H315    1.084   .     S
H321   O335    0.990   .     S
H322   O338    0.990   .     S
N331   Zn349   2.012   .     S
N332   Zn350   2.012   .     S
O333   Zn349   1.997   .     S
O334   S347    1.503   .     D
O335   S347    1.682   .     S
O336   S348    1.504   .     D
O337   S348    1.504   .     D
O338   S348    1.682   .     S
O339   Zn350   1.997   .     S
O340   Zn350   1.998   .     S
O341   Zn349   1.998   .     S
O342   Zn349   1.972   .     S
O343   Zn350   1.972   .     S
O344   Zn350   1.928   .     S
O345   Zn349   1.928   .     S
O346   S347    1.504   .     D
C351   C354    1.418   .     S
C351   O410    1.284   .     A
C351   O403    1.283   .     A
C352   C354    1.397   .     A
C352   H386    1.084   .     S
C352   C591    1.370   .     S
C353   C381    1.396   .     A
C353   C382    1.397   .     A
C353   C362    1.417   .     S
C354   C380    1.397   .     A
C355   H387    1.081   .     S
C355   N402    1.367   .     A
C355   C217    1.415   1_655 S
C356   H388    1.081   .     S
C356   N401    1.367   .     A
C357   N401    1.367   .     A
C357   H389    1.080   .     S
C358   N402    1.367   .     A
C358   H390    1.080   .     S
C358   C216    1.415   1_655 S
C359   O414    1.290   .     A
C359   C361    1.451   .     S
C359   O412    1.293   .     A
C360   O413    1.298   .     A
C360   O415    1.292   .     A
C360   C363    1.464   .     S
C361   C368    1.403   .     A
C361   C366    1.401   .     A
C362   O411    1.284   .     A
C362   O409    1.283   .     A
C363   C367    1.406   .     A
C363   C369    1.407   .     A
C364   C372    1.399   .     A
C364   C366    1.390   .     A
C364   H396    1.084   .     S
C365   C374    1.401   .     A
C365   C367    1.396   .     A
C365   H397    1.080   .     S
C366   H395    1.083   .     S
C367   H394    1.083   .     S
C368   S418    1.790   .     S
C368   C370    1.404   .     A
C369   S417    1.792   .     S
C369   C371    1.398   .     A
C370   C372    1.419   .     A
C370   C375    1.409   .     A
C371   C376    1.404   .     A
C371   C374    1.412   .     A
C372   C1008   1.396   .     S
C373   H398    1.081   .     S
C373   C378    1.391   .     A
C373   C376    1.410   .     A
C374   C1009   1.398   1_554 S
C375   C377    1.413   .     A
C375   C1006   1.402   .     S
C376   C1005   1.402   1_554 S
C377   C379    1.397   .     A
C377   H399    1.079   .     S
C378   H383    1.084   .     S
C378   C1002   1.396   1_554 S
C379   H393    1.083   .     S
C379   C1004   1.398   .     S
C380   H400    1.084   .     S
C380   C592    1.371   .     S
C381   H384    1.083   .     S
C382   H385    1.084   .     S
H391   O405    0.990   .     S
H392   O408    0.990   .     S
N401   Zn419   2.012   .     S
N402   Zn420   2.012   .     S
O403   Zn419   1.997   .     S
O404   S417    1.503   .     D
O405   S417    1.682   .     S
O406   S418    1.504   .     D
O407   S418    1.504   .     D
O408   S418    1.682   .     S
O409   Zn420   1.997   .     S
O410   Zn420   1.998   .     S
O411   Zn419   1.998   .     S
O412   Zn419   1.972   .     S
O413   Zn420   1.972   .     S
O414   Zn420   1.928   .     S
O415   Zn419   1.928   .     S
O416   S417    1.504   .     D
C421   C424    1.418   .     S
C421   O480    1.284   .     A
C421   O473    1.283   .     A
C422   C424    1.397   .     A
C422   H456    1.084   .     S
C422   C31     1.370   1_565 S
C423   C451    1.396   .     A
C423   C452    1.397   .     A
C423   C432    1.417   .     S
C424   C450    1.397   .     A
C425   H457    1.081   .     S
C425   N472    1.367   .     A
C425   C497    1.415   .     S
C426   H458    1.081   .     S
C426   N471    1.367   .     A
C426   C568    1.415   1_455 S
C427   N471    1.367   .     A
C427   H459    1.080   .     S
C427   C565    1.415   1_455 S
C428   N472    1.367   .     A
C428   H460    1.080   .     S
C428   C496    1.415   .     S
C429   O484    1.290   .     A
C429   C431    1.451   .     S
C429   O482    1.293   .     A
C430   O483    1.298   .     A
C430   O485    1.292   .     A
C430   C433    1.464   .     S
C431   C438    1.403   .     A
C431   C436    1.401   .     A
C432   O481    1.284   .     A
C432   O479    1.283   .     A
C433   C437    1.406   .     A
C433   C439    1.407   .     A
C434   C442    1.399   .     A
C434   C436    1.390   .     A
C434   H466    1.084   .     S
C435   C444    1.401   .     A
C435   C437    1.396   .     A
C435   H467    1.080   .     S
C436   H465    1.083   .     S
C437   H464    1.083   .     S
C438   S488    1.790   .     S
C438   C440    1.404   .     A
C439   S487    1.792   .     S
C439   C441    1.398   .     A
C440   C442    1.419   .     A
C440   C445    1.409   .     A
C441   C446    1.404   .     A
C441   C444    1.412   .     A
C442   C1078   1.396   .     S
C443   H468    1.081   .     S
C443   C448    1.391   .     A
C443   C446    1.410   .     A
C444   C1079   1.398   1_554 S
C445   C447    1.413   .     A
C445   C1076   1.402   .     S
C446   C1075   1.402   1_554 S
C447   C449    1.397   .     A
C447   H469    1.079   .     S
C448   H453    1.084   .     S
C448   C1072   1.396   1_554 S
C449   H463    1.083   .     S
C449   C1074   1.398   .     S
C450   H470    1.084   .     S
C450   C32     1.371   1_565 S
C451   H454    1.083   .     S
C452   H455    1.084   .     S
H461   O475    0.990   .     S
H462   O478    0.990   .     S
N471   Zn489   2.012   .     S
N472   Zn490   2.012   .     S
O473   Zn489   1.997   .     S
O474   S487    1.503   .     D
O475   S487    1.682   .     S
O476   S488    1.504   .     D
O477   S488    1.504   .     D
O478   S488    1.682   .     S
O479   Zn490   1.997   .     S
O480   Zn490   1.998   .     S
O481   Zn489   1.998   .     S
O482   Zn489   1.972   .     S
O483   Zn490   1.972   .     S
O484   Zn490   1.928   .     S
O485   Zn489   1.928   .     S
O486   S487    1.504   .     D
C491   C494    1.418   .     S
C491   O550    1.284   .     A
C491   O543    1.283   .     A
C492   C494    1.397   .     A
C492   H526    1.084   .     S
C492   C101    1.370   1_565 S
C493   C521    1.396   .     A
C493   C522    1.397   .     A
C493   C502    1.417   .     S
C494   C520    1.397   .     A
C495   H527    1.081   .     S
C495   N542    1.367   .     A
C495   C567    1.415   .     S
C496   H528    1.081   .     S
C496   N541    1.367   .     A
C497   N541    1.367   .     A
C497   H529    1.080   .     S
C498   N542    1.367   .     A
C498   H530    1.080   .     S
C498   C566    1.415   .     S
C499   O554    1.290   .     A
C499   C501    1.451   .     S
C499   O552    1.293   .     A
C500   O553    1.298   .     A
C500   O555    1.292   .     A
C500   C503    1.464   .     S
C501   C508    1.403   .     A
C501   C506    1.401   .     A
C502   O551    1.284   .     A
C502   O549    1.283   .     A
C503   C507    1.406   .     A
C503   C509    1.407   .     A
C504   C512    1.399   .     A
C504   C506    1.390   .     A
C504   H536    1.084   .     S
C505   C514    1.401   .     A
C505   C507    1.396   .     A
C505   H537    1.080   .     S
C506   H535    1.083   .     S
C507   H534    1.083   .     S
C508   S558    1.790   .     S
C508   C510    1.404   .     A
C509   S557    1.792   .     S
C509   C511    1.398   .     A
C510   C512    1.419   .     A
C510   C515    1.409   .     A
C511   C516    1.404   .     A
C511   C514    1.412   .     A
C512   C1148   1.396   .     S
C513   H538    1.081   .     S
C513   C518    1.391   .     A
C513   C516    1.410   .     A
C514   C1149   1.398   1_554 S
C515   C517    1.413   .     A
C515   C1146   1.402   .     S
C516   C1145   1.402   1_554 S
C517   C519    1.397   .     A
C517   H539    1.079   .     S
C518   H523    1.084   .     S
C518   C1142   1.396   1_554 S
C519   H533    1.083   .     S
C519   C1144   1.398   .     S
C520   H540    1.084   .     S
C520   C102    1.371   1_565 S
C521   H524    1.083   .     S
C522   H525    1.084   .     S
H531   O545    0.990   .     S
H532   O548    0.990   .     S
N541   Zn559   2.012   .     S
N542   Zn560   2.012   .     S
O543   Zn559   1.997   .     S
O544   S557    1.503   .     D
O545   S557    1.682   .     S
O546   S558    1.504   .     D
O547   S558    1.504   .     D
O548   S558    1.682   .     S
O549   Zn560   1.997   .     S
O550   Zn560   1.998   .     S
O551   Zn559   1.998   .     S
O552   Zn559   1.972   .     S
O553   Zn560   1.972   .     S
O554   Zn560   1.928   .     S
O555   Zn559   1.928   .     S
O556   S557    1.504   .     D
C561   C564    1.418   .     S
C561   O620    1.284   .     A
C561   O613    1.283   .     A
C562   C564    1.397   .     A
C562   H596    1.084   .     S
C562   C171    1.370   1_565 S
C563   C591    1.396   .     A
C563   C592    1.397   .     A
C563   C572    1.417   .     S
C564   C590    1.397   .     A
C565   H597    1.081   .     S
C565   N612    1.367   .     A
C565   C427    1.415   1_655 S
C566   H598    1.081   .     S
C566   N611    1.367   .     A
C567   N611    1.367   .     A
C567   H599    1.080   .     S
C568   N612    1.367   .     A
C568   H600    1.080   .     S
C568   C426    1.415   1_655 S
C569   O624    1.290   .     A
C569   C571    1.451   .     S
C569   O622    1.293   .     A
C570   O623    1.298   .     A
C570   O625    1.292   .     A
C570   C573    1.464   .     S
C571   C578    1.403   .     A
C571   C576    1.401   .     A
C572   O621    1.284   .     A
C572   O619    1.283   .     A
C573   C577    1.406   .     A
C573   C579    1.407   .     A
C574   C582    1.399   .     A
C574   C576    1.390   .     A
C574   H606    1.084   .     S
C575   C584    1.401   .     A
C575   C577    1.396   .     A
C575   H607    1.080   .     S
C576   H605    1.083   .     S
C577   H604    1.083   .     S
C578   S628    1.790   .     S
C578   C580    1.404   .     A
C579   S627    1.792   .     S
C579   C581    1.398   .     A
C580   C582    1.419   .     A
C580   C585    1.409   .     A
C581   C586    1.404   .     A
C581   C584    1.412   .     A
C582   C1218   1.396   .     S
C583   H608    1.081   .     S
C583   C588    1.391   .     A
C583   C586    1.410   .     A
C584   C1219   1.398   1_554 S
C585   C587    1.413   .     A
C585   C1216   1.402   .     S
C586   C1215   1.402   1_554 S
C587   C589    1.397   .     A
C587   H609    1.079   .     S
C588   H593    1.084   .     S
C588   C1212   1.396   1_554 S
C589   H603    1.083   .     S
C589   C1214   1.398   .     S
C590   H610    1.084   .     S
C590   C172    1.371   1_565 S
C591   H594    1.083   .     S
C592   H595    1.084   .     S
H601   O615    0.990   .     S
H602   O618    0.990   .     S
N611   Zn629   2.012   .     S
N612   Zn630   2.012   .     S
O613   Zn629   1.997   .     S
O614   S627    1.503   .     D
O615   S627    1.682   .     S
O616   S628    1.504   .     D
O617   S628    1.504   .     D
O618   S628    1.682   .     S
O619   Zn630   1.997   .     S
O620   Zn630   1.998   .     S
O621   Zn629   1.998   .     S
O622   Zn629   1.972   .     S
O623   Zn630   1.972   .     S
O624   Zn630   1.928   .     S
O625   Zn629   1.928   .     S
O626   S627    1.504   .     D
C631   C634    1.418   .     S
C631   O690    1.284   .     A
C631   O683    1.283   .     A
C632   C634    1.397   .     A
C632   H666    1.084   .     S
C632   C871    1.370   .     S
C633   C661    1.396   .     A
C633   C662    1.397   .     A
C633   C642    1.417   .     S
C634   C660    1.397   .     A
C635   H667    1.081   .     S
C635   N682    1.367   .     A
C635   C707    1.415   .     S
C636   H668    1.081   .     S
C636   N681    1.367   .     A
C636   C778    1.415   1_455 S
C637   N681    1.367   .     A
C637   H669    1.080   .     S
C637   C775    1.415   1_455 S
C638   N682    1.367   .     A
C638   H670    1.080   .     S
C638   C706    1.415   .     S
C639   O694    1.290   .     A
C639   C641    1.451   .     S
C639   O692    1.293   .     A
C640   O693    1.298   .     A
C640   O695    1.292   .     A
C640   C643    1.464   .     S
C641   C648    1.403   .     A
C641   C646    1.401   .     A
C642   O691    1.284   .     A
C642   O689    1.283   .     A
C643   C647    1.406   .     A
C643   C649    1.407   .     A
C644   C652    1.399   .     A
C644   C646    1.390   .     A
C644   H676    1.084   .     S
C645   C654    1.401   .     A
C645   C647    1.396   .     A
C645   H677    1.080   .     S
C646   H675    1.083   .     S
C647   H674    1.083   .     S
C648   S698    1.790   .     S
C648   C650    1.404   .     A
C649   S697    1.792   .     S
C649   C651    1.398   .     A
C650   C652    1.419   .     A
C650   C655    1.409   .     A
C651   C656    1.404   .     A
C651   C654    1.412   .     A
C652   C28     1.396   1_556 S
C653   H678    1.081   .     S
C653   C658    1.391   .     A
C653   C656    1.410   .     A
C655   C657    1.413   .     A
C655   C26     1.402   1_556 S
C657   C659    1.397   .     A
C657   H679    1.079   .     S
C658   H663    1.084   .     S
C659   H673    1.083   .     S
C659   C24     1.398   1_556 S
C660   H680    1.084   .     S
C660   C872    1.371   .     S
C661   H664    1.083   .     S
C661   C1052   1.370   1_545 S
C662   H665    1.084   .     S
C662   C1080   1.371   1_545 S
H671   O685    0.990   .     S
H672   O688    0.990   .     S
N681   Zn699   2.012   .     S
N682   Zn700   2.012   .     S
O683   Zn699   1.997   .     S
O684   S697    1.503   .     D
O685   S697    1.682   .     S
O686   S698    1.504   .     D
O687   S698    1.504   .     D
O688   S698    1.682   .     S
O689   Zn700   1.997   .     S
O690   Zn700   1.998   .     S
O691   Zn699   1.998   .     S
O692   Zn699   1.972   .     S
O693   Zn700   1.972   .     S
O694   Zn700   1.928   .     S
O695   Zn699   1.928   .     S
O696   S697    1.504   .     D
C701   C704    1.418   .     S
C701   O760    1.284   .     A
C701   O753    1.283   .     A
C702   C704    1.397   .     A
C702   H736    1.084   .     S
C702   C941    1.370   .     S
C703   C731    1.396   .     A
C703   C732    1.397   .     A
C703   C712    1.417   .     S
C704   C730    1.397   .     A
C705   H737    1.081   .     S
C705   N752    1.367   .     A
C705   C777    1.415   .     S
C706   H738    1.081   .     S
C706   N751    1.367   .     A
C707   N751    1.367   .     A
C707   H739    1.080   .     S
C708   N752    1.367   .     A
C708   H740    1.080   .     S
C708   C776    1.415   .     S
C709   O764    1.290   .     A
C709   C711    1.451   .     S
C709   O762    1.293   .     A
C710   O763    1.298   .     A
C710   O765    1.292   .     A
C710   C713    1.464   .     S
C711   C718    1.403   .     A
C711   C716    1.401   .     A
C712   O761    1.284   .     A
C712   O759    1.283   .     A
C713   C717    1.406   .     A
C713   C719    1.407   .     A
C714   C722    1.399   .     A
C714   C716    1.390   .     A
C714   H746    1.084   .     S
C715   C724    1.401   .     A
C715   C717    1.396   .     A
C715   H747    1.080   .     S
C716   H745    1.083   .     S
C717   H744    1.083   .     S
C718   S768    1.790   .     S
C718   C720    1.404   .     A
C719   S767    1.792   .     S
C719   C721    1.398   .     A
C720   C722    1.419   .     A
C720   C725    1.409   .     A
C721   C726    1.404   .     A
C721   C724    1.412   .     A
C722   C98     1.396   1_556 S
C723   H748    1.081   .     S
C723   C728    1.391   .     A
C723   C726    1.410   .     A
C725   C727    1.413   .     A
C725   C96     1.402   1_556 S
C727   C729    1.397   .     A
C727   H749    1.079   .     S
C728   H733    1.084   .     S
C729   H743    1.083   .     S
C729   C94     1.398   1_556 S
C730   H750    1.084   .     S
C730   C942    1.371   .     S
C731   H734    1.083   .     S
C731   C1122   1.370   1_545 S
C732   H735    1.084   .     S
C732   C1150   1.371   1_545 S
H741   O755    0.990   .     S
H742   O758    0.990   .     S
N751   Zn769   2.012   .     S
N752   Zn770   2.012   .     S
O753   Zn769   1.997   .     S
O754   S767    1.503   .     D
O755   S767    1.682   .     S
O756   S768    1.504   .     D
O757   S768    1.504   .     D
O758   S768    1.682   .     S
O759   Zn770   1.997   .     S
O760   Zn770   1.998   .     S
O761   Zn769   1.998   .     S
O762   Zn769   1.972   .     S
O763   Zn770   1.972   .     S
O764   Zn770   1.928   .     S
O765   Zn769   1.928   .     S
O766   S767    1.504   .     D
C771   C774    1.418   .     S
C771   O830    1.284   .     A
C771   O823    1.283   .     A
C772   C774    1.397   .     A
C772   H806    1.084   .     S
C772   C1011   1.370   .     S
C773   C801    1.396   .     A
C773   C802    1.397   .     A
C773   C782    1.417   .     S
C774   C800    1.397   .     A
C775   H807    1.081   .     S
C775   N822    1.367   .     A
C775   C637    1.415   1_655 S
C776   H808    1.081   .     S
C776   N821    1.367   .     A
C777   N821    1.367   .     A
C777   H809    1.080   .     S
C778   N822    1.367   .     A
C778   H810    1.080   .     S
C778   C636    1.415   1_655 S
C779   O834    1.290   .     A
C779   C781    1.451   .     S
C779   O832    1.293   .     A
C780   O833    1.298   .     A
C780   O835    1.292   .     A
C780   C783    1.464   .     S
C781   C788    1.403   .     A
C781   C786    1.401   .     A
C782   O831    1.284   .     A
C782   O829    1.283   .     A
C783   C787    1.406   .     A
C783   C789    1.407   .     A
C784   C792    1.399   .     A
C784   C786    1.390   .     A
C784   H816    1.084   .     S
C785   C794    1.401   .     A
C785   C787    1.396   .     A
C785   H817    1.080   .     S
C786   H815    1.083   .     S
C787   H814    1.083   .     S
C788   S838    1.790   .     S
C788   C790    1.404   .     A
C789   S837    1.792   .     S
C789   C791    1.398   .     A
C790   C792    1.419   .     A
C790   C795    1.409   .     A
C791   C796    1.404   .     A
C791   C794    1.412   .     A
C792   C168    1.396   1_556 S
C793   H818    1.081   .     S
C793   C798    1.391   .     A
C793   C796    1.410   .     A
C795   C797    1.413   .     A
C795   C166    1.402   1_556 S
C797   C799    1.397   .     A
C797   H819    1.079   .     S
C798   H803    1.084   .     S
C799   H813    1.083   .     S
C799   C164    1.398   1_556 S
C800   H820    1.084   .     S
C800   C1012   1.371   .     S
C801   H804    1.083   .     S
C801   C1192   1.370   1_545 S
C802   H805    1.084   .     S
C802   C1220   1.371   1_545 S
H811   O825    0.990   .     S
H812   O828    0.990   .     S
N821   Zn839   2.012   .     S
N822   Zn840   2.012   .     S
O823   Zn839   1.997   .     S
O824   S837    1.503   .     D
O825   S837    1.682   .     S
O826   S838    1.504   .     D
O827   S838    1.504   .     D
O828   S838    1.682   .     S
O829   Zn840   1.997   .     S
O830   Zn840   1.998   .     S
O831   Zn839   1.998   .     S
O832   Zn839   1.972   .     S
O833   Zn840   1.972   .     S
O834   Zn840   1.928   .     S
O835   Zn839   1.928   .     S
O836   S837    1.504   .     D
C841   C844    1.418   .     S
C841   O900    1.284   .     A
C841   O893    1.283   .     A
C842   C844    1.397   .     A
C842   H876    1.084   .     S
C842   C1081   1.370   .     S
C843   C871    1.396   .     A
C843   C872    1.397   .     A
C843   C852    1.417   .     S
C844   C870    1.397   .     A
C845   H877    1.081   .     S
C845   N892    1.367   .     A
C845   C917    1.415   .     S
C846   H878    1.081   .     S
C846   N891    1.367   .     A
C846   C988    1.415   1_455 S
C847   N891    1.367   .     A
C847   H879    1.080   .     S
C847   C985    1.415   1_455 S
C848   N892    1.367   .     A
C848   H880    1.080   .     S
C848   C916    1.415   .     S
C849   O904    1.290   .     A
C849   C851    1.451   .     S
C849   O902    1.293   .     A
C850   O903    1.298   .     A
C850   O905    1.292   .     A
C850   C853    1.464   .     S
C851   C858    1.403   .     A
C851   C856    1.401   .     A
C852   O901    1.284   .     A
C852   O899    1.283   .     A
C853   C857    1.406   .     A
C853   C859    1.407   .     A
C854   C862    1.399   .     A
C854   C856    1.390   .     A
C854   H886    1.084   .     S
C855   C864    1.401   .     A
C855   C857    1.396   .     A
C855   H887    1.080   .     S
C856   H885    1.083   .     S
C857   H884    1.083   .     S
C858   S908    1.790   .     S
C858   C860    1.404   .     A
C859   S907    1.792   .     S
C859   C861    1.398   .     A
C860   C862    1.419   .     A
C860   C865    1.409   .     A
C861   C866    1.404   .     A
C861   C864    1.412   .     A
C862   C238    1.396   1_556 S
C863   H888    1.081   .     S
C863   C868    1.391   .     A
C863   C866    1.410   .     A
C865   C867    1.413   .     A
C865   C236    1.402   1_556 S
C867   C869    1.397   .     A
C867   H889    1.079   .     S
C868   H873    1.084   .     S
C869   H883    1.083   .     S
C869   C234    1.398   1_556 S
C870   H890    1.084   .     S
C870   C1082   1.371   .     S
C871   H874    1.083   .     S
C872   H875    1.084   .     S
H881   O895    0.990   .     S
H882   O898    0.990   .     S
N891   Zn909   2.012   .     S
N892   Zn910   2.012   .     S
O893   Zn909   1.997   .     S
O894   S907    1.503   .     D
O895   S907    1.682   .     S
O896   S908    1.504   .     D
O897   S908    1.504   .     D
O898   S908    1.682   .     S
O899   Zn910   1.997   .     S
O900   Zn910   1.998   .     S
O901   Zn909   1.998   .     S
O902   Zn909   1.972   .     S
O903   Zn910   1.972   .     S
O904   Zn910   1.928   .     S
O905   Zn909   1.928   .     S
O906   S907    1.504   .     D
C911   C914    1.418   .     S
C911   O970    1.284   .     A
C911   O963    1.283   .     A
C912   C914    1.397   .     A
C912   H946    1.084   .     S
C912   C1151   1.370   .     S
C913   C941    1.396   .     A
C913   C942    1.397   .     A
C913   C922    1.417   .     S
C914   C940    1.397   .     A
C915   H947    1.081   .     S
C915   N962    1.367   .     A
C915   C987    1.415   .     S
C916   H948    1.081   .     S
C916   N961    1.367   .     A
C917   N961    1.367   .     A
C917   H949    1.080   .     S
C918   N962    1.367   .     A
C918   H950    1.080   .     S
C918   C986    1.415   .     S
C919   O974    1.290   .     A
C919   C921    1.451   .     S
C919   O972    1.293   .     A
C920   O973    1.298   .     A
C920   O975    1.292   .     A
C920   C923    1.464   .     S
C921   C928    1.403   .     A
C921   C926    1.401   .     A
C922   O971    1.284   .     A
C922   O969    1.283   .     A
C923   C927    1.406   .     A
C923   C929    1.407   .     A
C924   C932    1.399   .     A
C924   C926    1.390   .     A
C924   H956    1.084   .     S
C925   C934    1.401   .     A
C925   C927    1.396   .     A
C925   H957    1.080   .     S
C926   H955    1.083   .     S
C927   H954    1.083   .     S
C928   S978    1.790   .     S
C928   C930    1.404   .     A
C929   S977    1.792   .     S
C929   C931    1.398   .     A
C930   C932    1.419   .     A
C930   C935    1.409   .     A
C931   C936    1.404   .     A
C931   C934    1.412   .     A
C932   C308    1.396   1_556 S
C933   H958    1.081   .     S
C933   C938    1.391   .     A
C933   C936    1.410   .     A
C935   C937    1.413   .     A
C935   C306    1.402   1_556 S
C937   C939    1.397   .     A
C937   H959    1.079   .     S
C938   H943    1.084   .     S
C939   H953    1.083   .     S
C939   C304    1.398   1_556 S
C940   H960    1.084   .     S
C940   C1152   1.371   .     S
C941   H944    1.083   .     S
C942   H945    1.084   .     S
H951   O965    0.990   .     S
H952   O968    0.990   .     S
N961   Zn979   2.012   .     S
N962   Zn980   2.012   .     S
O963   Zn979   1.997   .     S
O964   S977    1.503   .     D
O965   S977    1.682   .     S
O966   S978    1.504   .     D
O967   S978    1.504   .     D
O968   S978    1.682   .     S
O969   Zn980   1.997   .     S
O970   Zn980   1.998   .     S
O971   Zn979   1.998   .     S
O972   Zn979   1.972   .     S
O973   Zn980   1.972   .     S
O974   Zn980   1.928   .     S
O975   Zn979   1.928   .     S
O976   S977    1.504   .     D
C981   C984    1.418   .     S
C981   O1040   1.284   .     A
C981   O1033   1.283   .     A
C982   C984    1.397   .     A
C982   H1016   1.084   .     S
C982   C1221   1.370   .     S
C983   C1011   1.396   .     A
C983   C1012   1.397   .     A
C983   C992    1.417   .     S
C984   C1010   1.397   .     A
C985   H1017   1.081   .     S
C985   N1032   1.367   .     A
C985   C847    1.415   1_655 S
C986   H1018   1.081   .     S
C986   N1031   1.367   .     A
C987   N1031   1.367   .     A
C987   H1019   1.080   .     S
C988   N1032   1.367   .     A
C988   H1020   1.080   .     S
C988   C846    1.415   1_655 S
C989   O1044   1.290   .     A
C989   C991    1.451   .     S
C989   O1042   1.293   .     A
C990   O1043   1.298   .     A
C990   O1045   1.292   .     A
C990   C993    1.464   .     S
C991   C998    1.403   .     A
C991   C996    1.401   .     A
C992   O1041   1.284   .     A
C992   O1039   1.283   .     A
C993   C997    1.406   .     A
C993   C999    1.407   .     A
C994   C1002   1.399   .     A
C994   C996    1.390   .     A
C994   H1026   1.084   .     S
C995   C1004   1.401   .     A
C995   C997    1.396   .     A
C995   H1027   1.080   .     S
C996   H1025   1.083   .     S
C997   H1024   1.083   .     S
C998   S1048   1.790   .     S
C998   C1000   1.404   .     A
C999   S1047   1.792   .     S
C999   C1001   1.398   .     A
C1000  C1002   1.419   .     A
C1000  C1005   1.409   .     A
C1001  C1006   1.404   .     A
C1001  C1004   1.412   .     A
C1002  C378    1.396   1_556 S
C1003  H1028   1.081   .     S
C1003  C1008   1.391   .     A
C1003  C1006   1.410   .     A
C1005  C1007   1.413   .     A
C1005  C376    1.402   1_556 S
C1007  C1009   1.397   .     A
C1007  H1029   1.079   .     S
C1008  H1013   1.084   .     S
C1009  H1023   1.083   .     S
C1009  C374    1.398   1_556 S
C1010  H1030   1.084   .     S
C1010  C1222   1.371   .     S
C1011  H1014   1.083   .     S
C1012  H1015   1.084   .     S
H1021  O1035   0.990   .     S
H1022  O1038   0.990   .     S
N1031  Zn1049  2.012   .     S
N1032  Zn1050  2.012   .     S
O1033  Zn1049  1.997   .     S
O1034  S1047   1.503   .     D
O1035  S1047   1.682   .     S
O1036  S1048   1.504   .     D
O1037  S1048   1.504   .     D
O1038  S1048   1.682   .     S
O1039  Zn1050  1.997   .     S
O1040  Zn1050  1.998   .     S
O1041  Zn1049  1.998   .     S
O1042  Zn1049  1.972   .     S
O1043  Zn1050  1.972   .     S
O1044  Zn1050  1.928   .     S
O1045  Zn1049  1.928   .     S
O1046  S1047   1.504   .     D
C1051  C1054   1.418   .     S
C1051  O1110   1.284   .     A
C1051  O1103   1.283   .     A
C1052  C1054   1.397   .     A
C1052  H1086   1.084   .     S
C1052  C661    1.370   1_565 S
C1053  C1081   1.396   .     A
C1053  C1082   1.397   .     A
C1053  C1062   1.417   .     S
C1054  C1080   1.397   .     A
C1055  H1087   1.081   .     S
C1055  N1102   1.367   .     A
C1055  C1127   1.415   .     S
C1056  H1088   1.081   .     S
C1056  N1101   1.367   .     A
C1056  C1198   1.415   1_455 S
C1057  N1101   1.367   .     A
C1057  H1089   1.080   .     S
C1057  C1195   1.415   1_455 S
C1058  N1102   1.367   .     A
C1058  H1090   1.080   .     S
C1058  C1126   1.415   .     S
C1059  O1114   1.290   .     A
C1059  C1061   1.451   .     S
C1059  O1112   1.293   .     A
C1060  O1113   1.298   .     A
C1060  O1115   1.292   .     A
C1060  C1063   1.464   .     S
C1061  C1068   1.403   .     A
C1061  C1066   1.401   .     A
C1062  O1111   1.284   .     A
C1062  O1109   1.283   .     A
C1063  C1067   1.406   .     A
C1063  C1069   1.407   .     A
C1064  C1072   1.399   .     A
C1064  C1066   1.390   .     A
C1064  H1096   1.084   .     S
C1065  C1074   1.401   .     A
C1065  C1067   1.396   .     A
C1065  H1097   1.080   .     S
C1066  H1095   1.083   .     S
C1067  H1094   1.083   .     S
C1068  S1118   1.790   .     S
C1068  C1070   1.404   .     A
C1069  S1117   1.792   .     S
C1069  C1071   1.398   .     A
C1070  C1072   1.419   .     A
C1070  C1075   1.409   .     A
C1071  C1076   1.404   .     A
C1071  C1074   1.412   .     A
C1072  C448    1.396   1_556 S
C1073  H1098   1.081   .     S
C1073  C1078   1.391   .     A
C1073  C1076   1.410   .     A
C1075  C1077   1.413   .     A
C1075  C446    1.402   1_556 S
C1077  C1079   1.397   .     A
C1077  H1099   1.079   .     S
C1078  H1083   1.084   .     S
C1079  H1093   1.083   .     S
C1079  C444    1.398   1_556 S
C1080  H1100   1.084   .     S
C1080  C662    1.371   1_565 S
C1081  H1084   1.083   .     S
C1082  H1085   1.084   .     S
H1091  O1105   0.990   .     S
H1092  O1108   0.990   .     S
N1101  Zn1119  2.012   .     S
N1102  Zn1120  2.012   .     S
O1103  Zn1119  1.997   .     S
O1104  S1117   1.503   .     D
O1105  S1117   1.682   .     S
O1106  S1118   1.504   .     D
O1107  S1118   1.504   .     D
O1108  S1118   1.682   .     S
O1109  Zn1120  1.997   .     S
O1110  Zn1120  1.998   .     S
O1111  Zn1119  1.998   .     S
O1112  Zn1119  1.972   .     S
O1113  Zn1120  1.972   .     S
O1114  Zn1120  1.928   .     S
O1115  Zn1119  1.928   .     S
O1116  S1117   1.504   .     D
C1121  C1124   1.418   .     S
C1121  O1180   1.284   .     A
C1121  O1173   1.283   .     A
C1122  C1124   1.397   .     A
C1122  H1156   1.084   .     S
C1122  C731    1.370   1_565 S
C1123  C1151   1.396   .     A
C1123  C1152   1.397   .     A
C1123  C1132   1.417   .     S
C1124  C1150   1.397   .     A
C1125  H1157   1.081   .     S
C1125  N1172   1.367   .     A
C1125  C1197   1.415   .     S
C1126  H1158   1.081   .     S
C1126  N1171   1.367   .     A
C1127  N1171   1.367   .     A
C1127  H1159   1.080   .     S
C1128  N1172   1.367   .     A
C1128  H1160   1.080   .     S
C1128  C1196   1.415   .     S
C1129  O1184   1.290   .     A
C1129  C1131   1.451   .     S
C1129  O1182   1.293   .     A
C1130  O1183   1.298   .     A
C1130  O1185   1.292   .     A
C1130  C1133   1.464   .     S
C1131  C1138   1.403   .     A
C1131  C1136   1.401   .     A
C1132  O1181   1.284   .     A
C1132  O1179   1.283   .     A
C1133  C1137   1.406   .     A
C1133  C1139   1.407   .     A
C1134  C1142   1.399   .     A
C1134  C1136   1.390   .     A
C1134  H1166   1.084   .     S
C1135  C1144   1.401   .     A
C1135  C1137   1.396   .     A
C1135  H1167   1.080   .     S
C1136  H1165   1.083   .     S
C1137  H1164   1.083   .     S
C1138  S1188   1.790   .     S
C1138  C1140   1.404   .     A
C1139  S1187   1.792   .     S
C1139  C1141   1.398   .     A
C1140  C1142   1.419   .     A
C1140  C1145   1.409   .     A
C1141  C1146   1.404   .     A
C1141  C1144   1.412   .     A
C1142  C518    1.396   1_556 S
C1143  H1168   1.081   .     S
C1143  C1148   1.391   .     A
C1143  C1146   1.410   .     A
C1145  C1147   1.413   .     A
C1145  C516    1.402   1_556 S
C1147  C1149   1.397   .     A
C1147  H1169   1.079   .     S
C1148  H1153   1.084   .     S
C1149  H1163   1.083   .     S
C1149  C514    1.398   1_556 S
C1150  H1170   1.084   .     S
C1150  C732    1.371   1_565 S
C1151  H1154   1.083   .     S
C1152  H1155   1.084   .     S
H1161  O1175   0.990   .     S
H1162  O1178   0.990   .     S
N1171  Zn1189  2.012   .     S
N1172  Zn1190  2.012   .     S
O1173  Zn1189  1.997   .     S
O1174  S1187   1.503   .     D
O1175  S1187   1.682   .     S
O1176  S1188   1.504   .     D
O1177  S1188   1.504   .     D
O1178  S1188   1.682   .     S
O1179  Zn1190  1.997   .     S
O1180  Zn1190  1.998   .     S
O1181  Zn1189  1.998   .     S
O1182  Zn1189  1.972   .     S
O1183  Zn1190  1.972   .     S
O1184  Zn1190  1.928   .     S
O1185  Zn1189  1.928   .     S
O1186  S1187   1.504   .     D
C1191  C1194   1.418   .     S
C1191  O1250   1.284   .     A
C1191  O1243   1.283   .     A
C1192  C1194   1.397   .     A
C1192  H1226   1.084   .     S
C1192  C801    1.370   1_565 S
C1193  C1221   1.396   .     A
C1193  C1222   1.397   .     A
C1193  C1202   1.417   .     S
C1194  C1220   1.397   .     A
C1195  H1227   1.081   .     S
C1195  N1242   1.367   .     A
C1195  C1057   1.415   1_655 S
C1196  H1228   1.081   .     S
C1196  N1241   1.367   .     A
C1197  N1241   1.367   .     A
C1197  H1229   1.080   .     S
C1198  N1242   1.367   .     A
C1198  H1230   1.080   .     S
C1198  C1056   1.415   1_655 S
C1199  O1254   1.290   .     A
C1199  C1201   1.451   .     S
C1199  O1252   1.293   .     A
C1200  O1253   1.298   .     A
C1200  O1255   1.292   .     A
C1200  C1203   1.464   .     S
C1201  C1208   1.403   .     A
C1201  C1206   1.401   .     A
C1202  O1251   1.284   .     A
C1202  O1249   1.283   .     A
C1203  C1207   1.406   .     A
C1203  C1209   1.407   .     A
C1204  C1212   1.399   .     A
C1204  C1206   1.390   .     A
C1204  H1236   1.084   .     S
C1205  C1214   1.401   .     A
C1205  C1207   1.396   .     A
C1205  H1237   1.080   .     S
C1206  H1235   1.083   .     S
C1207  H1234   1.083   .     S
C1208  S1258   1.790   .     S
C1208  C1210   1.404   .     A
C1209  S1257   1.792   .     S
C1209  C1211   1.398   .     A
C1210  C1212   1.419   .     A
C1210  C1215   1.409   .     A
C1211  C1216   1.404   .     A
C1211  C1214   1.412   .     A
C1212  C588    1.396   1_556 S
C1213  H1238   1.081   .     S
C1213  C1218   1.391   .     A
C1213  C1216   1.410   .     A
C1215  C1217   1.413   .     A
C1215  C586    1.402   1_556 S
C1217  C1219   1.397   .     A
C1217  H1239   1.079   .     S
C1218  H1223   1.084   .     S
C1219  H1233   1.083   .     S
C1219  C584    1.398   1_556 S
C1220  H1240   1.084   .     S
C1220  C802    1.371   1_565 S
C1221  H1224   1.083   .     S
C1222  H1225   1.084   .     S
H1231  O1245   0.990   .     S
H1232  O1248   0.990   .     S
N1241  Zn1259  2.012   .     S
N1242  Zn1260  2.012   .     S
O1243  Zn1259  1.997   .     S
O1244  S1257   1.503   .     D
O1245  S1257   1.682   .     S
O1246  S1258   1.504   .     D
O1247  S1258   1.504   .     D
O1248  S1258   1.682   .     S
O1249  Zn1260  1.997   .     S
O1250  Zn1260  1.998   .     S
O1251  Zn1259  1.998   .     S
O1252  Zn1259  1.972   .     S
O1253  Zn1260  1.972   .     S
O1254  Zn1260  1.928   .     S
O1255  Zn1259  1.928   .     S
O1256  S1257   1.504   .     D
