data_str_m2_o10_o16_pcu_sym.49
_audit_creation_date              2020-01-03
_audit_creation_method            'Materials Studio'
_symmetry_space_group_name_H-M    'P1'
_symmetry_Int_Tables_number       1
_symmetry_cell_setting            triclinic
loop_
_symmetry_equiv_pos_as_xyz
  x,y,z
_cell_length_a                    22.4447
_cell_length_b                    26.1156
_cell_length_c                    26.7496
_cell_angle_alpha                 94.5115
_cell_angle_beta                  78.0388
_cell_angle_gamma                 102.5786
loop_
_atom_site_label
_atom_site_type_symbol
_atom_site_fract_x
_atom_site_fract_y
_atom_site_fract_z
_atom_site_U_iso_or_equiv
_atom_site_adp_type
_atom_site_occupancy
C1     C     0.18150   0.26658   0.25143   0.00000  Uiso   1.00
C2     C     0.11086   0.15955   0.40307   0.00000  Uiso   1.00
C3     C     0.18904   0.32242   0.25305   0.00000  Uiso   1.00
C4     C     0.13294   0.16406   0.34717   0.00000  Uiso   1.00
C5     C     0.14441   0.01121   0.24398   0.00000  Uiso   1.00
C6     C     0.15208   0.06686   0.24760   0.00000  Uiso   1.00
C7     C     0.20016   0.17059   0.15312   0.00000  Uiso   1.00
C8     C     0.28095   0.23877   0.03194   0.00000  Uiso   1.00
C9     C     0.21966   0.18101   0.09853   0.00000  Uiso   1.00
C10    C     0.05264   0.12744   0.42203   0.00000  Uiso   1.00
C11    C     0.03479   0.11734   0.47389   0.00000  Uiso   1.00
C12    C     0.13628   0.16559   0.48839   0.00000  Uiso   1.00
C13    C     0.07622   0.13541   0.00669   0.00000  Uiso   1.00
C14    C     0.32351   0.24107   0.32706   0.00000  Uiso   1.00
C15    C     0.14962   0.18293   0.43768   0.00000  Uiso   1.00
C16    C     0.18243   0.18153   0.01916   0.00000  Uiso   1.00
C17    C     0.23573   0.22118   0.00165   0.00000  Uiso   1.00
C18    C     0.24240   0.24367   0.45465   0.00000  Uiso   1.00
C19    C     0.19975   0.22488   0.42333   0.00000  Uiso   1.00
C20    C     0.17813   0.15916   0.06638   0.00000  Uiso   1.00
C21    C     0.27225   0.21961   0.08062   0.00000  Uiso   1.00
Cu22   Cu    0.10710   0.16105   0.24436   0.00000  Uiso   1.00
Cu23   Cu    0.22623   0.17228   0.25565   0.00000  Uiso   1.00
F24    F     0.31331   0.24091   0.11117   0.00000  Uiso   1.00
F25    F     0.09130   0.31628   0.23026   0.00000  Uiso   1.00
F26    F     0.32120   0.10747   0.21742   0.00000  Uiso   1.00
F27    F     0.33203   0.27649   0.01545   0.00000  Uiso   1.00
F28    F     0.13563   0.11485   0.08144   0.00000  Uiso   1.00
F29    F     0.01321   0.10517   0.39043   0.00000  Uiso   1.00
F30    F     0.31084   0.08839   0.49236   0.00000  Uiso   1.00
H31    H     0.28095   0.27569   0.44168   0.00000  Uiso   1.00
H32    H     0.05881   0.12750   0.04657   0.00000  Uiso   1.00
H33    H     0.20459   0.24466   0.38840   0.00000  Uiso   1.00
H34    H     0.23185   0.01242   0.26264   0.00000  Uiso   1.00
H35    H     0.30543   0.20607   0.35127   0.00000  Uiso   1.00
H36    H     0.28791   0.26471   0.32829   0.00000  Uiso   1.00
H37    H     0.02847   0.26625   0.34354   0.00000  Uiso   1.00
N38    N     0.31574   0.18074   0.26416   0.00000  Uiso   1.00
N39    N     0.01759   0.15259   0.23584   0.00000  Uiso   1.00
O40    O     0.12797   0.23807   0.24633   0.00000  Uiso   1.00
O41    O     0.22858   0.24755   0.25587   0.00000  Uiso   1.00
O42    O     0.09181   0.15960   0.31840   0.00000  Uiso   1.00
O43    O     0.19242   0.16908   0.32793   0.00000  Uiso   1.00
O44    O     0.10476   0.08578   0.24414   0.00000  Uiso   1.00
O45    O     0.20536   0.09526   0.25367   0.00000  Uiso   1.00
O46    O     0.14092   0.16425   0.17207   0.00000  Uiso   1.00
O47    O     0.24152   0.17373   0.18161   0.00000  Uiso   1.00
O48    O     0.01395   0.22841   0.27604   0.00000  Uiso   1.00
C49    C     0.51484   0.26658   0.25143   0.00000  Uiso   1.00
C50    C     0.44419   0.15955   0.40307   0.00000  Uiso   1.00
C51    C     0.52238   0.32242   0.25305   0.00000  Uiso   1.00
C52    C     0.46627   0.16406   0.34717   0.00000  Uiso   1.00
C53    C     0.47775   0.01121   0.24398   0.00000  Uiso   1.00
C54    C     0.48541   0.06686   0.24760   0.00000  Uiso   1.00
C55    C     0.53349   0.17059   0.15312   0.00000  Uiso   1.00
C56    C     0.61428   0.23877   0.03194   0.00000  Uiso   1.00
C57    C     0.55300   0.18101   0.09853   0.00000  Uiso   1.00
C58    C     0.38598   0.12744   0.42203   0.00000  Uiso   1.00
C59    C     0.36812   0.11734   0.47389   0.00000  Uiso   1.00
C60    C     0.46962   0.16559   0.48839   0.00000  Uiso   1.00
C61    C     0.40956   0.13541   0.00669   0.00000  Uiso   1.00
C62    C     0.65684   0.24107   0.32706   0.00000  Uiso   1.00
C63    C     0.48296   0.18293   0.43768   0.00000  Uiso   1.00
C64    C     0.51577   0.18153   0.01916   0.00000  Uiso   1.00
C65    C     0.56906   0.22118   0.00165   0.00000  Uiso   1.00
C66    C     0.57574   0.24367   0.45465   0.00000  Uiso   1.00
C67    C     0.53308   0.22488   0.42333   0.00000  Uiso   1.00
C68    C     0.51146   0.15916   0.06638   0.00000  Uiso   1.00
C69    C     0.60559   0.21961   0.08062   0.00000  Uiso   1.00
Cu70   Cu    0.44043   0.16105   0.24436   0.00000  Uiso   1.00
Cu71   Cu    0.55957   0.17228   0.25565   0.00000  Uiso   1.00
F72    F     0.64665   0.24091   0.11117   0.00000  Uiso   1.00
F73    F     0.42464   0.31628   0.23026   0.00000  Uiso   1.00
F74    F     0.65454   0.10747   0.21742   0.00000  Uiso   1.00
F75    F     0.66537   0.27649   0.01545   0.00000  Uiso   1.00
F76    F     0.46896   0.11485   0.08144   0.00000  Uiso   1.00
F77    F     0.34655   0.10517   0.39043   0.00000  Uiso   1.00
F78    F     0.64417   0.08839   0.49236   0.00000  Uiso   1.00
H79    H     0.61428   0.27569   0.44168   0.00000  Uiso   1.00
H80    H     0.39214   0.12750   0.04657   0.00000  Uiso   1.00
H81    H     0.53792   0.24466   0.38840   0.00000  Uiso   1.00
H82    H     0.56518   0.01242   0.26264   0.00000  Uiso   1.00
H83    H     0.63877   0.20607   0.35127   0.00000  Uiso   1.00
H84    H     0.62124   0.26471   0.32829   0.00000  Uiso   1.00
H85    H     0.36181   0.26625   0.34354   0.00000  Uiso   1.00
N86    N     0.64908   0.18074   0.26416   0.00000  Uiso   1.00
N87    N     0.35092   0.15259   0.23584   0.00000  Uiso   1.00
O88    O     0.46131   0.23807   0.24633   0.00000  Uiso   1.00
O89    O     0.56191   0.24755   0.25587   0.00000  Uiso   1.00
O90    O     0.42515   0.15960   0.31840   0.00000  Uiso   1.00
O91    O     0.52575   0.16908   0.32793   0.00000  Uiso   1.00
O92    O     0.43809   0.08578   0.24414   0.00000  Uiso   1.00
O93    O     0.53869   0.09526   0.25367   0.00000  Uiso   1.00
O94    O     0.47425   0.16425   0.17207   0.00000  Uiso   1.00
O95    O     0.57485   0.17373   0.18161   0.00000  Uiso   1.00
O96    O     0.34728   0.22841   0.27604   0.00000  Uiso   1.00
C97    C     0.84817   0.26658   0.25143   0.00000  Uiso   1.00
C98    C     0.77752   0.15955   0.40307   0.00000  Uiso   1.00
C99    C     0.85571   0.32242   0.25305   0.00000  Uiso   1.00
C100   C     0.79961   0.16406   0.34717   0.00000  Uiso   1.00
C101   C     0.81108   0.01121   0.24398   0.00000  Uiso   1.00
C102   C     0.81874   0.06686   0.24760   0.00000  Uiso   1.00
C103   C     0.86682   0.17059   0.15312   0.00000  Uiso   1.00
C104   C     0.94761   0.23877   0.03194   0.00000  Uiso   1.00
C105   C     0.88633   0.18101   0.09853   0.00000  Uiso   1.00
C106   C     0.71931   0.12744   0.42203   0.00000  Uiso   1.00
C107   C     0.70145   0.11734   0.47389   0.00000  Uiso   1.00
C108   C     0.80295   0.16559   0.48839   0.00000  Uiso   1.00
C109   C     0.74289   0.13541   0.00669   0.00000  Uiso   1.00
C110   C     0.99018   0.24107   0.32706   0.00000  Uiso   1.00
C111   C     0.81629   0.18293   0.43768   0.00000  Uiso   1.00
C112   C     0.84910   0.18153   0.01916   0.00000  Uiso   1.00
C113   C     0.90239   0.22118   0.00165   0.00000  Uiso   1.00
C114   C     0.90907   0.24367   0.45465   0.00000  Uiso   1.00
C115   C     0.86642   0.22488   0.42333   0.00000  Uiso   1.00
C116   C     0.84480   0.15916   0.06638   0.00000  Uiso   1.00
C117   C     0.93892   0.21961   0.08062   0.00000  Uiso   1.00
Cu118  Cu    0.77377   0.16105   0.24436   0.00000  Uiso   1.00
Cu119  Cu    0.89290   0.17228   0.25565   0.00000  Uiso   1.00
F120   F     0.97998   0.24091   0.11117   0.00000  Uiso   1.00
F121   F     0.75797   0.31628   0.23026   0.00000  Uiso   1.00
F122   F     0.98787   0.10747   0.21742   0.00000  Uiso   1.00
F123   F     0.99870   0.27649   0.01545   0.00000  Uiso   1.00
F124   F     0.80230   0.11485   0.08144   0.00000  Uiso   1.00
F125   F     0.67988   0.10517   0.39043   0.00000  Uiso   1.00
F126   F     0.97751   0.08839   0.49236   0.00000  Uiso   1.00
H127   H     0.94761   0.27569   0.44168   0.00000  Uiso   1.00
H128   H     0.72547   0.12750   0.04657   0.00000  Uiso   1.00
H129   H     0.87125   0.24466   0.38840   0.00000  Uiso   1.00
H130   H     0.89852   0.01242   0.26264   0.00000  Uiso   1.00
H131   H     0.97210   0.20607   0.35127   0.00000  Uiso   1.00
H132   H     0.95458   0.26471   0.32829   0.00000  Uiso   1.00
H133   H     0.69514   0.26625   0.34354   0.00000  Uiso   1.00
N134   N     0.98241   0.18074   0.26416   0.00000  Uiso   1.00
N135   N     0.68426   0.15259   0.23584   0.00000  Uiso   1.00
O136   O     0.79464   0.23807   0.24633   0.00000  Uiso   1.00
O137   O     0.89524   0.24755   0.25587   0.00000  Uiso   1.00
O138   O     0.75848   0.15960   0.31840   0.00000  Uiso   1.00
O139   O     0.85908   0.16908   0.32793   0.00000  Uiso   1.00
O140   O     0.77142   0.08578   0.24414   0.00000  Uiso   1.00
O141   O     0.87203   0.09526   0.25367   0.00000  Uiso   1.00
O142   O     0.80758   0.16425   0.17207   0.00000  Uiso   1.00
O143   O     0.90819   0.17373   0.18161   0.00000  Uiso   1.00
O144   O     0.68061   0.22841   0.27604   0.00000  Uiso   1.00
C145   C     0.18150   0.59992   0.25143   0.00000  Uiso   1.00
C146   C     0.11086   0.49288   0.40307   0.00000  Uiso   1.00
C147   C     0.18904   0.65575   0.25305   0.00000  Uiso   1.00
C148   C     0.13294   0.49740   0.34717   0.00000  Uiso   1.00
C149   C     0.14441   0.34454   0.24398   0.00000  Uiso   1.00
C150   C     0.15208   0.40019   0.24760   0.00000  Uiso   1.00
C151   C     0.20016   0.50392   0.15312   0.00000  Uiso   1.00
C152   C     0.28095   0.57210   0.03194   0.00000  Uiso   1.00
C153   C     0.21966   0.51434   0.09853   0.00000  Uiso   1.00
C154   C     0.05264   0.46078   0.42203   0.00000  Uiso   1.00
C155   C     0.03479   0.45068   0.47389   0.00000  Uiso   1.00
C156   C     0.13628   0.49892   0.48839   0.00000  Uiso   1.00
C157   C     0.07622   0.46874   0.00669   0.00000  Uiso   1.00
C158   C     0.32351   0.57441   0.32706   0.00000  Uiso   1.00
C159   C     0.14962   0.51626   0.43768   0.00000  Uiso   1.00
C160   C     0.18243   0.51486   0.01916   0.00000  Uiso   1.00
C161   C     0.23573   0.55451   0.00165   0.00000  Uiso   1.00
C162   C     0.24240   0.57701   0.45465   0.00000  Uiso   1.00
C163   C     0.19975   0.55821   0.42333   0.00000  Uiso   1.00
C164   C     0.17813   0.49249   0.06638   0.00000  Uiso   1.00
C165   C     0.27225   0.55294   0.08062   0.00000  Uiso   1.00
Cu166  Cu    0.10710   0.49439   0.24436   0.00000  Uiso   1.00
Cu167  Cu    0.22623   0.50561   0.25565   0.00000  Uiso   1.00
F168   F     0.31331   0.57424   0.11117   0.00000  Uiso   1.00
F169   F     0.09130   0.64962   0.23026   0.00000  Uiso   1.00
F170   F     0.32120   0.44080   0.21742   0.00000  Uiso   1.00
F171   F     0.33203   0.60982   0.01545   0.00000  Uiso   1.00
F172   F     0.13563   0.44819   0.08144   0.00000  Uiso   1.00
F173   F     0.01321   0.43851   0.39043   0.00000  Uiso   1.00
F174   F     0.31084   0.42172   0.49236   0.00000  Uiso   1.00
H175   H     0.28095   0.60903   0.44168   0.00000  Uiso   1.00
H176   H     0.05881   0.46083   0.04657   0.00000  Uiso   1.00
H177   H     0.20459   0.57799   0.38840   0.00000  Uiso   1.00
H178   H     0.23185   0.34575   0.26264   0.00000  Uiso   1.00
H179   H     0.30543   0.53940   0.35127   0.00000  Uiso   1.00
H180   H     0.28791   0.59804   0.32829   0.00000  Uiso   1.00
H181   H     0.02847   0.59958   0.34354   0.00000  Uiso   1.00
N182   N     0.31574   0.51407   0.26416   0.00000  Uiso   1.00
N183   N     0.01759   0.48593   0.23584   0.00000  Uiso   1.00
O184   O     0.12797   0.57141   0.24633   0.00000  Uiso   1.00
O185   O     0.22858   0.58089   0.25587   0.00000  Uiso   1.00
O186   O     0.09181   0.49293   0.31840   0.00000  Uiso   1.00
O187   O     0.19242   0.50241   0.32793   0.00000  Uiso   1.00
O188   O     0.10476   0.41911   0.24414   0.00000  Uiso   1.00
O189   O     0.20536   0.42859   0.25367   0.00000  Uiso   1.00
O190   O     0.14092   0.49759   0.17207   0.00000  Uiso   1.00
O191   O     0.24152   0.50707   0.18161   0.00000  Uiso   1.00
O192   O     0.01395   0.56174   0.27604   0.00000  Uiso   1.00
C193   C     0.51484   0.59992   0.25143   0.00000  Uiso   1.00
C194   C     0.44419   0.49288   0.40307   0.00000  Uiso   1.00
C195   C     0.52238   0.65575   0.25305   0.00000  Uiso   1.00
C196   C     0.46627   0.49740   0.34717   0.00000  Uiso   1.00
C197   C     0.47775   0.34454   0.24398   0.00000  Uiso   1.00
C198   C     0.48541   0.40019   0.24760   0.00000  Uiso   1.00
C199   C     0.53349   0.50392   0.15312   0.00000  Uiso   1.00
C200   C     0.61428   0.57210   0.03194   0.00000  Uiso   1.00
C201   C     0.55300   0.51434   0.09853   0.00000  Uiso   1.00
C202   C     0.38598   0.46078   0.42203   0.00000  Uiso   1.00
C203   C     0.36812   0.45068   0.47389   0.00000  Uiso   1.00
C204   C     0.46962   0.49892   0.48839   0.00000  Uiso   1.00
C205   C     0.40956   0.46874   0.00669   0.00000  Uiso   1.00
C206   C     0.65684   0.57441   0.32706   0.00000  Uiso   1.00
C207   C     0.48296   0.51626   0.43768   0.00000  Uiso   1.00
C208   C     0.51577   0.51486   0.01916   0.00000  Uiso   1.00
C209   C     0.56906   0.55451   0.00165   0.00000  Uiso   1.00
C210   C     0.57574   0.57701   0.45465   0.00000  Uiso   1.00
C211   C     0.53308   0.55821   0.42333   0.00000  Uiso   1.00
C212   C     0.51146   0.49249   0.06638   0.00000  Uiso   1.00
C213   C     0.60559   0.55294   0.08062   0.00000  Uiso   1.00
Cu214  Cu    0.44043   0.49439   0.24436   0.00000  Uiso   1.00
Cu215  Cu    0.55957   0.50561   0.25565   0.00000  Uiso   1.00
F216   F     0.64665   0.57424   0.11117   0.00000  Uiso   1.00
F217   F     0.42464   0.64962   0.23026   0.00000  Uiso   1.00
F218   F     0.65454   0.44080   0.21742   0.00000  Uiso   1.00
F219   F     0.66537   0.60982   0.01545   0.00000  Uiso   1.00
F220   F     0.46896   0.44819   0.08144   0.00000  Uiso   1.00
F221   F     0.34655   0.43851   0.39043   0.00000  Uiso   1.00
F222   F     0.64417   0.42172   0.49236   0.00000  Uiso   1.00
H223   H     0.61428   0.60903   0.44168   0.00000  Uiso   1.00
H224   H     0.39214   0.46083   0.04657   0.00000  Uiso   1.00
H225   H     0.53792   0.57799   0.38840   0.00000  Uiso   1.00
H226   H     0.56518   0.34575   0.26264   0.00000  Uiso   1.00
H227   H     0.63877   0.53940   0.35127   0.00000  Uiso   1.00
H228   H     0.62124   0.59804   0.32829   0.00000  Uiso   1.00
H229   H     0.36181   0.59958   0.34354   0.00000  Uiso   1.00
N230   N     0.64908   0.51407   0.26416   0.00000  Uiso   1.00
N231   N     0.35092   0.48593   0.23584   0.00000  Uiso   1.00
O232   O     0.46131   0.57141   0.24633   0.00000  Uiso   1.00
O233   O     0.56191   0.58089   0.25587   0.00000  Uiso   1.00
O234   O     0.42515   0.49293   0.31840   0.00000  Uiso   1.00
O235   O     0.52575   0.50241   0.32793   0.00000  Uiso   1.00
O236   O     0.43809   0.41911   0.24414   0.00000  Uiso   1.00
O237   O     0.53869   0.42859   0.25367   0.00000  Uiso   1.00
O238   O     0.47425   0.49759   0.17207   0.00000  Uiso   1.00
O239   O     0.57485   0.50707   0.18161   0.00000  Uiso   1.00
O240   O     0.34728   0.56174   0.27604   0.00000  Uiso   1.00
C241   C     0.84817   0.59992   0.25143   0.00000  Uiso   1.00
C242   C     0.77752   0.49288   0.40307   0.00000  Uiso   1.00
C243   C     0.85571   0.65575   0.25305   0.00000  Uiso   1.00
C244   C     0.79961   0.49740   0.34717   0.00000  Uiso   1.00
C245   C     0.81108   0.34454   0.24398   0.00000  Uiso   1.00
C246   C     0.81874   0.40019   0.24760   0.00000  Uiso   1.00
C247   C     0.86682   0.50392   0.15312   0.00000  Uiso   1.00
C248   C     0.94761   0.57210   0.03194   0.00000  Uiso   1.00
C249   C     0.88633   0.51434   0.09853   0.00000  Uiso   1.00
C250   C     0.71931   0.46078   0.42203   0.00000  Uiso   1.00
C251   C     0.70145   0.45068   0.47389   0.00000  Uiso   1.00
C252   C     0.80295   0.49892   0.48839   0.00000  Uiso   1.00
C253   C     0.74289   0.46874   0.00669   0.00000  Uiso   1.00
C254   C     0.99018   0.57441   0.32706   0.00000  Uiso   1.00
C255   C     0.81629   0.51626   0.43768   0.00000  Uiso   1.00
C256   C     0.84910   0.51486   0.01916   0.00000  Uiso   1.00
C257   C     0.90239   0.55451   0.00165   0.00000  Uiso   1.00
C258   C     0.90907   0.57701   0.45465   0.00000  Uiso   1.00
C259   C     0.86642   0.55821   0.42333   0.00000  Uiso   1.00
C260   C     0.84480   0.49249   0.06638   0.00000  Uiso   1.00
C261   C     0.93892   0.55294   0.08062   0.00000  Uiso   1.00
Cu262  Cu    0.77377   0.49439   0.24436   0.00000  Uiso   1.00
Cu263  Cu    0.89290   0.50561   0.25565   0.00000  Uiso   1.00
F264   F     0.97998   0.57424   0.11117   0.00000  Uiso   1.00
F265   F     0.75797   0.64962   0.23026   0.00000  Uiso   1.00
F266   F     0.98787   0.44080   0.21742   0.00000  Uiso   1.00
F267   F     0.99870   0.60982   0.01545   0.00000  Uiso   1.00
F268   F     0.80230   0.44819   0.08144   0.00000  Uiso   1.00
F269   F     0.67988   0.43851   0.39043   0.00000  Uiso   1.00
F270   F     0.97751   0.42172   0.49236   0.00000  Uiso   1.00
H271   H     0.94761   0.60903   0.44168   0.00000  Uiso   1.00
H272   H     0.72547   0.46083   0.04657   0.00000  Uiso   1.00
H273   H     0.87125   0.57799   0.38840   0.00000  Uiso   1.00
H274   H     0.89852   0.34575   0.26264   0.00000  Uiso   1.00
H275   H     0.97210   0.53940   0.35127   0.00000  Uiso   1.00
H276   H     0.95458   0.59804   0.32829   0.00000  Uiso   1.00
H277   H     0.69514   0.59958   0.34354   0.00000  Uiso   1.00
N278   N     0.98241   0.51407   0.26416   0.00000  Uiso   1.00
N279   N     0.68426   0.48593   0.23584   0.00000  Uiso   1.00
O280   O     0.79464   0.57141   0.24633   0.00000  Uiso   1.00
O281   O     0.89524   0.58089   0.25587   0.00000  Uiso   1.00
O282   O     0.75848   0.49293   0.31840   0.00000  Uiso   1.00
O283   O     0.85908   0.50241   0.32793   0.00000  Uiso   1.00
O284   O     0.77142   0.41911   0.24414   0.00000  Uiso   1.00
O285   O     0.87203   0.42859   0.25367   0.00000  Uiso   1.00
O286   O     0.80758   0.49759   0.17207   0.00000  Uiso   1.00
O287   O     0.90819   0.50707   0.18161   0.00000  Uiso   1.00
O288   O     0.68061   0.56174   0.27604   0.00000  Uiso   1.00
C289   C     0.18150   0.93325   0.25143   0.00000  Uiso   1.00
C290   C     0.11086   0.82622   0.40307   0.00000  Uiso   1.00
C291   C     0.18904   0.98908   0.25305   0.00000  Uiso   1.00
C292   C     0.13294   0.83073   0.34717   0.00000  Uiso   1.00
C293   C     0.14441   0.67788   0.24398   0.00000  Uiso   1.00
C294   C     0.15208   0.73352   0.24760   0.00000  Uiso   1.00
C295   C     0.20016   0.83726   0.15312   0.00000  Uiso   1.00
C296   C     0.28095   0.90543   0.03194   0.00000  Uiso   1.00
C297   C     0.21966   0.84768   0.09853   0.00000  Uiso   1.00
C298   C     0.05264   0.79411   0.42203   0.00000  Uiso   1.00
C299   C     0.03479   0.78401   0.47389   0.00000  Uiso   1.00
C300   C     0.13628   0.83225   0.48839   0.00000  Uiso   1.00
C301   C     0.07622   0.80208   0.00669   0.00000  Uiso   1.00
C302   C     0.32351   0.90774   0.32706   0.00000  Uiso   1.00
C303   C     0.14962   0.84959   0.43768   0.00000  Uiso   1.00
C304   C     0.18243   0.84820   0.01916   0.00000  Uiso   1.00
C305   C     0.23573   0.88785   0.00165   0.00000  Uiso   1.00
C306   C     0.24240   0.91034   0.45465   0.00000  Uiso   1.00
C307   C     0.19975   0.89155   0.42333   0.00000  Uiso   1.00
C308   C     0.17813   0.82583   0.06638   0.00000  Uiso   1.00
C309   C     0.27225   0.88627   0.08062   0.00000  Uiso   1.00
Cu310  Cu    0.10710   0.82772   0.24436   0.00000  Uiso   1.00
Cu311  Cu    0.22623   0.83895   0.25565   0.00000  Uiso   1.00
F312   F     0.31331   0.90757   0.11117   0.00000  Uiso   1.00
F313   F     0.09130   0.98295   0.23026   0.00000  Uiso   1.00
F314   F     0.32120   0.77414   0.21742   0.00000  Uiso   1.00
F315   F     0.33203   0.94315   0.01545   0.00000  Uiso   1.00
F316   F     0.13563   0.78152   0.08144   0.00000  Uiso   1.00
F317   F     0.01321   0.77184   0.39043   0.00000  Uiso   1.00
F318   F     0.31084   0.75506   0.49236   0.00000  Uiso   1.00
H319   H     0.28095   0.94236   0.44168   0.00000  Uiso   1.00
H320   H     0.05881   0.79417   0.04657   0.00000  Uiso   1.00
H321   H     0.20459   0.91133   0.38840   0.00000  Uiso   1.00
H322   H     0.23185   0.67909   0.26264   0.00000  Uiso   1.00
H323   H     0.30543   0.87273   0.35127   0.00000  Uiso   1.00
H324   H     0.28791   0.93138   0.32829   0.00000  Uiso   1.00
H325   H     0.02847   0.93291   0.34354   0.00000  Uiso   1.00
N326   N     0.31574   0.84741   0.26416   0.00000  Uiso   1.00
N327   N     0.01759   0.81926   0.23584   0.00000  Uiso   1.00
O328   O     0.12797   0.90474   0.24633   0.00000  Uiso   1.00
O329   O     0.22858   0.91422   0.25587   0.00000  Uiso   1.00
O330   O     0.09181   0.82627   0.31840   0.00000  Uiso   1.00
O331   O     0.19242   0.83575   0.32793   0.00000  Uiso   1.00
O332   O     0.10476   0.75245   0.24414   0.00000  Uiso   1.00
O333   O     0.20536   0.76193   0.25367   0.00000  Uiso   1.00
O334   O     0.14092   0.83092   0.17207   0.00000  Uiso   1.00
O335   O     0.24152   0.84040   0.18161   0.00000  Uiso   1.00
O336   O     0.01395   0.89507   0.27604   0.00000  Uiso   1.00
C337   C     0.51484   0.93325   0.25143   0.00000  Uiso   1.00
C338   C     0.44419   0.82622   0.40307   0.00000  Uiso   1.00
C339   C     0.52238   0.98908   0.25305   0.00000  Uiso   1.00
C340   C     0.46627   0.83073   0.34717   0.00000  Uiso   1.00
C341   C     0.47775   0.67788   0.24398   0.00000  Uiso   1.00
C342   C     0.48541   0.73352   0.24760   0.00000  Uiso   1.00
C343   C     0.53349   0.83726   0.15312   0.00000  Uiso   1.00
C344   C     0.61428   0.90543   0.03194   0.00000  Uiso   1.00
C345   C     0.55300   0.84768   0.09853   0.00000  Uiso   1.00
C346   C     0.38598   0.79411   0.42203   0.00000  Uiso   1.00
C347   C     0.36812   0.78401   0.47389   0.00000  Uiso   1.00
C348   C     0.46962   0.83225   0.48839   0.00000  Uiso   1.00
C349   C     0.40956   0.80208   0.00669   0.00000  Uiso   1.00
C350   C     0.65684   0.90774   0.32706   0.00000  Uiso   1.00
C351   C     0.48296   0.84959   0.43768   0.00000  Uiso   1.00
C352   C     0.51577   0.84820   0.01916   0.00000  Uiso   1.00
C353   C     0.56906   0.88785   0.00165   0.00000  Uiso   1.00
C354   C     0.57574   0.91034   0.45465   0.00000  Uiso   1.00
C355   C     0.53308   0.89155   0.42333   0.00000  Uiso   1.00
C356   C     0.51146   0.82583   0.06638   0.00000  Uiso   1.00
C357   C     0.60559   0.88627   0.08062   0.00000  Uiso   1.00
Cu358  Cu    0.44043   0.82772   0.24436   0.00000  Uiso   1.00
Cu359  Cu    0.55957   0.83895   0.25565   0.00000  Uiso   1.00
F360   F     0.64665   0.90757   0.11117   0.00000  Uiso   1.00
F361   F     0.42464   0.98295   0.23026   0.00000  Uiso   1.00
F362   F     0.65454   0.77414   0.21742   0.00000  Uiso   1.00
F363   F     0.66537   0.94315   0.01545   0.00000  Uiso   1.00
F364   F     0.46896   0.78152   0.08144   0.00000  Uiso   1.00
F365   F     0.34655   0.77184   0.39043   0.00000  Uiso   1.00
F366   F     0.64417   0.75506   0.49236   0.00000  Uiso   1.00
H367   H     0.61428   0.94236   0.44168   0.00000  Uiso   1.00
H368   H     0.39214   0.79417   0.04657   0.00000  Uiso   1.00
H369   H     0.53792   0.91133   0.38840   0.00000  Uiso   1.00
H370   H     0.56518   0.67909   0.26264   0.00000  Uiso   1.00
H371   H     0.63877   0.87273   0.35127   0.00000  Uiso   1.00
H372   H     0.62124   0.93138   0.32829   0.00000  Uiso   1.00
H373   H     0.36181   0.93291   0.34354   0.00000  Uiso   1.00
N374   N     0.64908   0.84741   0.26416   0.00000  Uiso   1.00
N375   N     0.35092   0.81926   0.23584   0.00000  Uiso   1.00
O376   O     0.46131   0.90474   0.24633   0.00000  Uiso   1.00
O377   O     0.56191   0.91422   0.25587   0.00000  Uiso   1.00
O378   O     0.42515   0.82627   0.31840   0.00000  Uiso   1.00
O379   O     0.52575   0.83575   0.32793   0.00000  Uiso   1.00
O380   O     0.43809   0.75245   0.24414   0.00000  Uiso   1.00
O381   O     0.53869   0.76193   0.25367   0.00000  Uiso   1.00
O382   O     0.47425   0.83092   0.17207   0.00000  Uiso   1.00
O383   O     0.57485   0.84040   0.18161   0.00000  Uiso   1.00
O384   O     0.34728   0.89507   0.27604   0.00000  Uiso   1.00
C385   C     0.84817   0.93325   0.25143   0.00000  Uiso   1.00
C386   C     0.77752   0.82622   0.40307   0.00000  Uiso   1.00
C387   C     0.85571   0.98908   0.25305   0.00000  Uiso   1.00
C388   C     0.79961   0.83073   0.34717   0.00000  Uiso   1.00
C389   C     0.81108   0.67788   0.24398   0.00000  Uiso   1.00
C390   C     0.81874   0.73352   0.24760   0.00000  Uiso   1.00
C391   C     0.86682   0.83726   0.15312   0.00000  Uiso   1.00
C392   C     0.94761   0.90543   0.03194   0.00000  Uiso   1.00
C393   C     0.88633   0.84768   0.09853   0.00000  Uiso   1.00
C394   C     0.71931   0.79411   0.42203   0.00000  Uiso   1.00
C395   C     0.70145   0.78401   0.47389   0.00000  Uiso   1.00
C396   C     0.80295   0.83225   0.48839   0.00000  Uiso   1.00
C397   C     0.74289   0.80208   0.00669   0.00000  Uiso   1.00
C398   C     0.99018   0.90774   0.32706   0.00000  Uiso   1.00
C399   C     0.81629   0.84959   0.43768   0.00000  Uiso   1.00
C400   C     0.84910   0.84820   0.01916   0.00000  Uiso   1.00
C401   C     0.90239   0.88785   0.00165   0.00000  Uiso   1.00
C402   C     0.90907   0.91034   0.45465   0.00000  Uiso   1.00
C403   C     0.86642   0.89155   0.42333   0.00000  Uiso   1.00
C404   C     0.84480   0.82583   0.06638   0.00000  Uiso   1.00
C405   C     0.93892   0.88627   0.08062   0.00000  Uiso   1.00
Cu406  Cu    0.77377   0.82772   0.24436   0.00000  Uiso   1.00
Cu407  Cu    0.89290   0.83895   0.25565   0.00000  Uiso   1.00
F408   F     0.97998   0.90757   0.11117   0.00000  Uiso   1.00
F409   F     0.75797   0.98295   0.23026   0.00000  Uiso   1.00
F410   F     0.98787   0.77414   0.21742   0.00000  Uiso   1.00
F411   F     0.99870   0.94315   0.01545   0.00000  Uiso   1.00
F412   F     0.80230   0.78152   0.08144   0.00000  Uiso   1.00
F413   F     0.67988   0.77184   0.39043   0.00000  Uiso   1.00
F414   F     0.97751   0.75506   0.49236   0.00000  Uiso   1.00
H415   H     0.94761   0.94236   0.44168   0.00000  Uiso   1.00
H416   H     0.72547   0.79417   0.04657   0.00000  Uiso   1.00
H417   H     0.87125   0.91133   0.38840   0.00000  Uiso   1.00
H418   H     0.89852   0.67909   0.26264   0.00000  Uiso   1.00
H419   H     0.97210   0.87273   0.35127   0.00000  Uiso   1.00
H420   H     0.95458   0.93138   0.32829   0.00000  Uiso   1.00
H421   H     0.69514   0.93291   0.34354   0.00000  Uiso   1.00
N422   N     0.98241   0.84741   0.26416   0.00000  Uiso   1.00
N423   N     0.68426   0.81926   0.23584   0.00000  Uiso   1.00
O424   O     0.79464   0.90474   0.24633   0.00000  Uiso   1.00
O425   O     0.89524   0.91422   0.25587   0.00000  Uiso   1.00
O426   O     0.75848   0.82627   0.31840   0.00000  Uiso   1.00
O427   O     0.85908   0.83575   0.32793   0.00000  Uiso   1.00
O428   O     0.77142   0.75245   0.24414   0.00000  Uiso   1.00
O429   O     0.87203   0.76193   0.25367   0.00000  Uiso   1.00
O430   O     0.80758   0.83092   0.17207   0.00000  Uiso   1.00
O431   O     0.90819   0.84040   0.18161   0.00000  Uiso   1.00
O432   O     0.68061   0.89507   0.27604   0.00000  Uiso   1.00
C433   C     0.18150   0.26658   0.75143   0.00000  Uiso   1.00
C434   C     0.11086   0.15955   0.90307   0.00000  Uiso   1.00
C435   C     0.18904   0.32242   0.75305   0.00000  Uiso   1.00
C436   C     0.13294   0.16406   0.84717   0.00000  Uiso   1.00
C437   C     0.14441   0.01121   0.74398   0.00000  Uiso   1.00
C438   C     0.15208   0.06686   0.74760   0.00000  Uiso   1.00
C439   C     0.20016   0.17059   0.65312   0.00000  Uiso   1.00
C440   C     0.28095   0.23877   0.53194   0.00000  Uiso   1.00
C441   C     0.21966   0.18101   0.59853   0.00000  Uiso   1.00
C442   C     0.05264   0.12744   0.92203   0.00000  Uiso   1.00
C443   C     0.03479   0.11734   0.97389   0.00000  Uiso   1.00
C444   C     0.13628   0.16559   0.98839   0.00000  Uiso   1.00
C445   C     0.07622   0.13541   0.50669   0.00000  Uiso   1.00
C446   C     0.32351   0.24107   0.82706   0.00000  Uiso   1.00
C447   C     0.14962   0.18293   0.93768   0.00000  Uiso   1.00
C448   C     0.18243   0.18153   0.51916   0.00000  Uiso   1.00
C449   C     0.23573   0.22118   0.50165   0.00000  Uiso   1.00
C450   C     0.24240   0.24367   0.95465   0.00000  Uiso   1.00
C451   C     0.19975   0.22488   0.92333   0.00000  Uiso   1.00
C452   C     0.17813   0.15916   0.56638   0.00000  Uiso   1.00
C453   C     0.27225   0.21961   0.58062   0.00000  Uiso   1.00
Cu454  Cu    0.10710   0.16105   0.74436   0.00000  Uiso   1.00
Cu455  Cu    0.22623   0.17228   0.75565   0.00000  Uiso   1.00
F456   F     0.31331   0.24091   0.61117   0.00000  Uiso   1.00
F457   F     0.09130   0.31628   0.73026   0.00000  Uiso   1.00
F458   F     0.32120   0.10747   0.71742   0.00000  Uiso   1.00
F459   F     0.33203   0.27649   0.51545   0.00000  Uiso   1.00
F460   F     0.13563   0.11485   0.58144   0.00000  Uiso   1.00
F461   F     0.01321   0.10517   0.89043   0.00000  Uiso   1.00
F462   F     0.31084   0.08839   0.99236   0.00000  Uiso   1.00
H463   H     0.28095   0.27569   0.94168   0.00000  Uiso   1.00
H464   H     0.05881   0.12750   0.54657   0.00000  Uiso   1.00
H465   H     0.20459   0.24466   0.88840   0.00000  Uiso   1.00
H466   H     0.23185   0.01242   0.76264   0.00000  Uiso   1.00
H467   H     0.30543   0.20607   0.85127   0.00000  Uiso   1.00
H468   H     0.28791   0.26471   0.82829   0.00000  Uiso   1.00
H469   H     0.02847   0.26625   0.84354   0.00000  Uiso   1.00
N470   N     0.31574   0.18074   0.76416   0.00000  Uiso   1.00
N471   N     0.01759   0.15259   0.73584   0.00000  Uiso   1.00
O472   O     0.12797   0.23807   0.74633   0.00000  Uiso   1.00
O473   O     0.22858   0.24755   0.75587   0.00000  Uiso   1.00
O474   O     0.09181   0.15960   0.81840   0.00000  Uiso   1.00
O475   O     0.19242   0.16908   0.82793   0.00000  Uiso   1.00
O476   O     0.10476   0.08578   0.74414   0.00000  Uiso   1.00
O477   O     0.20536   0.09526   0.75367   0.00000  Uiso   1.00
O478   O     0.14092   0.16425   0.67207   0.00000  Uiso   1.00
O479   O     0.24152   0.17373   0.68161   0.00000  Uiso   1.00
O480   O     0.01395   0.22841   0.77604   0.00000  Uiso   1.00
C481   C     0.51484   0.26658   0.75143   0.00000  Uiso   1.00
C482   C     0.44419   0.15955   0.90307   0.00000  Uiso   1.00
C483   C     0.52238   0.32242   0.75305   0.00000  Uiso   1.00
C484   C     0.46627   0.16406   0.84717   0.00000  Uiso   1.00
C485   C     0.47775   0.01121   0.74398   0.00000  Uiso   1.00
C486   C     0.48541   0.06686   0.74760   0.00000  Uiso   1.00
C487   C     0.53349   0.17059   0.65312   0.00000  Uiso   1.00
C488   C     0.61428   0.23877   0.53194   0.00000  Uiso   1.00
C489   C     0.55300   0.18101   0.59853   0.00000  Uiso   1.00
C490   C     0.38598   0.12744   0.92203   0.00000  Uiso   1.00
C491   C     0.36812   0.11734   0.97389   0.00000  Uiso   1.00
C492   C     0.46962   0.16559   0.98839   0.00000  Uiso   1.00
C493   C     0.40956   0.13541   0.50669   0.00000  Uiso   1.00
C494   C     0.65684   0.24107   0.82706   0.00000  Uiso   1.00
C495   C     0.48296   0.18293   0.93768   0.00000  Uiso   1.00
C496   C     0.51577   0.18153   0.51916   0.00000  Uiso   1.00
C497   C     0.56906   0.22118   0.50165   0.00000  Uiso   1.00
C498   C     0.57574   0.24367   0.95465   0.00000  Uiso   1.00
C499   C     0.53308   0.22488   0.92333   0.00000  Uiso   1.00
C500   C     0.51146   0.15916   0.56638   0.00000  Uiso   1.00
C501   C     0.60559   0.21961   0.58062   0.00000  Uiso   1.00
Cu502  Cu    0.44043   0.16105   0.74436   0.00000  Uiso   1.00
Cu503  Cu    0.55957   0.17228   0.75565   0.00000  Uiso   1.00
F504   F     0.64665   0.24091   0.61117   0.00000  Uiso   1.00
F505   F     0.42464   0.31628   0.73026   0.00000  Uiso   1.00
F506   F     0.65454   0.10747   0.71742   0.00000  Uiso   1.00
F507   F     0.66537   0.27649   0.51545   0.00000  Uiso   1.00
F508   F     0.46896   0.11485   0.58144   0.00000  Uiso   1.00
F509   F     0.34655   0.10517   0.89043   0.00000  Uiso   1.00
F510   F     0.64417   0.08839   0.99236   0.00000  Uiso   1.00
H511   H     0.61428   0.27569   0.94168   0.00000  Uiso   1.00
H512   H     0.39214   0.12750   0.54657   0.00000  Uiso   1.00
H513   H     0.53792   0.24466   0.88840   0.00000  Uiso   1.00
H514   H     0.56518   0.01242   0.76264   0.00000  Uiso   1.00
H515   H     0.63877   0.20607   0.85127   0.00000  Uiso   1.00
H516   H     0.62124   0.26471   0.82829   0.00000  Uiso   1.00
H517   H     0.36181   0.26625   0.84354   0.00000  Uiso   1.00
N518   N     0.64908   0.18074   0.76416   0.00000  Uiso   1.00
N519   N     0.35092   0.15259   0.73584   0.00000  Uiso   1.00
O520   O     0.46131   0.23807   0.74633   0.00000  Uiso   1.00
O521   O     0.56191   0.24755   0.75587   0.00000  Uiso   1.00
O522   O     0.42515   0.15960   0.81840   0.00000  Uiso   1.00
O523   O     0.52575   0.16908   0.82793   0.00000  Uiso   1.00
O524   O     0.43809   0.08578   0.74414   0.00000  Uiso   1.00
O525   O     0.53869   0.09526   0.75367   0.00000  Uiso   1.00
O526   O     0.47425   0.16425   0.67207   0.00000  Uiso   1.00
O527   O     0.57485   0.17373   0.68161   0.00000  Uiso   1.00
O528   O     0.34728   0.22841   0.77604   0.00000  Uiso   1.00
C529   C     0.84817   0.26658   0.75143   0.00000  Uiso   1.00
C530   C     0.77752   0.15955   0.90307   0.00000  Uiso   1.00
C531   C     0.85571   0.32242   0.75305   0.00000  Uiso   1.00
C532   C     0.79961   0.16406   0.84717   0.00000  Uiso   1.00
C533   C     0.81108   0.01121   0.74398   0.00000  Uiso   1.00
C534   C     0.81874   0.06686   0.74760   0.00000  Uiso   1.00
C535   C     0.86682   0.17059   0.65312   0.00000  Uiso   1.00
C536   C     0.94761   0.23877   0.53194   0.00000  Uiso   1.00
C537   C     0.88633   0.18101   0.59853   0.00000  Uiso   1.00
C538   C     0.71931   0.12744   0.92203   0.00000  Uiso   1.00
C539   C     0.70145   0.11734   0.97389   0.00000  Uiso   1.00
C540   C     0.80295   0.16559   0.98839   0.00000  Uiso   1.00
C541   C     0.74289   0.13541   0.50669   0.00000  Uiso   1.00
C542   C     0.99018   0.24107   0.82706   0.00000  Uiso   1.00
C543   C     0.81629   0.18293   0.93768   0.00000  Uiso   1.00
C544   C     0.84910   0.18153   0.51916   0.00000  Uiso   1.00
C545   C     0.90239   0.22118   0.50165   0.00000  Uiso   1.00
C546   C     0.90907   0.24367   0.95465   0.00000  Uiso   1.00
C547   C     0.86642   0.22488   0.92333   0.00000  Uiso   1.00
C548   C     0.84480   0.15916   0.56638   0.00000  Uiso   1.00
C549   C     0.93892   0.21961   0.58062   0.00000  Uiso   1.00
Cu550  Cu    0.77377   0.16105   0.74436   0.00000  Uiso   1.00
Cu551  Cu    0.89290   0.17228   0.75565   0.00000  Uiso   1.00
F552   F     0.97998   0.24091   0.61117   0.00000  Uiso   1.00
F553   F     0.75797   0.31628   0.73026   0.00000  Uiso   1.00
F554   F     0.98787   0.10747   0.71742   0.00000  Uiso   1.00
F555   F     0.99870   0.27649   0.51545   0.00000  Uiso   1.00
F556   F     0.80230   0.11485   0.58144   0.00000  Uiso   1.00
F557   F     0.67988   0.10517   0.89043   0.00000  Uiso   1.00
F558   F     0.97751   0.08839   0.99236   0.00000  Uiso   1.00
H559   H     0.94761   0.27569   0.94168   0.00000  Uiso   1.00
H560   H     0.72547   0.12750   0.54657   0.00000  Uiso   1.00
H561   H     0.87125   0.24466   0.88840   0.00000  Uiso   1.00
H562   H     0.89852   0.01242   0.76264   0.00000  Uiso   1.00
H563   H     0.97210   0.20607   0.85127   0.00000  Uiso   1.00
H564   H     0.95458   0.26471   0.82829   0.00000  Uiso   1.00
H565   H     0.69514   0.26625   0.84354   0.00000  Uiso   1.00
N566   N     0.98241   0.18074   0.76416   0.00000  Uiso   1.00
N567   N     0.68426   0.15259   0.73584   0.00000  Uiso   1.00
O568   O     0.79464   0.23807   0.74633   0.00000  Uiso   1.00
O569   O     0.89524   0.24755   0.75587   0.00000  Uiso   1.00
O570   O     0.75848   0.15960   0.81840   0.00000  Uiso   1.00
O571   O     0.85908   0.16908   0.82793   0.00000  Uiso   1.00
O572   O     0.77142   0.08578   0.74414   0.00000  Uiso   1.00
O573   O     0.87203   0.09526   0.75367   0.00000  Uiso   1.00
O574   O     0.80758   0.16425   0.67207   0.00000  Uiso   1.00
O575   O     0.90819   0.17373   0.68161   0.00000  Uiso   1.00
O576   O     0.68061   0.22841   0.77604   0.00000  Uiso   1.00
C577   C     0.18150   0.59992   0.75143   0.00000  Uiso   1.00
C578   C     0.11086   0.49288   0.90307   0.00000  Uiso   1.00
C579   C     0.18904   0.65575   0.75305   0.00000  Uiso   1.00
C580   C     0.13294   0.49740   0.84717   0.00000  Uiso   1.00
C581   C     0.14441   0.34454   0.74398   0.00000  Uiso   1.00
C582   C     0.15208   0.40019   0.74760   0.00000  Uiso   1.00
C583   C     0.20016   0.50392   0.65312   0.00000  Uiso   1.00
C584   C     0.28095   0.57210   0.53194   0.00000  Uiso   1.00
C585   C     0.21966   0.51434   0.59853   0.00000  Uiso   1.00
C586   C     0.05264   0.46078   0.92203   0.00000  Uiso   1.00
C587   C     0.03479   0.45068   0.97389   0.00000  Uiso   1.00
C588   C     0.13628   0.49892   0.98839   0.00000  Uiso   1.00
C589   C     0.07622   0.46874   0.50669   0.00000  Uiso   1.00
C590   C     0.32351   0.57441   0.82706   0.00000  Uiso   1.00
C591   C     0.14962   0.51626   0.93768   0.00000  Uiso   1.00
C592   C     0.18243   0.51486   0.51916   0.00000  Uiso   1.00
C593   C     0.23573   0.55451   0.50165   0.00000  Uiso   1.00
C594   C     0.24240   0.57701   0.95465   0.00000  Uiso   1.00
C595   C     0.19975   0.55821   0.92333   0.00000  Uiso   1.00
C596   C     0.17813   0.49249   0.56638   0.00000  Uiso   1.00
C597   C     0.27225   0.55294   0.58062   0.00000  Uiso   1.00
Cu598  Cu    0.10710   0.49439   0.74436   0.00000  Uiso   1.00
Cu599  Cu    0.22623   0.50561   0.75565   0.00000  Uiso   1.00
F600   F     0.31331   0.57424   0.61117   0.00000  Uiso   1.00
F601   F     0.09130   0.64962   0.73026   0.00000  Uiso   1.00
F602   F     0.32120   0.44080   0.71742   0.00000  Uiso   1.00
F603   F     0.33203   0.60982   0.51545   0.00000  Uiso   1.00
F604   F     0.13563   0.44819   0.58144   0.00000  Uiso   1.00
F605   F     0.01321   0.43851   0.89043   0.00000  Uiso   1.00
F606   F     0.31084   0.42172   0.99236   0.00000  Uiso   1.00
H607   H     0.28095   0.60903   0.94168   0.00000  Uiso   1.00
H608   H     0.05881   0.46083   0.54657   0.00000  Uiso   1.00
H609   H     0.20459   0.57799   0.88840   0.00000  Uiso   1.00
H610   H     0.23185   0.34575   0.76264   0.00000  Uiso   1.00
H611   H     0.30543   0.53940   0.85127   0.00000  Uiso   1.00
H612   H     0.28791   0.59804   0.82829   0.00000  Uiso   1.00
H613   H     0.02847   0.59958   0.84354   0.00000  Uiso   1.00
N614   N     0.31574   0.51407   0.76416   0.00000  Uiso   1.00
N615   N     0.01759   0.48593   0.73584   0.00000  Uiso   1.00
O616   O     0.12797   0.57141   0.74633   0.00000  Uiso   1.00
O617   O     0.22858   0.58089   0.75587   0.00000  Uiso   1.00
O618   O     0.09181   0.49293   0.81840   0.00000  Uiso   1.00
O619   O     0.19242   0.50241   0.82793   0.00000  Uiso   1.00
O620   O     0.10476   0.41911   0.74414   0.00000  Uiso   1.00
O621   O     0.20536   0.42859   0.75367   0.00000  Uiso   1.00
O622   O     0.14092   0.49759   0.67207   0.00000  Uiso   1.00
O623   O     0.24152   0.50707   0.68161   0.00000  Uiso   1.00
O624   O     0.01395   0.56174   0.77604   0.00000  Uiso   1.00
C625   C     0.51484   0.59992   0.75143   0.00000  Uiso   1.00
C626   C     0.44419   0.49288   0.90307   0.00000  Uiso   1.00
C627   C     0.52238   0.65575   0.75305   0.00000  Uiso   1.00
C628   C     0.46627   0.49740   0.84717   0.00000  Uiso   1.00
C629   C     0.47775   0.34454   0.74398   0.00000  Uiso   1.00
C630   C     0.48541   0.40019   0.74760   0.00000  Uiso   1.00
C631   C     0.53349   0.50392   0.65312   0.00000  Uiso   1.00
C632   C     0.61428   0.57210   0.53194   0.00000  Uiso   1.00
C633   C     0.55300   0.51434   0.59853   0.00000  Uiso   1.00
C634   C     0.38598   0.46078   0.92203   0.00000  Uiso   1.00
C635   C     0.36812   0.45068   0.97389   0.00000  Uiso   1.00
C636   C     0.46962   0.49892   0.98839   0.00000  Uiso   1.00
C637   C     0.40956   0.46874   0.50669   0.00000  Uiso   1.00
C638   C     0.65684   0.57441   0.82706   0.00000  Uiso   1.00
C639   C     0.48296   0.51626   0.93768   0.00000  Uiso   1.00
C640   C     0.51577   0.51486   0.51916   0.00000  Uiso   1.00
C641   C     0.56906   0.55451   0.50165   0.00000  Uiso   1.00
C642   C     0.57574   0.57701   0.95465   0.00000  Uiso   1.00
C643   C     0.53308   0.55821   0.92333   0.00000  Uiso   1.00
C644   C     0.51146   0.49249   0.56638   0.00000  Uiso   1.00
C645   C     0.60559   0.55294   0.58062   0.00000  Uiso   1.00
Cu646  Cu    0.44043   0.49439   0.74436   0.00000  Uiso   1.00
Cu647  Cu    0.55957   0.50561   0.75565   0.00000  Uiso   1.00
F648   F     0.64665   0.57424   0.61117   0.00000  Uiso   1.00
F649   F     0.42464   0.64962   0.73026   0.00000  Uiso   1.00
F650   F     0.65454   0.44080   0.71742   0.00000  Uiso   1.00
F651   F     0.66537   0.60982   0.51545   0.00000  Uiso   1.00
F652   F     0.46896   0.44819   0.58144   0.00000  Uiso   1.00
F653   F     0.34655   0.43851   0.89043   0.00000  Uiso   1.00
F654   F     0.64417   0.42172   0.99236   0.00000  Uiso   1.00
H655   H     0.61428   0.60903   0.94168   0.00000  Uiso   1.00
H656   H     0.39214   0.46083   0.54657   0.00000  Uiso   1.00
H657   H     0.53792   0.57799   0.88840   0.00000  Uiso   1.00
H658   H     0.56518   0.34575   0.76264   0.00000  Uiso   1.00
H659   H     0.63877   0.53940   0.85127   0.00000  Uiso   1.00
H660   H     0.62124   0.59804   0.82829   0.00000  Uiso   1.00
H661   H     0.36181   0.59958   0.84354   0.00000  Uiso   1.00
N662   N     0.64908   0.51407   0.76416   0.00000  Uiso   1.00
N663   N     0.35092   0.48593   0.73584   0.00000  Uiso   1.00
O664   O     0.46131   0.57141   0.74633   0.00000  Uiso   1.00
O665   O     0.56191   0.58089   0.75587   0.00000  Uiso   1.00
O666   O     0.42515   0.49293   0.81840   0.00000  Uiso   1.00
O667   O     0.52575   0.50241   0.82793   0.00000  Uiso   1.00
O668   O     0.43809   0.41911   0.74414   0.00000  Uiso   1.00
O669   O     0.53869   0.42859   0.75367   0.00000  Uiso   1.00
O670   O     0.47425   0.49759   0.67207   0.00000  Uiso   1.00
O671   O     0.57485   0.50707   0.68161   0.00000  Uiso   1.00
O672   O     0.34728   0.56174   0.77604   0.00000  Uiso   1.00
C673   C     0.84817   0.59992   0.75143   0.00000  Uiso   1.00
C674   C     0.77752   0.49288   0.90307   0.00000  Uiso   1.00
C675   C     0.85571   0.65575   0.75305   0.00000  Uiso   1.00
C676   C     0.79961   0.49740   0.84717   0.00000  Uiso   1.00
C677   C     0.81108   0.34454   0.74398   0.00000  Uiso   1.00
C678   C     0.81874   0.40019   0.74760   0.00000  Uiso   1.00
C679   C     0.86682   0.50392   0.65312   0.00000  Uiso   1.00
C680   C     0.94761   0.57210   0.53194   0.00000  Uiso   1.00
C681   C     0.88633   0.51434   0.59853   0.00000  Uiso   1.00
C682   C     0.71931   0.46078   0.92203   0.00000  Uiso   1.00
C683   C     0.70145   0.45068   0.97389   0.00000  Uiso   1.00
C684   C     0.80295   0.49892   0.98839   0.00000  Uiso   1.00
C685   C     0.74289   0.46874   0.50669   0.00000  Uiso   1.00
C686   C     0.99018   0.57441   0.82706   0.00000  Uiso   1.00
C687   C     0.81629   0.51626   0.93768   0.00000  Uiso   1.00
C688   C     0.84910   0.51486   0.51916   0.00000  Uiso   1.00
C689   C     0.90239   0.55451   0.50165   0.00000  Uiso   1.00
C690   C     0.90907   0.57701   0.95465   0.00000  Uiso   1.00
C691   C     0.86642   0.55821   0.92333   0.00000  Uiso   1.00
C692   C     0.84480   0.49249   0.56638   0.00000  Uiso   1.00
C693   C     0.93892   0.55294   0.58062   0.00000  Uiso   1.00
Cu694  Cu    0.77377   0.49439   0.74436   0.00000  Uiso   1.00
Cu695  Cu    0.89290   0.50561   0.75565   0.00000  Uiso   1.00
F696   F     0.97998   0.57424   0.61117   0.00000  Uiso   1.00
F697   F     0.75797   0.64962   0.73026   0.00000  Uiso   1.00
F698   F     0.98787   0.44080   0.71742   0.00000  Uiso   1.00
F699   F     0.99870   0.60982   0.51545   0.00000  Uiso   1.00
F700   F     0.80230   0.44819   0.58144   0.00000  Uiso   1.00
F701   F     0.67988   0.43851   0.89043   0.00000  Uiso   1.00
F702   F     0.97751   0.42172   0.99236   0.00000  Uiso   1.00
H703   H     0.94761   0.60903   0.94168   0.00000  Uiso   1.00
H704   H     0.72547   0.46083   0.54657   0.00000  Uiso   1.00
H705   H     0.87125   0.57799   0.88840   0.00000  Uiso   1.00
H706   H     0.89852   0.34575   0.76264   0.00000  Uiso   1.00
H707   H     0.97210   0.53940   0.85127   0.00000  Uiso   1.00
H708   H     0.95458   0.59804   0.82829   0.00000  Uiso   1.00
H709   H     0.69514   0.59958   0.84354   0.00000  Uiso   1.00
N710   N     0.98241   0.51407   0.76416   0.00000  Uiso   1.00
N711   N     0.68426   0.48593   0.73584   0.00000  Uiso   1.00
O712   O     0.79464   0.57141   0.74633   0.00000  Uiso   1.00
O713   O     0.89524   0.58089   0.75587   0.00000  Uiso   1.00
O714   O     0.75848   0.49293   0.81840   0.00000  Uiso   1.00
O715   O     0.85908   0.50241   0.82793   0.00000  Uiso   1.00
O716   O     0.77142   0.41911   0.74414   0.00000  Uiso   1.00
O717   O     0.87203   0.42859   0.75367   0.00000  Uiso   1.00
O718   O     0.80758   0.49759   0.67207   0.00000  Uiso   1.00
O719   O     0.90819   0.50707   0.68161   0.00000  Uiso   1.00
O720   O     0.68061   0.56174   0.77604   0.00000  Uiso   1.00
C721   C     0.18150   0.93325   0.75143   0.00000  Uiso   1.00
C722   C     0.11086   0.82622   0.90307   0.00000  Uiso   1.00
C723   C     0.18904   0.98908   0.75305   0.00000  Uiso   1.00
C724   C     0.13294   0.83073   0.84717   0.00000  Uiso   1.00
C725   C     0.14441   0.67788   0.74398   0.00000  Uiso   1.00
C726   C     0.15208   0.73352   0.74760   0.00000  Uiso   1.00
C727   C     0.20016   0.83726   0.65312   0.00000  Uiso   1.00
C728   C     0.28095   0.90543   0.53194   0.00000  Uiso   1.00
C729   C     0.21966   0.84768   0.59853   0.00000  Uiso   1.00
C730   C     0.05264   0.79411   0.92203   0.00000  Uiso   1.00
C731   C     0.03479   0.78401   0.97389   0.00000  Uiso   1.00
C732   C     0.13628   0.83225   0.98839   0.00000  Uiso   1.00
C733   C     0.07622   0.80208   0.50669   0.00000  Uiso   1.00
C734   C     0.32351   0.90774   0.82706   0.00000  Uiso   1.00
C735   C     0.14962   0.84959   0.93768   0.00000  Uiso   1.00
C736   C     0.18243   0.84820   0.51916   0.00000  Uiso   1.00
C737   C     0.23573   0.88785   0.50165   0.00000  Uiso   1.00
C738   C     0.24240   0.91034   0.95465   0.00000  Uiso   1.00
C739   C     0.19975   0.89155   0.92333   0.00000  Uiso   1.00
C740   C     0.17813   0.82583   0.56638   0.00000  Uiso   1.00
C741   C     0.27225   0.88627   0.58062   0.00000  Uiso   1.00
Cu742  Cu    0.10710   0.82772   0.74436   0.00000  Uiso   1.00
Cu743  Cu    0.22623   0.83895   0.75565   0.00000  Uiso   1.00
F744   F     0.31331   0.90757   0.61117   0.00000  Uiso   1.00
F745   F     0.09130   0.98295   0.73026   0.00000  Uiso   1.00
F746   F     0.32120   0.77414   0.71742   0.00000  Uiso   1.00
F747   F     0.33203   0.94315   0.51545   0.00000  Uiso   1.00
F748   F     0.13563   0.78152   0.58144   0.00000  Uiso   1.00
F749   F     0.01321   0.77184   0.89043   0.00000  Uiso   1.00
F750   F     0.31084   0.75506   0.99236   0.00000  Uiso   1.00
H751   H     0.28095   0.94236   0.94168   0.00000  Uiso   1.00
H752   H     0.05881   0.79417   0.54657   0.00000  Uiso   1.00
H753   H     0.20459   0.91133   0.88840   0.00000  Uiso   1.00
H754   H     0.23185   0.67909   0.76264   0.00000  Uiso   1.00
H755   H     0.30543   0.87273   0.85127   0.00000  Uiso   1.00
H756   H     0.28791   0.93138   0.82829   0.00000  Uiso   1.00
H757   H     0.02847   0.93291   0.84354   0.00000  Uiso   1.00
N758   N     0.31574   0.84741   0.76416   0.00000  Uiso   1.00
N759   N     0.01759   0.81926   0.73584   0.00000  Uiso   1.00
O760   O     0.12797   0.90474   0.74633   0.00000  Uiso   1.00
O761   O     0.22858   0.91422   0.75587   0.00000  Uiso   1.00
O762   O     0.09181   0.82627   0.81840   0.00000  Uiso   1.00
O763   O     0.19242   0.83575   0.82793   0.00000  Uiso   1.00
O764   O     0.10476   0.75245   0.74414   0.00000  Uiso   1.00
O765   O     0.20536   0.76193   0.75367   0.00000  Uiso   1.00
O766   O     0.14092   0.83092   0.67207   0.00000  Uiso   1.00
O767   O     0.24152   0.84040   0.68161   0.00000  Uiso   1.00
O768   O     0.01395   0.89507   0.77604   0.00000  Uiso   1.00
C769   C     0.51484   0.93325   0.75143   0.00000  Uiso   1.00
C770   C     0.44419   0.82622   0.90307   0.00000  Uiso   1.00
C771   C     0.52238   0.98908   0.75305   0.00000  Uiso   1.00
C772   C     0.46627   0.83073   0.84717   0.00000  Uiso   1.00
C773   C     0.47775   0.67788   0.74398   0.00000  Uiso   1.00
C774   C     0.48541   0.73352   0.74760   0.00000  Uiso   1.00
C775   C     0.53349   0.83726   0.65312   0.00000  Uiso   1.00
C776   C     0.61428   0.90543   0.53194   0.00000  Uiso   1.00
C777   C     0.55300   0.84768   0.59853   0.00000  Uiso   1.00
C778   C     0.38598   0.79411   0.92203   0.00000  Uiso   1.00
C779   C     0.36812   0.78401   0.97389   0.00000  Uiso   1.00
C780   C     0.46962   0.83225   0.98839   0.00000  Uiso   1.00
C781   C     0.40956   0.80208   0.50669   0.00000  Uiso   1.00
C782   C     0.65684   0.90774   0.82706   0.00000  Uiso   1.00
C783   C     0.48296   0.84959   0.93768   0.00000  Uiso   1.00
C784   C     0.51577   0.84820   0.51916   0.00000  Uiso   1.00
C785   C     0.56906   0.88785   0.50165   0.00000  Uiso   1.00
C786   C     0.57574   0.91034   0.95465   0.00000  Uiso   1.00
C787   C     0.53308   0.89155   0.92333   0.00000  Uiso   1.00
C788   C     0.51146   0.82583   0.56638   0.00000  Uiso   1.00
C789   C     0.60559   0.88627   0.58062   0.00000  Uiso   1.00
Cu790  Cu    0.44043   0.82772   0.74436   0.00000  Uiso   1.00
Cu791  Cu    0.55957   0.83895   0.75565   0.00000  Uiso   1.00
F792   F     0.64665   0.90757   0.61117   0.00000  Uiso   1.00
F793   F     0.42464   0.98295   0.73026   0.00000  Uiso   1.00
F794   F     0.65454   0.77414   0.71742   0.00000  Uiso   1.00
F795   F     0.66537   0.94315   0.51545   0.00000  Uiso   1.00
F796   F     0.46896   0.78152   0.58144   0.00000  Uiso   1.00
F797   F     0.34655   0.77184   0.89043   0.00000  Uiso   1.00
F798   F     0.64417   0.75506   0.99236   0.00000  Uiso   1.00
H799   H     0.61428   0.94236   0.94168   0.00000  Uiso   1.00
H800   H     0.39214   0.79417   0.54657   0.00000  Uiso   1.00
H801   H     0.53792   0.91133   0.88840   0.00000  Uiso   1.00
H802   H     0.56518   0.67909   0.76264   0.00000  Uiso   1.00
H803   H     0.63877   0.87273   0.85127   0.00000  Uiso   1.00
H804   H     0.62124   0.93138   0.82829   0.00000  Uiso   1.00
H805   H     0.36181   0.93291   0.84354   0.00000  Uiso   1.00
N806   N     0.64908   0.84741   0.76416   0.00000  Uiso   1.00
N807   N     0.35092   0.81926   0.73584   0.00000  Uiso   1.00
O808   O     0.46131   0.90474   0.74633   0.00000  Uiso   1.00
O809   O     0.56191   0.91422   0.75587   0.00000  Uiso   1.00
O810   O     0.42515   0.82627   0.81840   0.00000  Uiso   1.00
O811   O     0.52575   0.83575   0.82793   0.00000  Uiso   1.00
O812   O     0.43809   0.75245   0.74414   0.00000  Uiso   1.00
O813   O     0.53869   0.76193   0.75367   0.00000  Uiso   1.00
O814   O     0.47425   0.83092   0.67207   0.00000  Uiso   1.00
O815   O     0.57485   0.84040   0.68161   0.00000  Uiso   1.00
O816   O     0.34728   0.89507   0.77604   0.00000  Uiso   1.00
C817   C     0.84817   0.93325   0.75143   0.00000  Uiso   1.00
C818   C     0.77752   0.82622   0.90307   0.00000  Uiso   1.00
C819   C     0.85571   0.98908   0.75305   0.00000  Uiso   1.00
C820   C     0.79961   0.83073   0.84717   0.00000  Uiso   1.00
C821   C     0.81108   0.67788   0.74398   0.00000  Uiso   1.00
C822   C     0.81874   0.73352   0.74760   0.00000  Uiso   1.00
C823   C     0.86682   0.83726   0.65312   0.00000  Uiso   1.00
C824   C     0.94761   0.90543   0.53194   0.00000  Uiso   1.00
C825   C     0.88633   0.84768   0.59853   0.00000  Uiso   1.00
C826   C     0.71931   0.79411   0.92203   0.00000  Uiso   1.00
C827   C     0.70145   0.78401   0.97389   0.00000  Uiso   1.00
C828   C     0.80295   0.83225   0.98839   0.00000  Uiso   1.00
C829   C     0.74289   0.80208   0.50669   0.00000  Uiso   1.00
C830   C     0.99018   0.90774   0.82706   0.00000  Uiso   1.00
C831   C     0.81629   0.84959   0.93768   0.00000  Uiso   1.00
C832   C     0.84910   0.84820   0.51916   0.00000  Uiso   1.00
C833   C     0.90239   0.88785   0.50165   0.00000  Uiso   1.00
C834   C     0.90907   0.91034   0.95465   0.00000  Uiso   1.00
C835   C     0.86642   0.89155   0.92333   0.00000  Uiso   1.00
C836   C     0.84480   0.82583   0.56638   0.00000  Uiso   1.00
C837   C     0.93892   0.88627   0.58062   0.00000  Uiso   1.00
Cu838  Cu    0.77377   0.82772   0.74436   0.00000  Uiso   1.00
Cu839  Cu    0.89290   0.83895   0.75565   0.00000  Uiso   1.00
F840   F     0.97998   0.90757   0.61117   0.00000  Uiso   1.00
F841   F     0.75797   0.98295   0.73026   0.00000  Uiso   1.00
F842   F     0.98787   0.77414   0.71742   0.00000  Uiso   1.00
F843   F     0.99870   0.94315   0.51545   0.00000  Uiso   1.00
F844   F     0.80230   0.78152   0.58144   0.00000  Uiso   1.00
F845   F     0.67988   0.77184   0.89043   0.00000  Uiso   1.00
F846   F     0.97751   0.75506   0.99236   0.00000  Uiso   1.00
H847   H     0.94761   0.94236   0.94168   0.00000  Uiso   1.00
H848   H     0.72547   0.79417   0.54657   0.00000  Uiso   1.00
H849   H     0.87125   0.91133   0.88840   0.00000  Uiso   1.00
H850   H     0.89852   0.67909   0.76264   0.00000  Uiso   1.00
H851   H     0.97210   0.87273   0.85127   0.00000  Uiso   1.00
H852   H     0.95458   0.93138   0.82829   0.00000  Uiso   1.00
H853   H     0.69514   0.93291   0.84354   0.00000  Uiso   1.00
N854   N     0.98241   0.84741   0.76416   0.00000  Uiso   1.00
N855   N     0.68426   0.81926   0.73584   0.00000  Uiso   1.00
O856   O     0.79464   0.90474   0.74633   0.00000  Uiso   1.00
O857   O     0.89524   0.91422   0.75587   0.00000  Uiso   1.00
O858   O     0.75848   0.82627   0.81840   0.00000  Uiso   1.00
O859   O     0.85908   0.83575   0.82793   0.00000  Uiso   1.00
O860   O     0.77142   0.75245   0.74414   0.00000  Uiso   1.00
O861   O     0.87203   0.76193   0.75367   0.00000  Uiso   1.00
O862   O     0.80758   0.83092   0.67207   0.00000  Uiso   1.00
O863   O     0.90819   0.84040   0.68161   0.00000  Uiso   1.00
O864   O     0.68061   0.89507   0.77604   0.00000  Uiso   1.00
loop_
_geom_bond_atom_site_label_1
_geom_bond_atom_site_label_2
_geom_bond_distance
_geom_bond_site_symmetry_2
_ccdc_geom_bond_type
C1     O41     1.291   .     A
C1     O40     1.296   .     A
C1     C3      1.429   .     S
C2     C4      1.480   .     S
C2     C15     1.414   .     A
C2     C10     1.408   .     A
C3     C149    1.331   .     S
C3     H178    1.088   .     S
C4     O43     1.309   .     A
C4     O42     1.301   .     A
C5     C6      1.424   .     S
C5     C291    1.331   1_545 S
C5     F313    1.362   1_545 S
C6     O44     1.287   .     A
C6     O45     1.297   .     A
C7     O46     1.300   .     A
C7     C9      1.464   .     S
C7     O47     1.304   .     A
C8     C17     1.406   .     A
C8     C21     1.392   .     A
C8     F27     1.359   .     S
C9     C21     1.401   .     A
C9     C20     1.399   .     A
C10    F29     1.358   .     S
C10    C11     1.391   .     A
C11    C445    1.393   .     S
C11    F126    1.357   1_455 S
C12    C15     1.416   .     A
C12    C445    1.415   .     S
C12    C448    1.427   .     S
C13    H32     1.077   .     S
C13    C443    1.393   1_554 S
C13    C444    1.415   1_554 S
C14    H36     1.105   .     S
C14    H35     1.115   .     S
C14    H85     1.109   .     S
C14    O96     1.400   .     S
C15    C19     1.401   .     A
C16    C20     1.410   .     A
C16    C17     1.424   .     A
C16    C444    1.427   1_554 S
C17    C450    1.396   1_554 S
C18    C19     1.386   .     A
C18    H31     1.084   .     S
C18    C449    1.396   .     S
C19    H33     1.077   .     S
C20    F28     1.358   .     S
C21    F24     1.358   .     S
Cu22   O40     1.962   .     S
Cu22   O42     1.941   .     S
Cu22   N39     2.031   .     S
Cu22   Cu23    2.703   .     S
Cu22   O46     1.926   .     S
Cu22   O44     1.955   .     S
Cu23   O45     1.962   .     S
Cu23   N38     2.031   .     S
Cu23   O41     1.955   .     S
Cu23   O47     1.941   .     S
Cu23   O43     1.926   .     S
F25    C149    1.362   .     S
F26    N87     1.334   .     S
F30    C59     1.357   .     S
H34    C291    1.088   1_545 S
H37    C110    1.109   1_455 S
N38    N87     1.286   .     S
N38    O96     1.341   .     S
N39    N134    1.286   1_455 S
N39    F122    1.334   1_455 S
O48    C110    1.400   1_455 S
O48    N134    1.341   1_455 S
C49    O89     1.291   .     A
C49    O88     1.296   .     A
C49    C51     1.429   .     S
C50    C52     1.480   .     S
C50    C63     1.414   .     A
C50    C58     1.408   .     A
C51    C197    1.331   .     S
C51    H226    1.088   .     S
C52    O91     1.309   .     A
C52    O90     1.301   .     A
C53    C54     1.424   .     S
C53    C339    1.331   1_545 S
C53    F361    1.362   1_545 S
C54    O92     1.287   .     A
C54    O93     1.297   .     A
C55    O94     1.300   .     A
C55    C57     1.464   .     S
C55    O95     1.304   .     A
C56    C65     1.406   .     A
C56    C69     1.392   .     A
C56    F75     1.359   .     S
C57    C69     1.401   .     A
C57    C68     1.399   .     A
C58    F77     1.358   .     S
C58    C59     1.391   .     A
C59    C493    1.393   .     S
C60    C63     1.416   .     A
C60    C493    1.415   .     S
C60    C496    1.427   .     S
C61    H80     1.077   .     S
C61    C491    1.393   1_554 S
C61    C492    1.415   1_554 S
C62    H84     1.105   .     S
C62    H83     1.115   .     S
C62    H133    1.109   .     S
C62    O144    1.400   .     S
C63    C67     1.401   .     A
C64    C68     1.410   .     A
C64    C65     1.424   .     A
C64    C492    1.427   1_554 S
C65    C498    1.396   1_554 S
C66    C67     1.386   .     A
C66    H79     1.084   .     S
C66    C497    1.396   .     S
C67    H81     1.077   .     S
C68    F76     1.358   .     S
C69    F72     1.358   .     S
Cu70   O88     1.962   .     S
Cu70   O90     1.941   .     S
Cu70   N87     2.031   .     S
Cu70   Cu71    2.703   .     S
Cu70   O94     1.926   .     S
Cu70   O92     1.955   .     S
Cu71   O93     1.962   .     S
Cu71   N86     2.031   .     S
Cu71   O89     1.955   .     S
Cu71   O95     1.941   .     S
Cu71   O91     1.926   .     S
F73    C197    1.362   .     S
F74    N135    1.334   .     S
F78    C107    1.357   .     S
H82    C339    1.088   1_545 S
N86    N135    1.286   .     S
N86    O144    1.341   .     S
C97    O137    1.291   .     A
C97    O136    1.296   .     A
C97    C99     1.429   .     S
C98    C100    1.480   .     S
C98    C111    1.414   .     A
C98    C106    1.408   .     A
C99    C245    1.331   .     S
C99    H274    1.088   .     S
C100   O139    1.309   .     A
C100   O138    1.301   .     A
C101   C102    1.424   .     S
C101   C387    1.331   1_545 S
C101   F409    1.362   1_545 S
C102   O140    1.287   .     A
C102   O141    1.297   .     A
C103   O142    1.300   .     A
C103   C105    1.464   .     S
C103   O143    1.304   .     A
C104   C113    1.406   .     A
C104   C117    1.392   .     A
C104   F123    1.359   .     S
C105   C117    1.401   .     A
C105   C116    1.399   .     A
C106   F125    1.358   .     S
C106   C107    1.391   .     A
C107   C541    1.393   .     S
C108   C111    1.416   .     A
C108   C541    1.415   .     S
C108   C544    1.427   .     S
C109   H128    1.077   .     S
C109   C539    1.393   1_554 S
C109   C540    1.415   1_554 S
C110   H132    1.105   .     S
C110   H131    1.115   .     S
C110   H37     1.109   1_655 S
C110   O48     1.400   1_655 S
C111   C115    1.401   .     A
C112   C116    1.410   .     A
C112   C113    1.424   .     A
C112   C540    1.427   1_554 S
C113   C546    1.396   1_554 S
C114   C115    1.386   .     A
C114   H127    1.084   .     S
C114   C545    1.396   .     S
C115   H129    1.077   .     S
C116   F124    1.358   .     S
C117   F120    1.358   .     S
Cu118  O136    1.962   .     S
Cu118  O138    1.941   .     S
Cu118  N135    2.031   .     S
Cu118  Cu119   2.703   .     S
Cu118  O142    1.926   .     S
Cu118  O140    1.955   .     S
Cu119  O141    1.962   .     S
Cu119  N134    2.031   .     S
Cu119  O137    1.955   .     S
Cu119  O143    1.941   .     S
Cu119  O139    1.926   .     S
F121   C245    1.362   .     S
F122   N39     1.334   1_655 S
F126   C11     1.357   1_655 S
H130   C387    1.088   1_545 S
N134   N39     1.286   1_655 S
N134   O48     1.341   1_655 S
C145   O185    1.291   .     A
C145   O184    1.296   .     A
C145   C147    1.429   .     S
C146   C148    1.480   .     S
C146   C159    1.414   .     A
C146   C154    1.408   .     A
C147   C293    1.331   .     S
C147   H322    1.088   .     S
C148   O187    1.309   .     A
C148   O186    1.301   .     A
C149   C150    1.424   .     S
C150   O188    1.287   .     A
C150   O189    1.297   .     A
C151   O190    1.300   .     A
C151   C153    1.464   .     S
C151   O191    1.304   .     A
C152   C161    1.406   .     A
C152   C165    1.392   .     A
C152   F171    1.359   .     S
C153   C165    1.401   .     A
C153   C164    1.399   .     A
C154   F173    1.358   .     S
C154   C155    1.391   .     A
C155   C589    1.393   .     S
C155   F270    1.357   1_455 S
C156   C159    1.416   .     A
C156   C589    1.415   .     S
C156   C592    1.427   .     S
C157   H176    1.077   .     S
C157   C587    1.393   1_554 S
C157   C588    1.415   1_554 S
C158   H180    1.105   .     S
C158   H179    1.115   .     S
C158   H229    1.109   .     S
C158   O240    1.400   .     S
C159   C163    1.401   .     A
C160   C164    1.410   .     A
C160   C161    1.424   .     A
C160   C588    1.427   1_554 S
C161   C594    1.396   1_554 S
C162   C163    1.386   .     A
C162   H175    1.084   .     S
C162   C593    1.396   .     S
C163   H177    1.077   .     S
C164   F172    1.358   .     S
C165   F168    1.358   .     S
Cu166  O184    1.962   .     S
Cu166  O186    1.941   .     S
Cu166  N183    2.031   .     S
Cu166  Cu167   2.703   .     S
Cu166  O190    1.926   .     S
Cu166  O188    1.955   .     S
Cu167  O189    1.962   .     S
Cu167  N182    2.031   .     S
Cu167  O185    1.955   .     S
Cu167  O191    1.941   .     S
Cu167  O187    1.926   .     S
F169   C293    1.362   .     S
F170   N231    1.334   .     S
F174   C203    1.357   .     S
H181   C254    1.109   1_455 S
N182   N231    1.286   .     S
N182   O240    1.341   .     S
N183   N278    1.286   1_455 S
N183   F266    1.334   1_455 S
O192   C254    1.400   1_455 S
O192   N278    1.341   1_455 S
C193   O233    1.291   .     A
C193   O232    1.296   .     A
C193   C195    1.429   .     S
C194   C196    1.480   .     S
C194   C207    1.414   .     A
C194   C202    1.408   .     A
C195   C341    1.331   .     S
C195   H370    1.088   .     S
C196   O235    1.309   .     A
C196   O234    1.301   .     A
C197   C198    1.424   .     S
C198   O236    1.287   .     A
C198   O237    1.297   .     A
C199   O238    1.300   .     A
C199   C201    1.464   .     S
C199   O239    1.304   .     A
C200   C209    1.406   .     A
C200   C213    1.392   .     A
C200   F219    1.359   .     S
C201   C213    1.401   .     A
C201   C212    1.399   .     A
C202   F221    1.358   .     S
C202   C203    1.391   .     A
C203   C637    1.393   .     S
C204   C207    1.416   .     A
C204   C637    1.415   .     S
C204   C640    1.427   .     S
C205   H224    1.077   .     S
C205   C635    1.393   1_554 S
C205   C636    1.415   1_554 S
C206   H228    1.105   .     S
C206   H227    1.115   .     S
C206   H277    1.109   .     S
C206   O288    1.400   .     S
C207   C211    1.401   .     A
C208   C212    1.410   .     A
C208   C209    1.424   .     A
C208   C636    1.427   1_554 S
C209   C642    1.396   1_554 S
C210   C211    1.386   .     A
C210   H223    1.084   .     S
C210   C641    1.396   .     S
C211   H225    1.077   .     S
C212   F220    1.358   .     S
C213   F216    1.358   .     S
Cu214  O232    1.962   .     S
Cu214  O234    1.941   .     S
Cu214  N231    2.031   .     S
Cu214  Cu215   2.703   .     S
Cu214  O238    1.926   .     S
Cu214  O236    1.955   .     S
Cu215  O237    1.962   .     S
Cu215  N230    2.031   .     S
Cu215  O233    1.955   .     S
Cu215  O239    1.941   .     S
Cu215  O235    1.926   .     S
F217   C341    1.362   .     S
F218   N279    1.334   .     S
F222   C251    1.357   .     S
N230   N279    1.286   .     S
N230   O288    1.341   .     S
C241   O281    1.291   .     A
C241   O280    1.296   .     A
C241   C243    1.429   .     S
C242   C244    1.480   .     S
C242   C255    1.414   .     A
C242   C250    1.408   .     A
C243   C389    1.331   .     S
C243   H418    1.088   .     S
C244   O283    1.309   .     A
C244   O282    1.301   .     A
C245   C246    1.424   .     S
C246   O284    1.287   .     A
C246   O285    1.297   .     A
C247   O286    1.300   .     A
C247   C249    1.464   .     S
C247   O287    1.304   .     A
C248   C257    1.406   .     A
C248   C261    1.392   .     A
C248   F267    1.359   .     S
C249   C261    1.401   .     A
C249   C260    1.399   .     A
C250   F269    1.358   .     S
C250   C251    1.391   .     A
C251   C685    1.393   .     S
C252   C255    1.416   .     A
C252   C685    1.415   .     S
C252   C688    1.427   .     S
C253   H272    1.077   .     S
C253   C683    1.393   1_554 S
C253   C684    1.415   1_554 S
C254   H276    1.105   .     S
C254   H275    1.115   .     S
C254   H181    1.109   1_655 S
C254   O192    1.400   1_655 S
C255   C259    1.401   .     A
C256   C260    1.410   .     A
C256   C257    1.424   .     A
C256   C684    1.427   1_554 S
C257   C690    1.396   1_554 S
C258   C259    1.386   .     A
C258   H271    1.084   .     S
C258   C689    1.396   .     S
C259   H273    1.077   .     S
C260   F268    1.358   .     S
C261   F264    1.358   .     S
Cu262  O280    1.962   .     S
Cu262  O282    1.941   .     S
Cu262  N279    2.031   .     S
Cu262  Cu263   2.703   .     S
Cu262  O286    1.926   .     S
Cu262  O284    1.955   .     S
Cu263  O285    1.962   .     S
Cu263  N278    2.031   .     S
Cu263  O281    1.955   .     S
Cu263  O287    1.941   .     S
Cu263  O283    1.926   .     S
F265   C389    1.362   .     S
F266   N183    1.334   1_655 S
F270   C155    1.357   1_655 S
N278   N183    1.286   1_655 S
N278   O192    1.341   1_655 S
C289   O329    1.291   .     A
C289   O328    1.296   .     A
C289   C291    1.429   .     S
C290   C292    1.480   .     S
C290   C303    1.414   .     A
C290   C298    1.408   .     A
C291   C5      1.331   1_565 S
C291   H34     1.088   1_565 S
C292   O331    1.309   .     A
C292   O330    1.301   .     A
C293   C294    1.424   .     S
C294   O332    1.287   .     A
C294   O333    1.297   .     A
C295   O334    1.300   .     A
C295   C297    1.464   .     S
C295   O335    1.304   .     A
C296   C305    1.406   .     A
C296   C309    1.392   .     A
C296   F315    1.359   .     S
C297   C309    1.401   .     A
C297   C308    1.399   .     A
C298   F317    1.358   .     S
C298   C299    1.391   .     A
C299   C733    1.393   .     S
C299   F414    1.357   1_455 S
C300   C303    1.416   .     A
C300   C733    1.415   .     S
C300   C736    1.427   .     S
C301   H320    1.077   .     S
C301   C731    1.393   1_554 S
C301   C732    1.415   1_554 S
C302   H324    1.105   .     S
C302   H323    1.115   .     S
C302   H373    1.109   .     S
C302   O384    1.400   .     S
C303   C307    1.401   .     A
C304   C308    1.410   .     A
C304   C305    1.424   .     A
C304   C732    1.427   1_554 S
C305   C738    1.396   1_554 S
C306   C307    1.386   .     A
C306   H319    1.084   .     S
C306   C737    1.396   .     S
C307   H321    1.077   .     S
C308   F316    1.358   .     S
C309   F312    1.358   .     S
Cu310  O328    1.962   .     S
Cu310  O330    1.941   .     S
Cu310  N327    2.031   .     S
Cu310  Cu311   2.703   .     S
Cu310  O334    1.926   .     S
Cu310  O332    1.955   .     S
Cu311  O333    1.962   .     S
Cu311  N326    2.031   .     S
Cu311  O329    1.955   .     S
Cu311  O335    1.941   .     S
Cu311  O331    1.926   .     S
F313   C5      1.362   1_565 S
F314   N375    1.334   .     S
F318   C347    1.357   .     S
H325   C398    1.109   1_455 S
N326   N375    1.286   .     S
N326   O384    1.341   .     S
N327   N422    1.286   1_455 S
N327   F410    1.334   1_455 S
O336   C398    1.400   1_455 S
O336   N422    1.341   1_455 S
C337   O377    1.291   .     A
C337   O376    1.296   .     A
C337   C339    1.429   .     S
C338   C340    1.480   .     S
C338   C351    1.414   .     A
C338   C346    1.408   .     A
C339   C53     1.331   1_565 S
C339   H82     1.088   1_565 S
C340   O379    1.309   .     A
C340   O378    1.301   .     A
C341   C342    1.424   .     S
C342   O380    1.287   .     A
C342   O381    1.297   .     A
C343   O382    1.300   .     A
C343   C345    1.464   .     S
C343   O383    1.304   .     A
C344   C353    1.406   .     A
C344   C357    1.392   .     A
C344   F363    1.359   .     S
C345   C357    1.401   .     A
C345   C356    1.399   .     A
C346   F365    1.358   .     S
C346   C347    1.391   .     A
C347   C781    1.393   .     S
C348   C351    1.416   .     A
C348   C781    1.415   .     S
C348   C784    1.427   .     S
C349   H368    1.077   .     S
C349   C779    1.393   1_554 S
C349   C780    1.415   1_554 S
C350   H372    1.105   .     S
C350   H371    1.115   .     S
C350   H421    1.109   .     S
C350   O432    1.400   .     S
C351   C355    1.401   .     A
C352   C356    1.410   .     A
C352   C353    1.424   .     A
C352   C780    1.427   1_554 S
C353   C786    1.396   1_554 S
C354   C355    1.386   .     A
C354   H367    1.084   .     S
C354   C785    1.396   .     S
C355   H369    1.077   .     S
C356   F364    1.358   .     S
C357   F360    1.358   .     S
Cu358  O376    1.962   .     S
Cu358  O378    1.941   .     S
Cu358  N375    2.031   .     S
Cu358  Cu359   2.703   .     S
Cu358  O382    1.926   .     S
Cu358  O380    1.955   .     S
Cu359  O381    1.962   .     S
Cu359  N374    2.031   .     S
Cu359  O377    1.955   .     S
Cu359  O383    1.941   .     S
Cu359  O379    1.926   .     S
F361   C53     1.362   1_565 S
F362   N423    1.334   .     S
F366   C395    1.357   .     S
N374   N423    1.286   .     S
N374   O432    1.341   .     S
C385   O425    1.291   .     A
C385   O424    1.296   .     A
C385   C387    1.429   .     S
C386   C388    1.480   .     S
C386   C399    1.414   .     A
C386   C394    1.408   .     A
C387   C101    1.331   1_565 S
C387   H130    1.088   1_565 S
C388   O427    1.309   .     A
C388   O426    1.301   .     A
C389   C390    1.424   .     S
C390   O428    1.287   .     A
C390   O429    1.297   .     A
C391   O430    1.300   .     A
C391   C393    1.464   .     S
C391   O431    1.304   .     A
C392   C401    1.406   .     A
C392   C405    1.392   .     A
C392   F411    1.359   .     S
C393   C405    1.401   .     A
C393   C404    1.399   .     A
C394   F413    1.358   .     S
C394   C395    1.391   .     A
C395   C829    1.393   .     S
C396   C399    1.416   .     A
C396   C829    1.415   .     S
C396   C832    1.427   .     S
C397   H416    1.077   .     S
C397   C827    1.393   1_554 S
C397   C828    1.415   1_554 S
C398   H420    1.105   .     S
C398   H419    1.115   .     S
C398   H325    1.109   1_655 S
C398   O336    1.400   1_655 S
C399   C403    1.401   .     A
C400   C404    1.410   .     A
C400   C401    1.424   .     A
C400   C828    1.427   1_554 S
C401   C834    1.396   1_554 S
C402   C403    1.386   .     A
C402   H415    1.084   .     S
C402   C833    1.396   .     S
C403   H417    1.077   .     S
C404   F412    1.358   .     S
C405   F408    1.358   .     S
Cu406  O424    1.962   .     S
Cu406  O426    1.941   .     S
Cu406  N423    2.031   .     S
Cu406  Cu407   2.703   .     S
Cu406  O430    1.926   .     S
Cu406  O428    1.955   .     S
Cu407  O429    1.962   .     S
Cu407  N422    2.031   .     S
Cu407  O425    1.955   .     S
Cu407  O431    1.941   .     S
Cu407  O427    1.926   .     S
F409   C101    1.362   1_565 S
F410   N327    1.334   1_655 S
F414   C299    1.357   1_655 S
N422   N327    1.286   1_655 S
N422   O336    1.341   1_655 S
C433   O473    1.291   .     A
C433   O472    1.296   .     A
C433   C435    1.429   .     S
C434   C436    1.480   .     S
C434   C447    1.414   .     A
C434   C442    1.408   .     A
C435   C581    1.331   .     S
C435   H610    1.088   .     S
C436   O475    1.309   .     A
C436   O474    1.301   .     A
C437   C438    1.424   .     S
C437   C723    1.331   1_545 S
C437   F745    1.362   1_545 S
C438   O476    1.287   .     A
C438   O477    1.297   .     A
C439   O478    1.300   .     A
C439   C441    1.464   .     S
C439   O479    1.304   .     A
C440   C449    1.406   .     A
C440   C453    1.392   .     A
C440   F459    1.359   .     S
C441   C453    1.401   .     A
C441   C452    1.399   .     A
C442   F461    1.358   .     S
C442   C443    1.391   .     A
C443   C13     1.393   1_556 S
C443   F558    1.357   1_455 S
C444   C447    1.416   .     A
C444   C13     1.415   1_556 S
C444   C16     1.427   1_556 S
C445   H464    1.077   .     S
C446   H468    1.105   .     S
C446   H467    1.115   .     S
C446   H517    1.109   .     S
C446   O528    1.400   .     S
C447   C451    1.401   .     A
C448   C452    1.410   .     A
C448   C449    1.424   .     A
C450   C451    1.386   .     A
C450   H463    1.084   .     S
C450   C17     1.396   1_556 S
C451   H465    1.077   .     S
C452   F460    1.358   .     S
C453   F456    1.358   .     S
Cu454  O472    1.962   .     S
Cu454  O474    1.941   .     S
Cu454  N471    2.031   .     S
Cu454  Cu455   2.703   .     S
Cu454  O478    1.926   .     S
Cu454  O476    1.955   .     S
Cu455  O477    1.962   .     S
Cu455  N470    2.031   .     S
Cu455  O473    1.955   .     S
Cu455  O479    1.941   .     S
Cu455  O475    1.926   .     S
F457   C581    1.362   .     S
F458   N519    1.334   .     S
F462   C491    1.357   .     S
H466   C723    1.088   1_545 S
H469   C542    1.109   1_455 S
N470   N519    1.286   .     S
N470   O528    1.341   .     S
N471   N566    1.286   1_455 S
N471   F554    1.334   1_455 S
O480   C542    1.400   1_455 S
O480   N566    1.341   1_455 S
C481   O521    1.291   .     A
C481   O520    1.296   .     A
C481   C483    1.429   .     S
C482   C484    1.480   .     S
C482   C495    1.414   .     A
C482   C490    1.408   .     A
C483   C629    1.331   .     S
C483   H658    1.088   .     S
C484   O523    1.309   .     A
C484   O522    1.301   .     A
C485   C486    1.424   .     S
C485   C771    1.331   1_545 S
C485   F793    1.362   1_545 S
C486   O524    1.287   .     A
C486   O525    1.297   .     A
C487   O526    1.300   .     A
C487   C489    1.464   .     S
C487   O527    1.304   .     A
C488   C497    1.406   .     A
C488   C501    1.392   .     A
C488   F507    1.359   .     S
C489   C501    1.401   .     A
C489   C500    1.399   .     A
C490   F509    1.358   .     S
C490   C491    1.391   .     A
C491   C61     1.393   1_556 S
C492   C495    1.416   .     A
C492   C61     1.415   1_556 S
C492   C64     1.427   1_556 S
C493   H512    1.077   .     S
C494   H516    1.105   .     S
C494   H515    1.115   .     S
C494   H565    1.109   .     S
C494   O576    1.400   .     S
C495   C499    1.401   .     A
C496   C500    1.410   .     A
C496   C497    1.424   .     A
C498   C499    1.386   .     A
C498   H511    1.084   .     S
C498   C65     1.396   1_556 S
C499   H513    1.077   .     S
C500   F508    1.358   .     S
C501   F504    1.358   .     S
Cu502  O520    1.962   .     S
Cu502  O522    1.941   .     S
Cu502  N519    2.031   .     S
Cu502  Cu503   2.703   .     S
Cu502  O526    1.926   .     S
Cu502  O524    1.955   .     S
Cu503  O525    1.962   .     S
Cu503  N518    2.031   .     S
Cu503  O521    1.955   .     S
Cu503  O527    1.941   .     S
Cu503  O523    1.926   .     S
F505   C629    1.362   .     S
F506   N567    1.334   .     S
F510   C539    1.357   .     S
H514   C771    1.088   1_545 S
N518   N567    1.286   .     S
N518   O576    1.341   .     S
C529   O569    1.291   .     A
C529   O568    1.296   .     A
C529   C531    1.429   .     S
C530   C532    1.480   .     S
C530   C543    1.414   .     A
C530   C538    1.408   .     A
C531   C677    1.331   .     S
C531   H706    1.088   .     S
C532   O571    1.309   .     A
C532   O570    1.301   .     A
C533   C534    1.424   .     S
C533   C819    1.331   1_545 S
C533   F841    1.362   1_545 S
C534   O572    1.287   .     A
C534   O573    1.297   .     A
C535   O574    1.300   .     A
C535   C537    1.464   .     S
C535   O575    1.304   .     A
C536   C545    1.406   .     A
C536   C549    1.392   .     A
C536   F555    1.359   .     S
C537   C549    1.401   .     A
C537   C548    1.399   .     A
C538   F557    1.358   .     S
C538   C539    1.391   .     A
C539   C109    1.393   1_556 S
C540   C543    1.416   .     A
C540   C109    1.415   1_556 S
C540   C112    1.427   1_556 S
C541   H560    1.077   .     S
C542   H564    1.105   .     S
C542   H563    1.115   .     S
C542   H469    1.109   1_655 S
C542   O480    1.400   1_655 S
C543   C547    1.401   .     A
C544   C548    1.410   .     A
C544   C545    1.424   .     A
C546   C547    1.386   .     A
C546   H559    1.084   .     S
C546   C113    1.396   1_556 S
C547   H561    1.077   .     S
C548   F556    1.358   .     S
C549   F552    1.358   .     S
Cu550  O568    1.962   .     S
Cu550  O570    1.941   .     S
Cu550  N567    2.031   .     S
Cu550  Cu551   2.703   .     S
Cu550  O574    1.926   .     S
Cu550  O572    1.955   .     S
Cu551  O573    1.962   .     S
Cu551  N566    2.031   .     S
Cu551  O569    1.955   .     S
Cu551  O575    1.941   .     S
Cu551  O571    1.926   .     S
F553   C677    1.362   .     S
F554   N471    1.334   1_655 S
F558   C443    1.357   1_655 S
H562   C819    1.088   1_545 S
N566   N471    1.286   1_655 S
N566   O480    1.341   1_655 S
C577   O617    1.291   .     A
C577   O616    1.296   .     A
C577   C579    1.429   .     S
C578   C580    1.480   .     S
C578   C591    1.414   .     A
C578   C586    1.408   .     A
C579   C725    1.331   .     S
C579   H754    1.088   .     S
C580   O619    1.309   .     A
C580   O618    1.301   .     A
C581   C582    1.424   .     S
C582   O620    1.287   .     A
C582   O621    1.297   .     A
C583   O622    1.300   .     A
C583   C585    1.464   .     S
C583   O623    1.304   .     A
C584   C593    1.406   .     A
C584   C597    1.392   .     A
C584   F603    1.359   .     S
C585   C597    1.401   .     A
C585   C596    1.399   .     A
C586   F605    1.358   .     S
C586   C587    1.391   .     A
C587   C157    1.393   1_556 S
C587   F702    1.357   1_455 S
C588   C591    1.416   .     A
C588   C157    1.415   1_556 S
C588   C160    1.427   1_556 S
C589   H608    1.077   .     S
C590   H612    1.105   .     S
C590   H611    1.115   .     S
C590   H661    1.109   .     S
C590   O672    1.400   .     S
C591   C595    1.401   .     A
C592   C596    1.410   .     A
C592   C593    1.424   .     A
C594   C595    1.386   .     A
C594   H607    1.084   .     S
C594   C161    1.396   1_556 S
C595   H609    1.077   .     S
C596   F604    1.358   .     S
C597   F600    1.358   .     S
Cu598  O616    1.962   .     S
Cu598  O618    1.941   .     S
Cu598  N615    2.031   .     S
Cu598  Cu599   2.703   .     S
Cu598  O622    1.926   .     S
Cu598  O620    1.955   .     S
Cu599  O621    1.962   .     S
Cu599  N614    2.031   .     S
Cu599  O617    1.955   .     S
Cu599  O623    1.941   .     S
Cu599  O619    1.926   .     S
F601   C725    1.362   .     S
F602   N663    1.334   .     S
F606   C635    1.357   .     S
H613   C686    1.109   1_455 S
N614   N663    1.286   .     S
N614   O672    1.341   .     S
N615   N710    1.286   1_455 S
N615   F698    1.334   1_455 S
O624   C686    1.400   1_455 S
O624   N710    1.341   1_455 S
C625   O665    1.291   .     A
C625   O664    1.296   .     A
C625   C627    1.429   .     S
C626   C628    1.480   .     S
C626   C639    1.414   .     A
C626   C634    1.408   .     A
C627   C773    1.331   .     S
C627   H802    1.088   .     S
C628   O667    1.309   .     A
C628   O666    1.301   .     A
C629   C630    1.424   .     S
C630   O668    1.287   .     A
C630   O669    1.297   .     A
C631   O670    1.300   .     A
C631   C633    1.464   .     S
C631   O671    1.304   .     A
C632   C641    1.406   .     A
C632   C645    1.392   .     A
C632   F651    1.359   .     S
C633   C645    1.401   .     A
C633   C644    1.399   .     A
C634   F653    1.358   .     S
C634   C635    1.391   .     A
C635   C205    1.393   1_556 S
C636   C639    1.416   .     A
C636   C205    1.415   1_556 S
C636   C208    1.427   1_556 S
C637   H656    1.077   .     S
C638   H660    1.105   .     S
C638   H659    1.115   .     S
C638   H709    1.109   .     S
C638   O720    1.400   .     S
C639   C643    1.401   .     A
C640   C644    1.410   .     A
C640   C641    1.424   .     A
C642   C643    1.386   .     A
C642   H655    1.084   .     S
C642   C209    1.396   1_556 S
C643   H657    1.077   .     S
C644   F652    1.358   .     S
C645   F648    1.358   .     S
Cu646  O664    1.962   .     S
Cu646  O666    1.941   .     S
Cu646  N663    2.031   .     S
Cu646  Cu647   2.703   .     S
Cu646  O670    1.926   .     S
Cu646  O668    1.955   .     S
Cu647  O669    1.962   .     S
Cu647  N662    2.031   .     S
Cu647  O665    1.955   .     S
Cu647  O671    1.941   .     S
Cu647  O667    1.926   .     S
F649   C773    1.362   .     S
F650   N711    1.334   .     S
F654   C683    1.357   .     S
N662   N711    1.286   .     S
N662   O720    1.341   .     S
C673   O713    1.291   .     A
C673   O712    1.296   .     A
C673   C675    1.429   .     S
C674   C676    1.480   .     S
C674   C687    1.414   .     A
C674   C682    1.408   .     A
C675   C821    1.331   .     S
C675   H850    1.088   .     S
C676   O715    1.309   .     A
C676   O714    1.301   .     A
C677   C678    1.424   .     S
C678   O716    1.287   .     A
C678   O717    1.297   .     A
C679   O718    1.300   .     A
C679   C681    1.464   .     S
C679   O719    1.304   .     A
C680   C689    1.406   .     A
C680   C693    1.392   .     A
C680   F699    1.359   .     S
C681   C693    1.401   .     A
C681   C692    1.399   .     A
C682   F701    1.358   .     S
C682   C683    1.391   .     A
C683   C253    1.393   1_556 S
C684   C687    1.416   .     A
C684   C253    1.415   1_556 S
C684   C256    1.427   1_556 S
C685   H704    1.077   .     S
C686   H708    1.105   .     S
C686   H707    1.115   .     S
C686   H613    1.109   1_655 S
C686   O624    1.400   1_655 S
C687   C691    1.401   .     A
C688   C692    1.410   .     A
C688   C689    1.424   .     A
C690   C691    1.386   .     A
C690   H703    1.084   .     S
C690   C257    1.396   1_556 S
C691   H705    1.077   .     S
C692   F700    1.358   .     S
C693   F696    1.358   .     S
Cu694  O712    1.962   .     S
Cu694  O714    1.941   .     S
Cu694  N711    2.031   .     S
Cu694  Cu695   2.703   .     S
Cu694  O718    1.926   .     S
Cu694  O716    1.955   .     S
Cu695  O717    1.962   .     S
Cu695  N710    2.031   .     S
Cu695  O713    1.955   .     S
Cu695  O719    1.941   .     S
Cu695  O715    1.926   .     S
F697   C821    1.362   .     S
F698   N615    1.334   1_655 S
F702   C587    1.357   1_655 S
N710   N615    1.286   1_655 S
N710   O624    1.341   1_655 S
C721   O761    1.291   .     A
C721   O760    1.296   .     A
C721   C723    1.429   .     S
C722   C724    1.480   .     S
C722   C735    1.414   .     A
C722   C730    1.408   .     A
C723   C437    1.331   1_565 S
C723   H466    1.088   1_565 S
C724   O763    1.309   .     A
C724   O762    1.301   .     A
C725   C726    1.424   .     S
C726   O764    1.287   .     A
C726   O765    1.297   .     A
C727   O766    1.300   .     A
C727   C729    1.464   .     S
C727   O767    1.304   .     A
C728   C737    1.406   .     A
C728   C741    1.392   .     A
C728   F747    1.359   .     S
C729   C741    1.401   .     A
C729   C740    1.399   .     A
C730   F749    1.358   .     S
C730   C731    1.391   .     A
C731   C301    1.393   1_556 S
C731   F846    1.357   1_455 S
C732   C735    1.416   .     A
C732   C301    1.415   1_556 S
C732   C304    1.427   1_556 S
C733   H752    1.077   .     S
C734   H756    1.105   .     S
C734   H755    1.115   .     S
C734   H805    1.109   .     S
C734   O816    1.400   .     S
C735   C739    1.401   .     A
C736   C740    1.410   .     A
C736   C737    1.424   .     A
C738   C739    1.386   .     A
C738   H751    1.084   .     S
C738   C305    1.396   1_556 S
C739   H753    1.077   .     S
C740   F748    1.358   .     S
C741   F744    1.358   .     S
Cu742  O760    1.962   .     S
Cu742  O762    1.941   .     S
Cu742  N759    2.031   .     S
Cu742  Cu743   2.703   .     S
Cu742  O766    1.926   .     S
Cu742  O764    1.955   .     S
Cu743  O765    1.962   .     S
Cu743  N758    2.031   .     S
Cu743  O761    1.955   .     S
Cu743  O767    1.941   .     S
Cu743  O763    1.926   .     S
F745   C437    1.362   1_565 S
F746   N807    1.334   .     S
F750   C779    1.357   .     S
H757   C830    1.109   1_455 S
N758   N807    1.286   .     S
N758   O816    1.341   .     S
N759   N854    1.286   1_455 S
N759   F842    1.334   1_455 S
O768   C830    1.400   1_455 S
O768   N854    1.341   1_455 S
C769   O809    1.291   .     A
C769   O808    1.296   .     A
C769   C771    1.429   .     S
C770   C772    1.480   .     S
C770   C783    1.414   .     A
C770   C778    1.408   .     A
C771   C485    1.331   1_565 S
C771   H514    1.088   1_565 S
C772   O811    1.309   .     A
C772   O810    1.301   .     A
C773   C774    1.424   .     S
C774   O812    1.287   .     A
C774   O813    1.297   .     A
C775   O814    1.300   .     A
C775   C777    1.464   .     S
C775   O815    1.304   .     A
C776   C785    1.406   .     A
C776   C789    1.392   .     A
C776   F795    1.359   .     S
C777   C789    1.401   .     A
C777   C788    1.399   .     A
C778   F797    1.358   .     S
C778   C779    1.391   .     A
C779   C349    1.393   1_556 S
C780   C783    1.416   .     A
C780   C349    1.415   1_556 S
C780   C352    1.427   1_556 S
C781   H800    1.077   .     S
C782   H804    1.105   .     S
C782   H803    1.115   .     S
C782   H853    1.109   .     S
C782   O864    1.400   .     S
C783   C787    1.401   .     A
C784   C788    1.410   .     A
C784   C785    1.424   .     A
C786   C787    1.386   .     A
C786   H799    1.084   .     S
C786   C353    1.396   1_556 S
C787   H801    1.077   .     S
C788   F796    1.358   .     S
C789   F792    1.358   .     S
Cu790  O808    1.962   .     S
Cu790  O810    1.941   .     S
Cu790  N807    2.031   .     S
Cu790  Cu791   2.703   .     S
Cu790  O814    1.926   .     S
Cu790  O812    1.955   .     S
Cu791  O813    1.962   .     S
Cu791  N806    2.031   .     S
Cu791  O809    1.955   .     S
Cu791  O815    1.941   .     S
Cu791  O811    1.926   .     S
F793   C485    1.362   1_565 S
F794   N855    1.334   .     S
F798   C827    1.357   .     S
N806   N855    1.286   .     S
N806   O864    1.341   .     S
C817   O857    1.291   .     A
C817   O856    1.296   .     A
C817   C819    1.429   .     S
C818   C820    1.480   .     S
C818   C831    1.414   .     A
C818   C826    1.408   .     A
C819   C533    1.331   1_565 S
C819   H562    1.088   1_565 S
C820   O859    1.309   .     A
C820   O858    1.301   .     A
C821   C822    1.424   .     S
C822   O860    1.287   .     A
C822   O861    1.297   .     A
C823   O862    1.300   .     A
C823   C825    1.464   .     S
C823   O863    1.304   .     A
C824   C833    1.406   .     A
C824   C837    1.392   .     A
C824   F843    1.359   .     S
C825   C837    1.401   .     A
C825   C836    1.399   .     A
C826   F845    1.358   .     S
C826   C827    1.391   .     A
C827   C397    1.393   1_556 S
C828   C831    1.416   .     A
C828   C397    1.415   1_556 S
C828   C400    1.427   1_556 S
C829   H848    1.077   .     S
C830   H852    1.105   .     S
C830   H851    1.115   .     S
C830   H757    1.109   1_655 S
C830   O768    1.400   1_655 S
C831   C835    1.401   .     A
C832   C836    1.410   .     A
C832   C833    1.424   .     A
C834   C835    1.386   .     A
C834   H847    1.084   .     S
C834   C401    1.396   1_556 S
C835   H849    1.077   .     S
C836   F844    1.358   .     S
C837   F840    1.358   .     S
Cu838  O856    1.962   .     S
Cu838  O858    1.941   .     S
Cu838  N855    2.031   .     S
Cu838  Cu839   2.703   .     S
Cu838  O862    1.926   .     S
Cu838  O860    1.955   .     S
Cu839  O861    1.962   .     S
Cu839  N854    2.031   .     S
Cu839  O857    1.955   .     S
Cu839  O863    1.941   .     S
Cu839  O859    1.926   .     S
F841   C533    1.362   1_565 S
F842   N759    1.334   1_655 S
F846   C731    1.357   1_655 S
N854   N759    1.286   1_655 S
N854   O768    1.341   1_655 S
