data_str_m2_o1_o18_pcu_sym.198
_audit_creation_date              2020-01-03
_audit_creation_method            'Materials Studio'
_symmetry_space_group_name_H-M    'P1'
_symmetry_Int_Tables_number       1
_symmetry_cell_setting            triclinic
loop_
_symmetry_equiv_pos_as_xyz
  x,y,z
_cell_length_a                    28.5609
_cell_length_b                    32.5020
_cell_length_c                    30.9980
_cell_angle_alpha                 89.8842
_cell_angle_beta                  74.4927
_cell_angle_gamma                 90.0097
loop_
_atom_site_label
_atom_site_type_symbol
_atom_site_fract_x
_atom_site_fract_y
_atom_site_fract_z
_atom_site_U_iso_or_equiv
_atom_site_adp_type
_atom_site_occupancy
C1     C     0.33331   0.08736   0.25003   0.00000  Uiso   1.00
C2     C     0.00002   0.24598   0.24996   0.00000  Uiso   1.00
C3     C     0.19529   0.16039   0.04744   0.00000  Uiso   1.00
C4     C     0.14146   0.19211   0.45540   0.00000  Uiso   1.00
C5     C     0.24388   0.15558   0.02485   0.00000  Uiso   1.00
C6     C     0.09303   0.19771   0.47816   0.00000  Uiso   1.00
C7     C     0.29074   0.02127   0.25014   0.00000  Uiso   1.00
C8     C     0.04260   0.31206   0.24984   0.00000  Uiso   1.00
C9     C     0.29076   0.31204   0.25008   0.00000  Uiso   1.00
C10    C     0.04258   0.02129   0.24989   0.00000  Uiso   1.00
C11    C     0.00002   0.29059   0.24995   0.00000  Uiso   1.00
C12    C     0.33332   0.04274   0.25003   0.00000  Uiso   1.00
C13    C     0.18287   0.14268   0.27947   0.00000  Uiso   1.00
C14    C     0.15046   0.19064   0.22052   0.00000  Uiso   1.00
C15    C     0.13327   0.14272   0.27949   0.00000  Uiso   1.00
C16    C     0.20007   0.19061   0.22051   0.00000  Uiso   1.00
C17    C     0.30609   0.16653   0.33608   0.00000  Uiso   1.00
C18    C     0.02724   0.16724   0.16396   0.00000  Uiso   1.00
C19    C     0.29112   0.16579   0.38520   0.00000  Uiso   1.00
C20    C     0.04241   0.17153   0.11510   0.00000  Uiso   1.00
C21    C     0.30841   0.15375   0.45632   0.00000  Uiso   1.00
C22    C     0.02741   0.19440   0.04584   0.00000  Uiso   1.00
C23    C     0.32436   0.15701   0.40992   0.00000  Uiso   1.00
C24    C     0.01038   0.18602   0.09141   0.00000  Uiso   1.00
C25    C     0.24225   0.17258   0.40737   0.00000  Uiso   1.00
C26    C     0.09113   0.16457   0.09270   0.00000  Uiso   1.00
C27    C     0.22541   0.17065   0.45428   0.00000  Uiso   1.00
C28    C     0.10972   0.17436   0.04714   0.00000  Uiso   1.00
C29    C     0.25930   0.16009   0.47860   0.00000  Uiso   1.00
C30    C     0.07665   0.18870   0.02357   0.00000  Uiso   1.00
C31    C     0.17574   0.17758   0.47748   0.00000  Uiso   1.00
C32    C     0.16003   0.17037   0.02449   0.00000  Uiso   1.00
Cu33   Cu    0.04689   0.16667   0.25000   0.00000  Uiso   1.00
Cu34   Cu    0.28645   0.16666   0.25000   0.00000  Uiso   1.00
H35    H     0.26951   0.14772   0.04379   0.00000  Uiso   1.00
H36    H     0.06815   0.20916   0.45995   0.00000  Uiso   1.00
H37    H     0.11372   0.15137   0.11184   0.00000  Uiso   1.00
H38    H     0.21775   0.17808   0.38701   0.00000  Uiso   1.00
H39    H     0.30592   0.19187   0.10827   0.00000  Uiso   1.00
H40    H     0.02899   0.15151   0.39337   0.00000  Uiso   1.00
H41    H     0.25744   0.03727   0.25026   0.00000  Uiso   1.00
H42    H     0.07590   0.29606   0.24972   0.00000  Uiso   1.00
H43    H     0.25748   0.29602   0.25016   0.00000  Uiso   1.00
H44    H     0.07586   0.03731   0.24981   0.00000  Uiso   1.00
H45    H     0.19467   0.12339   0.30303   0.00000  Uiso   1.00
H46    H     0.13866   0.20993   0.19695   0.00000  Uiso   1.00
H47    H     0.10769   0.12351   0.30307   0.00000  Uiso   1.00
H48    H     0.22564   0.20981   0.19692   0.00000  Uiso   1.00
N49    N     0.11736   0.16668   0.24999   0.00000  Uiso   1.00
N50    N     0.21597   0.16666   0.25001   0.00000  Uiso   1.00
O51    O     0.03958   0.10655   0.25000   0.00000  Uiso   1.00
O52    O     0.29375   0.22678   0.25000   0.00000  Uiso   1.00
O53    O     0.29372   0.10654   0.25001   0.00000  Uiso   1.00
O54    O     0.03961   0.22679   0.25000   0.00000  Uiso   1.00
O55    O     0.01852   0.16668   0.31492   0.00000  Uiso   1.00
O56    O     0.31481   0.16666   0.18509   0.00000  Uiso   1.00
O57    O     0.27267   0.16667   0.31492   0.00000  Uiso   1.00
O58    O     0.06067   0.16667   0.18508   0.00000  Uiso   1.00
H59    H     0.00107   0.14561   0.47476   0.00000  Uiso   1.00
H60    H     0.00223   0.20614   0.02813   0.00000  Uiso   1.00
H61    H     0.18697   0.15700   0.08324   0.00000  Uiso   1.00
H62    H     0.15097   0.20075   0.42060   0.00000  Uiso   1.00
C63    C     0.66664   0.08736   0.25003   0.00000  Uiso   1.00
C64    C     0.33336   0.24598   0.24996   0.00000  Uiso   1.00
C65    C     0.52862   0.16039   0.04744   0.00000  Uiso   1.00
C66    C     0.47479   0.19211   0.45540   0.00000  Uiso   1.00
C67    C     0.57721   0.15558   0.02485   0.00000  Uiso   1.00
C68    C     0.42636   0.19771   0.47816   0.00000  Uiso   1.00
C69    C     0.62408   0.02127   0.25014   0.00000  Uiso   1.00
C70    C     0.37593   0.31206   0.24984   0.00000  Uiso   1.00
C71    C     0.62410   0.31204   0.25008   0.00000  Uiso   1.00
C72    C     0.37591   0.02129   0.24989   0.00000  Uiso   1.00
C73    C     0.33336   0.29059   0.24995   0.00000  Uiso   1.00
C74    C     0.66665   0.04274   0.25003   0.00000  Uiso   1.00
C75    C     0.51621   0.14268   0.27947   0.00000  Uiso   1.00
C76    C     0.48380   0.19064   0.22052   0.00000  Uiso   1.00
C77    C     0.46660   0.14272   0.27949   0.00000  Uiso   1.00
C78    C     0.53340   0.19061   0.22051   0.00000  Uiso   1.00
C79    C     0.63942   0.16653   0.33608   0.00000  Uiso   1.00
C80    C     0.36058   0.16724   0.16396   0.00000  Uiso   1.00
C81    C     0.62446   0.16579   0.38520   0.00000  Uiso   1.00
C82    C     0.37574   0.17153   0.11510   0.00000  Uiso   1.00
C83    C     0.64175   0.15375   0.45632   0.00000  Uiso   1.00
C84    C     0.36074   0.19440   0.04584   0.00000  Uiso   1.00
C85    C     0.65770   0.15701   0.40992   0.00000  Uiso   1.00
C86    C     0.34371   0.18602   0.09141   0.00000  Uiso   1.00
C87    C     0.57558   0.17258   0.40737   0.00000  Uiso   1.00
C88    C     0.42446   0.16457   0.09270   0.00000  Uiso   1.00
C89    C     0.55874   0.17065   0.45428   0.00000  Uiso   1.00
C90    C     0.44306   0.17436   0.04714   0.00000  Uiso   1.00
C91    C     0.59263   0.16009   0.47860   0.00000  Uiso   1.00
C92    C     0.40999   0.18870   0.02357   0.00000  Uiso   1.00
C93    C     0.50907   0.17758   0.47748   0.00000  Uiso   1.00
C94    C     0.49336   0.17037   0.02449   0.00000  Uiso   1.00
Cu95   Cu    0.38022   0.16667   0.25000   0.00000  Uiso   1.00
Cu96   Cu    0.61978   0.16666   0.25000   0.00000  Uiso   1.00
H97    H     0.60284   0.14772   0.04379   0.00000  Uiso   1.00
H98    H     0.40149   0.20916   0.45995   0.00000  Uiso   1.00
H99    H     0.44706   0.15137   0.11184   0.00000  Uiso   1.00
H100   H     0.55108   0.17808   0.38701   0.00000  Uiso   1.00
H101   H     0.63925   0.19187   0.10827   0.00000  Uiso   1.00
H102   H     0.36232   0.15151   0.39337   0.00000  Uiso   1.00
H103   H     0.59077   0.03727   0.25026   0.00000  Uiso   1.00
H104   H     0.40924   0.29606   0.24972   0.00000  Uiso   1.00
H105   H     0.59081   0.29602   0.25016   0.00000  Uiso   1.00
H106   H     0.40920   0.03731   0.24981   0.00000  Uiso   1.00
H107   H     0.52801   0.12339   0.30303   0.00000  Uiso   1.00
H108   H     0.47200   0.20993   0.19695   0.00000  Uiso   1.00
H109   H     0.44103   0.12351   0.30307   0.00000  Uiso   1.00
H110   H     0.55898   0.20981   0.19692   0.00000  Uiso   1.00
N111   N     0.45069   0.16668   0.24999   0.00000  Uiso   1.00
N112   N     0.54931   0.16666   0.25001   0.00000  Uiso   1.00
O113   O     0.37291   0.10655   0.25000   0.00000  Uiso   1.00
O114   O     0.62709   0.22678   0.25000   0.00000  Uiso   1.00
O115   O     0.62706   0.10654   0.25001   0.00000  Uiso   1.00
O116   O     0.37294   0.22679   0.25000   0.00000  Uiso   1.00
O117   O     0.35186   0.16668   0.31492   0.00000  Uiso   1.00
O118   O     0.64814   0.16666   0.18509   0.00000  Uiso   1.00
O119   O     0.60600   0.16667   0.31492   0.00000  Uiso   1.00
O120   O     0.39400   0.16667   0.18508   0.00000  Uiso   1.00
H121   H     0.33440   0.14561   0.47476   0.00000  Uiso   1.00
H122   H     0.33557   0.20614   0.02813   0.00000  Uiso   1.00
H123   H     0.52030   0.15700   0.08324   0.00000  Uiso   1.00
H124   H     0.48430   0.20075   0.42060   0.00000  Uiso   1.00
C125   C     0.99998   0.08736   0.25003   0.00000  Uiso   1.00
C126   C     0.66669   0.24598   0.24996   0.00000  Uiso   1.00
C127   C     0.86196   0.16039   0.04744   0.00000  Uiso   1.00
C128   C     0.80812   0.19211   0.45540   0.00000  Uiso   1.00
C129   C     0.91054   0.15558   0.02485   0.00000  Uiso   1.00
C130   C     0.75970   0.19771   0.47816   0.00000  Uiso   1.00
C131   C     0.95741   0.02127   0.25014   0.00000  Uiso   1.00
C132   C     0.70926   0.31206   0.24984   0.00000  Uiso   1.00
C133   C     0.95743   0.31204   0.25008   0.00000  Uiso   1.00
C134   C     0.70924   0.02129   0.24989   0.00000  Uiso   1.00
C135   C     0.66669   0.29059   0.24995   0.00000  Uiso   1.00
C136   C     0.99998   0.04274   0.25003   0.00000  Uiso   1.00
C137   C     0.84954   0.14268   0.27947   0.00000  Uiso   1.00
C138   C     0.81713   0.19064   0.22052   0.00000  Uiso   1.00
C139   C     0.79993   0.14272   0.27949   0.00000  Uiso   1.00
C140   C     0.86674   0.19061   0.22051   0.00000  Uiso   1.00
C141   C     0.97276   0.16653   0.33608   0.00000  Uiso   1.00
C142   C     0.69391   0.16724   0.16396   0.00000  Uiso   1.00
C143   C     0.95779   0.16579   0.38520   0.00000  Uiso   1.00
C144   C     0.70908   0.17153   0.11510   0.00000  Uiso   1.00
C145   C     0.97508   0.15375   0.45632   0.00000  Uiso   1.00
C146   C     0.69407   0.19440   0.04584   0.00000  Uiso   1.00
C147   C     0.99103   0.15701   0.40992   0.00000  Uiso   1.00
C148   C     0.67704   0.18602   0.09141   0.00000  Uiso   1.00
C149   C     0.90891   0.17258   0.40737   0.00000  Uiso   1.00
C150   C     0.75780   0.16457   0.09270   0.00000  Uiso   1.00
C151   C     0.89207   0.17065   0.45428   0.00000  Uiso   1.00
C152   C     0.77639   0.17436   0.04714   0.00000  Uiso   1.00
C153   C     0.92596   0.16009   0.47860   0.00000  Uiso   1.00
C154   C     0.74332   0.18870   0.02357   0.00000  Uiso   1.00
C155   C     0.84240   0.17758   0.47748   0.00000  Uiso   1.00
C156   C     0.82669   0.17037   0.02449   0.00000  Uiso   1.00
Cu157  Cu    0.71355   0.16667   0.25000   0.00000  Uiso   1.00
Cu158  Cu    0.95311   0.16666   0.25000   0.00000  Uiso   1.00
H159   H     0.93617   0.14772   0.04379   0.00000  Uiso   1.00
H160   H     0.73482   0.20916   0.45995   0.00000  Uiso   1.00
H161   H     0.78039   0.15137   0.11184   0.00000  Uiso   1.00
H162   H     0.88442   0.17808   0.38701   0.00000  Uiso   1.00
H163   H     0.97258   0.19187   0.10827   0.00000  Uiso   1.00
H164   H     0.69566   0.15151   0.39337   0.00000  Uiso   1.00
H165   H     0.92410   0.03727   0.25026   0.00000  Uiso   1.00
H166   H     0.74257   0.29606   0.24972   0.00000  Uiso   1.00
H167   H     0.92414   0.29602   0.25016   0.00000  Uiso   1.00
H168   H     0.74253   0.03731   0.24981   0.00000  Uiso   1.00
H169   H     0.86134   0.12339   0.30303   0.00000  Uiso   1.00
H170   H     0.80533   0.20993   0.19695   0.00000  Uiso   1.00
H171   H     0.77436   0.12351   0.30307   0.00000  Uiso   1.00
H172   H     0.89231   0.20981   0.19692   0.00000  Uiso   1.00
N173   N     0.78403   0.16668   0.24999   0.00000  Uiso   1.00
N174   N     0.88264   0.16666   0.25001   0.00000  Uiso   1.00
O175   O     0.70625   0.10655   0.25000   0.00000  Uiso   1.00
O176   O     0.96042   0.22678   0.25000   0.00000  Uiso   1.00
O177   O     0.96039   0.10654   0.25001   0.00000  Uiso   1.00
O178   O     0.70628   0.22679   0.25000   0.00000  Uiso   1.00
O179   O     0.68519   0.16668   0.31492   0.00000  Uiso   1.00
O180   O     0.98148   0.16666   0.18509   0.00000  Uiso   1.00
O181   O     0.93933   0.16667   0.31492   0.00000  Uiso   1.00
O182   O     0.72733   0.16667   0.18508   0.00000  Uiso   1.00
H183   H     0.66773   0.14561   0.47476   0.00000  Uiso   1.00
H184   H     0.66890   0.20614   0.02813   0.00000  Uiso   1.00
H185   H     0.85363   0.15700   0.08324   0.00000  Uiso   1.00
H186   H     0.81764   0.20075   0.42060   0.00000  Uiso   1.00
C187   C     0.33331   0.42069   0.25003   0.00000  Uiso   1.00
C188   C     0.00002   0.57931   0.24996   0.00000  Uiso   1.00
C189   C     0.19529   0.49373   0.04744   0.00000  Uiso   1.00
C190   C     0.14146   0.52544   0.45540   0.00000  Uiso   1.00
C191   C     0.24388   0.48891   0.02485   0.00000  Uiso   1.00
C192   C     0.09303   0.53104   0.47816   0.00000  Uiso   1.00
C193   C     0.29074   0.35460   0.25014   0.00000  Uiso   1.00
C194   C     0.04260   0.64539   0.24984   0.00000  Uiso   1.00
C195   C     0.29076   0.64537   0.25008   0.00000  Uiso   1.00
C196   C     0.04258   0.35463   0.24989   0.00000  Uiso   1.00
C197   C     0.00002   0.62393   0.24995   0.00000  Uiso   1.00
C198   C     0.33332   0.37607   0.25003   0.00000  Uiso   1.00
C199   C     0.18287   0.47602   0.27947   0.00000  Uiso   1.00
C200   C     0.15046   0.52398   0.22052   0.00000  Uiso   1.00
C201   C     0.13327   0.47606   0.27949   0.00000  Uiso   1.00
C202   C     0.20007   0.52394   0.22051   0.00000  Uiso   1.00
C203   C     0.30609   0.49986   0.33608   0.00000  Uiso   1.00
C204   C     0.02724   0.50057   0.16396   0.00000  Uiso   1.00
C205   C     0.29112   0.49912   0.38520   0.00000  Uiso   1.00
C206   C     0.04241   0.50487   0.11510   0.00000  Uiso   1.00
C207   C     0.30841   0.48708   0.45632   0.00000  Uiso   1.00
C208   C     0.02741   0.52773   0.04584   0.00000  Uiso   1.00
C209   C     0.32436   0.49034   0.40992   0.00000  Uiso   1.00
C210   C     0.01038   0.51936   0.09141   0.00000  Uiso   1.00
C211   C     0.24225   0.50591   0.40737   0.00000  Uiso   1.00
C212   C     0.09113   0.49791   0.09270   0.00000  Uiso   1.00
C213   C     0.22541   0.50398   0.45428   0.00000  Uiso   1.00
C214   C     0.10972   0.50769   0.04714   0.00000  Uiso   1.00
C215   C     0.25930   0.49343   0.47860   0.00000  Uiso   1.00
C216   C     0.07665   0.52204   0.02357   0.00000  Uiso   1.00
C217   C     0.17574   0.51091   0.47748   0.00000  Uiso   1.00
C218   C     0.16003   0.50371   0.02449   0.00000  Uiso   1.00
Cu219  Cu    0.04689   0.50001   0.25000   0.00000  Uiso   1.00
Cu220  Cu    0.28645   0.49999   0.25000   0.00000  Uiso   1.00
H221   H     0.26951   0.48105   0.04379   0.00000  Uiso   1.00
H222   H     0.06815   0.54250   0.45995   0.00000  Uiso   1.00
H223   H     0.11372   0.48470   0.11184   0.00000  Uiso   1.00
H224   H     0.21775   0.51142   0.38701   0.00000  Uiso   1.00
H225   H     0.30592   0.52521   0.10827   0.00000  Uiso   1.00
H226   H     0.02899   0.48484   0.39337   0.00000  Uiso   1.00
H227   H     0.25744   0.37060   0.25026   0.00000  Uiso   1.00
H228   H     0.07590   0.62940   0.24972   0.00000  Uiso   1.00
H229   H     0.25748   0.62935   0.25016   0.00000  Uiso   1.00
H230   H     0.07586   0.37064   0.24981   0.00000  Uiso   1.00
H231   H     0.19467   0.45673   0.30303   0.00000  Uiso   1.00
H232   H     0.13866   0.54326   0.19695   0.00000  Uiso   1.00
H233   H     0.10769   0.45684   0.30307   0.00000  Uiso   1.00
H234   H     0.22564   0.54315   0.19692   0.00000  Uiso   1.00
N235   N     0.11736   0.50001   0.24999   0.00000  Uiso   1.00
N236   N     0.21597   0.49999   0.25001   0.00000  Uiso   1.00
O237   O     0.03958   0.43989   0.25000   0.00000  Uiso   1.00
O238   O     0.29375   0.56011   0.25000   0.00000  Uiso   1.00
O239   O     0.29372   0.43988   0.25001   0.00000  Uiso   1.00
O240   O     0.03961   0.56012   0.25000   0.00000  Uiso   1.00
O241   O     0.01852   0.50001   0.31492   0.00000  Uiso   1.00
O242   O     0.31481   0.49999   0.18509   0.00000  Uiso   1.00
O243   O     0.27267   0.50000   0.31492   0.00000  Uiso   1.00
O244   O     0.06067   0.50000   0.18508   0.00000  Uiso   1.00
H245   H     0.00107   0.47894   0.47476   0.00000  Uiso   1.00
H246   H     0.00223   0.53947   0.02813   0.00000  Uiso   1.00
H247   H     0.18697   0.49034   0.08324   0.00000  Uiso   1.00
H248   H     0.15097   0.53408   0.42060   0.00000  Uiso   1.00
C249   C     0.66664   0.42069   0.25003   0.00000  Uiso   1.00
C250   C     0.33336   0.57931   0.24996   0.00000  Uiso   1.00
C251   C     0.52862   0.49373   0.04744   0.00000  Uiso   1.00
C252   C     0.47479   0.52544   0.45540   0.00000  Uiso   1.00
C253   C     0.57721   0.48891   0.02485   0.00000  Uiso   1.00
C254   C     0.42636   0.53104   0.47816   0.00000  Uiso   1.00
C255   C     0.62408   0.35460   0.25014   0.00000  Uiso   1.00
C256   C     0.37593   0.64539   0.24984   0.00000  Uiso   1.00
C257   C     0.62410   0.64537   0.25008   0.00000  Uiso   1.00
C258   C     0.37591   0.35463   0.24989   0.00000  Uiso   1.00
C259   C     0.33336   0.62393   0.24995   0.00000  Uiso   1.00
C260   C     0.66665   0.37607   0.25003   0.00000  Uiso   1.00
C261   C     0.51621   0.47602   0.27947   0.00000  Uiso   1.00
C262   C     0.48380   0.52398   0.22052   0.00000  Uiso   1.00
C263   C     0.46660   0.47606   0.27949   0.00000  Uiso   1.00
C264   C     0.53340   0.52394   0.22051   0.00000  Uiso   1.00
C265   C     0.63942   0.49986   0.33608   0.00000  Uiso   1.00
C266   C     0.36058   0.50057   0.16396   0.00000  Uiso   1.00
C267   C     0.62446   0.49912   0.38520   0.00000  Uiso   1.00
C268   C     0.37574   0.50487   0.11510   0.00000  Uiso   1.00
C269   C     0.64175   0.48708   0.45632   0.00000  Uiso   1.00
C270   C     0.36074   0.52773   0.04584   0.00000  Uiso   1.00
C271   C     0.65770   0.49034   0.40992   0.00000  Uiso   1.00
C272   C     0.34371   0.51936   0.09141   0.00000  Uiso   1.00
C273   C     0.57558   0.50591   0.40737   0.00000  Uiso   1.00
C274   C     0.42446   0.49791   0.09270   0.00000  Uiso   1.00
C275   C     0.55874   0.50398   0.45428   0.00000  Uiso   1.00
C276   C     0.44306   0.50769   0.04714   0.00000  Uiso   1.00
C277   C     0.59263   0.49343   0.47860   0.00000  Uiso   1.00
C278   C     0.40999   0.52204   0.02357   0.00000  Uiso   1.00
C279   C     0.50907   0.51091   0.47748   0.00000  Uiso   1.00
C280   C     0.49336   0.50371   0.02449   0.00000  Uiso   1.00
Cu281  Cu    0.38022   0.50001   0.25000   0.00000  Uiso   1.00
Cu282  Cu    0.61978   0.49999   0.25000   0.00000  Uiso   1.00
H283   H     0.60284   0.48105   0.04379   0.00000  Uiso   1.00
H284   H     0.40149   0.54250   0.45995   0.00000  Uiso   1.00
H285   H     0.44706   0.48470   0.11184   0.00000  Uiso   1.00
H286   H     0.55108   0.51142   0.38701   0.00000  Uiso   1.00
H287   H     0.63925   0.52521   0.10827   0.00000  Uiso   1.00
H288   H     0.36232   0.48484   0.39337   0.00000  Uiso   1.00
H289   H     0.59077   0.37060   0.25026   0.00000  Uiso   1.00
H290   H     0.40924   0.62940   0.24972   0.00000  Uiso   1.00
H291   H     0.59081   0.62935   0.25016   0.00000  Uiso   1.00
H292   H     0.40920   0.37064   0.24981   0.00000  Uiso   1.00
H293   H     0.52801   0.45673   0.30303   0.00000  Uiso   1.00
H294   H     0.47200   0.54326   0.19695   0.00000  Uiso   1.00
H295   H     0.44103   0.45684   0.30307   0.00000  Uiso   1.00
H296   H     0.55898   0.54315   0.19692   0.00000  Uiso   1.00
N297   N     0.45069   0.50001   0.24999   0.00000  Uiso   1.00
N298   N     0.54931   0.49999   0.25001   0.00000  Uiso   1.00
O299   O     0.37291   0.43989   0.25000   0.00000  Uiso   1.00
O300   O     0.62709   0.56011   0.25000   0.00000  Uiso   1.00
O301   O     0.62706   0.43988   0.25001   0.00000  Uiso   1.00
O302   O     0.37294   0.56012   0.25000   0.00000  Uiso   1.00
O303   O     0.35186   0.50001   0.31492   0.00000  Uiso   1.00
O304   O     0.64814   0.49999   0.18509   0.00000  Uiso   1.00
O305   O     0.60600   0.50000   0.31492   0.00000  Uiso   1.00
O306   O     0.39400   0.50000   0.18508   0.00000  Uiso   1.00
H307   H     0.33440   0.47894   0.47476   0.00000  Uiso   1.00
H308   H     0.33557   0.53947   0.02813   0.00000  Uiso   1.00
H309   H     0.52030   0.49034   0.08324   0.00000  Uiso   1.00
H310   H     0.48430   0.53408   0.42060   0.00000  Uiso   1.00
C311   C     0.99998   0.42069   0.25003   0.00000  Uiso   1.00
C312   C     0.66669   0.57931   0.24996   0.00000  Uiso   1.00
C313   C     0.86196   0.49373   0.04744   0.00000  Uiso   1.00
C314   C     0.80812   0.52544   0.45540   0.00000  Uiso   1.00
C315   C     0.91054   0.48891   0.02485   0.00000  Uiso   1.00
C316   C     0.75970   0.53104   0.47816   0.00000  Uiso   1.00
C317   C     0.95741   0.35460   0.25014   0.00000  Uiso   1.00
C318   C     0.70926   0.64539   0.24984   0.00000  Uiso   1.00
C319   C     0.95743   0.64537   0.25008   0.00000  Uiso   1.00
C320   C     0.70924   0.35463   0.24989   0.00000  Uiso   1.00
C321   C     0.66669   0.62393   0.24995   0.00000  Uiso   1.00
C322   C     0.99998   0.37607   0.25003   0.00000  Uiso   1.00
C323   C     0.84954   0.47602   0.27947   0.00000  Uiso   1.00
C324   C     0.81713   0.52398   0.22052   0.00000  Uiso   1.00
C325   C     0.79993   0.47606   0.27949   0.00000  Uiso   1.00
C326   C     0.86674   0.52394   0.22051   0.00000  Uiso   1.00
C327   C     0.97276   0.49986   0.33608   0.00000  Uiso   1.00
C328   C     0.69391   0.50057   0.16396   0.00000  Uiso   1.00
C329   C     0.95779   0.49912   0.38520   0.00000  Uiso   1.00
C330   C     0.70908   0.50487   0.11510   0.00000  Uiso   1.00
C331   C     0.97508   0.48708   0.45632   0.00000  Uiso   1.00
C332   C     0.69407   0.52773   0.04584   0.00000  Uiso   1.00
C333   C     0.99103   0.49034   0.40992   0.00000  Uiso   1.00
C334   C     0.67704   0.51936   0.09141   0.00000  Uiso   1.00
C335   C     0.90891   0.50591   0.40737   0.00000  Uiso   1.00
C336   C     0.75780   0.49791   0.09270   0.00000  Uiso   1.00
C337   C     0.89207   0.50398   0.45428   0.00000  Uiso   1.00
C338   C     0.77639   0.50769   0.04714   0.00000  Uiso   1.00
C339   C     0.92596   0.49343   0.47860   0.00000  Uiso   1.00
C340   C     0.74332   0.52204   0.02357   0.00000  Uiso   1.00
C341   C     0.84240   0.51091   0.47748   0.00000  Uiso   1.00
C342   C     0.82669   0.50371   0.02449   0.00000  Uiso   1.00
Cu343  Cu    0.71355   0.50001   0.25000   0.00000  Uiso   1.00
Cu344  Cu    0.95311   0.49999   0.25000   0.00000  Uiso   1.00
H345   H     0.93617   0.48105   0.04379   0.00000  Uiso   1.00
H346   H     0.73482   0.54250   0.45995   0.00000  Uiso   1.00
H347   H     0.78039   0.48470   0.11184   0.00000  Uiso   1.00
H348   H     0.88442   0.51142   0.38701   0.00000  Uiso   1.00
H349   H     0.97258   0.52521   0.10827   0.00000  Uiso   1.00
H350   H     0.69566   0.48484   0.39337   0.00000  Uiso   1.00
H351   H     0.92410   0.37060   0.25026   0.00000  Uiso   1.00
H352   H     0.74257   0.62940   0.24972   0.00000  Uiso   1.00
H353   H     0.92414   0.62935   0.25016   0.00000  Uiso   1.00
H354   H     0.74253   0.37064   0.24981   0.00000  Uiso   1.00
H355   H     0.86134   0.45673   0.30303   0.00000  Uiso   1.00
H356   H     0.80533   0.54326   0.19695   0.00000  Uiso   1.00
H357   H     0.77436   0.45684   0.30307   0.00000  Uiso   1.00
H358   H     0.89231   0.54315   0.19692   0.00000  Uiso   1.00
N359   N     0.78403   0.50001   0.24999   0.00000  Uiso   1.00
N360   N     0.88264   0.49999   0.25001   0.00000  Uiso   1.00
O361   O     0.70625   0.43989   0.25000   0.00000  Uiso   1.00
O362   O     0.96042   0.56011   0.25000   0.00000  Uiso   1.00
O363   O     0.96039   0.43988   0.25001   0.00000  Uiso   1.00
O364   O     0.70628   0.56012   0.25000   0.00000  Uiso   1.00
O365   O     0.68519   0.50001   0.31492   0.00000  Uiso   1.00
O366   O     0.98148   0.49999   0.18509   0.00000  Uiso   1.00
O367   O     0.93933   0.50000   0.31492   0.00000  Uiso   1.00
O368   O     0.72733   0.50000   0.18508   0.00000  Uiso   1.00
H369   H     0.66773   0.47894   0.47476   0.00000  Uiso   1.00
H370   H     0.66890   0.53947   0.02813   0.00000  Uiso   1.00
H371   H     0.85363   0.49034   0.08324   0.00000  Uiso   1.00
H372   H     0.81764   0.53408   0.42060   0.00000  Uiso   1.00
C373   C     0.33331   0.75402   0.25003   0.00000  Uiso   1.00
C374   C     0.00002   0.91264   0.24996   0.00000  Uiso   1.00
C375   C     0.19529   0.82706   0.04744   0.00000  Uiso   1.00
C376   C     0.14146   0.85877   0.45540   0.00000  Uiso   1.00
C377   C     0.24388   0.82224   0.02485   0.00000  Uiso   1.00
C378   C     0.09303   0.86437   0.47816   0.00000  Uiso   1.00
C379   C     0.29074   0.68794   0.25014   0.00000  Uiso   1.00
C380   C     0.04260   0.97873   0.24984   0.00000  Uiso   1.00
C381   C     0.29076   0.97870   0.25008   0.00000  Uiso   1.00
C382   C     0.04258   0.68796   0.24989   0.00000  Uiso   1.00
C383   C     0.00002   0.95726   0.24995   0.00000  Uiso   1.00
C384   C     0.33332   0.70941   0.25003   0.00000  Uiso   1.00
C385   C     0.18287   0.80935   0.27947   0.00000  Uiso   1.00
C386   C     0.15046   0.85731   0.22052   0.00000  Uiso   1.00
C387   C     0.13327   0.80939   0.27949   0.00000  Uiso   1.00
C388   C     0.20007   0.85727   0.22051   0.00000  Uiso   1.00
C389   C     0.30609   0.83319   0.33608   0.00000  Uiso   1.00
C390   C     0.02724   0.83391   0.16396   0.00000  Uiso   1.00
C391   C     0.29112   0.83245   0.38520   0.00000  Uiso   1.00
C392   C     0.04241   0.83820   0.11510   0.00000  Uiso   1.00
C393   C     0.30841   0.82041   0.45632   0.00000  Uiso   1.00
C394   C     0.02741   0.86107   0.04584   0.00000  Uiso   1.00
C395   C     0.32436   0.82367   0.40992   0.00000  Uiso   1.00
C396   C     0.01038   0.85269   0.09141   0.00000  Uiso   1.00
C397   C     0.24225   0.83924   0.40737   0.00000  Uiso   1.00
C398   C     0.09113   0.83124   0.09270   0.00000  Uiso   1.00
C399   C     0.22541   0.83732   0.45428   0.00000  Uiso   1.00
C400   C     0.10972   0.84103   0.04714   0.00000  Uiso   1.00
C401   C     0.25930   0.82676   0.47860   0.00000  Uiso   1.00
C402   C     0.07665   0.85537   0.02357   0.00000  Uiso   1.00
C403   C     0.17574   0.84424   0.47748   0.00000  Uiso   1.00
C404   C     0.16003   0.83704   0.02449   0.00000  Uiso   1.00
Cu405  Cu    0.04689   0.83334   0.25000   0.00000  Uiso   1.00
Cu406  Cu    0.28645   0.83333   0.25000   0.00000  Uiso   1.00
H407   H     0.26951   0.81438   0.04379   0.00000  Uiso   1.00
H408   H     0.06815   0.87583   0.45995   0.00000  Uiso   1.00
H409   H     0.11372   0.81803   0.11184   0.00000  Uiso   1.00
H410   H     0.21775   0.84475   0.38701   0.00000  Uiso   1.00
H411   H     0.30592   0.85854   0.10827   0.00000  Uiso   1.00
H412   H     0.02899   0.81818   0.39337   0.00000  Uiso   1.00
H413   H     0.25744   0.70394   0.25026   0.00000  Uiso   1.00
H414   H     0.07590   0.96273   0.24972   0.00000  Uiso   1.00
H415   H     0.25748   0.96269   0.25016   0.00000  Uiso   1.00
H416   H     0.07586   0.70398   0.24981   0.00000  Uiso   1.00
H417   H     0.19467   0.79006   0.30303   0.00000  Uiso   1.00
H418   H     0.13866   0.87659   0.19695   0.00000  Uiso   1.00
H419   H     0.10769   0.79018   0.30307   0.00000  Uiso   1.00
H420   H     0.22564   0.87648   0.19692   0.00000  Uiso   1.00
N421   N     0.11736   0.83334   0.24999   0.00000  Uiso   1.00
N422   N     0.21597   0.83332   0.25001   0.00000  Uiso   1.00
O423   O     0.03958   0.77322   0.25000   0.00000  Uiso   1.00
O424   O     0.29375   0.89345   0.25000   0.00000  Uiso   1.00
O425   O     0.29372   0.77321   0.25001   0.00000  Uiso   1.00
O426   O     0.03961   0.89346   0.25000   0.00000  Uiso   1.00
O427   O     0.01852   0.83334   0.31492   0.00000  Uiso   1.00
O428   O     0.31481   0.83332   0.18509   0.00000  Uiso   1.00
O429   O     0.27267   0.83333   0.31492   0.00000  Uiso   1.00
O430   O     0.06067   0.83333   0.18508   0.00000  Uiso   1.00
H431   H     0.00107   0.81228   0.47476   0.00000  Uiso   1.00
H432   H     0.00223   0.87280   0.02813   0.00000  Uiso   1.00
H433   H     0.18697   0.82367   0.08324   0.00000  Uiso   1.00
H434   H     0.15097   0.86742   0.42060   0.00000  Uiso   1.00
C435   C     0.66664   0.75402   0.25003   0.00000  Uiso   1.00
C436   C     0.33336   0.91264   0.24996   0.00000  Uiso   1.00
C437   C     0.52862   0.82706   0.04744   0.00000  Uiso   1.00
C438   C     0.47479   0.85877   0.45540   0.00000  Uiso   1.00
C439   C     0.57721   0.82224   0.02485   0.00000  Uiso   1.00
C440   C     0.42636   0.86437   0.47816   0.00000  Uiso   1.00
C441   C     0.62408   0.68794   0.25014   0.00000  Uiso   1.00
C442   C     0.37593   0.97873   0.24984   0.00000  Uiso   1.00
C443   C     0.62410   0.97870   0.25008   0.00000  Uiso   1.00
C444   C     0.37591   0.68796   0.24989   0.00000  Uiso   1.00
C445   C     0.33336   0.95726   0.24995   0.00000  Uiso   1.00
C446   C     0.66665   0.70941   0.25003   0.00000  Uiso   1.00
C447   C     0.51621   0.80935   0.27947   0.00000  Uiso   1.00
C448   C     0.48380   0.85731   0.22052   0.00000  Uiso   1.00
C449   C     0.46660   0.80939   0.27949   0.00000  Uiso   1.00
C450   C     0.53340   0.85727   0.22051   0.00000  Uiso   1.00
C451   C     0.63942   0.83319   0.33608   0.00000  Uiso   1.00
C452   C     0.36058   0.83391   0.16396   0.00000  Uiso   1.00
C453   C     0.62446   0.83245   0.38520   0.00000  Uiso   1.00
C454   C     0.37574   0.83820   0.11510   0.00000  Uiso   1.00
C455   C     0.64175   0.82041   0.45632   0.00000  Uiso   1.00
C456   C     0.36074   0.86107   0.04584   0.00000  Uiso   1.00
C457   C     0.65770   0.82367   0.40992   0.00000  Uiso   1.00
C458   C     0.34371   0.85269   0.09141   0.00000  Uiso   1.00
C459   C     0.57558   0.83924   0.40737   0.00000  Uiso   1.00
C460   C     0.42446   0.83124   0.09270   0.00000  Uiso   1.00
C461   C     0.55874   0.83732   0.45428   0.00000  Uiso   1.00
C462   C     0.44306   0.84103   0.04714   0.00000  Uiso   1.00
C463   C     0.59263   0.82676   0.47860   0.00000  Uiso   1.00
C464   C     0.40999   0.85537   0.02357   0.00000  Uiso   1.00
C465   C     0.50907   0.84424   0.47748   0.00000  Uiso   1.00
C466   C     0.49336   0.83704   0.02449   0.00000  Uiso   1.00
Cu467  Cu    0.38022   0.83334   0.25000   0.00000  Uiso   1.00
Cu468  Cu    0.61978   0.83333   0.25000   0.00000  Uiso   1.00
H469   H     0.60284   0.81438   0.04379   0.00000  Uiso   1.00
H470   H     0.40149   0.87583   0.45995   0.00000  Uiso   1.00
H471   H     0.44706   0.81803   0.11184   0.00000  Uiso   1.00
H472   H     0.55108   0.84475   0.38701   0.00000  Uiso   1.00
H473   H     0.63925   0.85854   0.10827   0.00000  Uiso   1.00
H474   H     0.36232   0.81818   0.39337   0.00000  Uiso   1.00
H475   H     0.59077   0.70394   0.25026   0.00000  Uiso   1.00
H476   H     0.40924   0.96273   0.24972   0.00000  Uiso   1.00
H477   H     0.59081   0.96269   0.25016   0.00000  Uiso   1.00
H478   H     0.40920   0.70398   0.24981   0.00000  Uiso   1.00
H479   H     0.52801   0.79006   0.30303   0.00000  Uiso   1.00
H480   H     0.47200   0.87659   0.19695   0.00000  Uiso   1.00
H481   H     0.44103   0.79018   0.30307   0.00000  Uiso   1.00
H482   H     0.55898   0.87648   0.19692   0.00000  Uiso   1.00
N483   N     0.45069   0.83334   0.24999   0.00000  Uiso   1.00
N484   N     0.54931   0.83332   0.25001   0.00000  Uiso   1.00
O485   O     0.37291   0.77322   0.25000   0.00000  Uiso   1.00
O486   O     0.62709   0.89345   0.25000   0.00000  Uiso   1.00
O487   O     0.62706   0.77321   0.25001   0.00000  Uiso   1.00
O488   O     0.37294   0.89346   0.25000   0.00000  Uiso   1.00
O489   O     0.35186   0.83334   0.31492   0.00000  Uiso   1.00
O490   O     0.64814   0.83332   0.18509   0.00000  Uiso   1.00
O491   O     0.60600   0.83333   0.31492   0.00000  Uiso   1.00
O492   O     0.39400   0.83333   0.18508   0.00000  Uiso   1.00
H493   H     0.33440   0.81228   0.47476   0.00000  Uiso   1.00
H494   H     0.33557   0.87280   0.02813   0.00000  Uiso   1.00
H495   H     0.52030   0.82367   0.08324   0.00000  Uiso   1.00
H496   H     0.48430   0.86742   0.42060   0.00000  Uiso   1.00
C497   C     0.99998   0.75402   0.25003   0.00000  Uiso   1.00
C498   C     0.66669   0.91264   0.24996   0.00000  Uiso   1.00
C499   C     0.86196   0.82706   0.04744   0.00000  Uiso   1.00
C500   C     0.80812   0.85877   0.45540   0.00000  Uiso   1.00
C501   C     0.91054   0.82224   0.02485   0.00000  Uiso   1.00
C502   C     0.75970   0.86437   0.47816   0.00000  Uiso   1.00
C503   C     0.95741   0.68794   0.25014   0.00000  Uiso   1.00
C504   C     0.70926   0.97873   0.24984   0.00000  Uiso   1.00
C505   C     0.95743   0.97870   0.25008   0.00000  Uiso   1.00
C506   C     0.70924   0.68796   0.24989   0.00000  Uiso   1.00
C507   C     0.66669   0.95726   0.24995   0.00000  Uiso   1.00
C508   C     0.99998   0.70941   0.25003   0.00000  Uiso   1.00
C509   C     0.84954   0.80935   0.27947   0.00000  Uiso   1.00
C510   C     0.81713   0.85731   0.22052   0.00000  Uiso   1.00
C511   C     0.79993   0.80939   0.27949   0.00000  Uiso   1.00
C512   C     0.86674   0.85727   0.22051   0.00000  Uiso   1.00
C513   C     0.97276   0.83319   0.33608   0.00000  Uiso   1.00
C514   C     0.69391   0.83391   0.16396   0.00000  Uiso   1.00
C515   C     0.95779   0.83245   0.38520   0.00000  Uiso   1.00
C516   C     0.70908   0.83820   0.11510   0.00000  Uiso   1.00
C517   C     0.97508   0.82041   0.45632   0.00000  Uiso   1.00
C518   C     0.69407   0.86107   0.04584   0.00000  Uiso   1.00
C519   C     0.99103   0.82367   0.40992   0.00000  Uiso   1.00
C520   C     0.67704   0.85269   0.09141   0.00000  Uiso   1.00
C521   C     0.90891   0.83924   0.40737   0.00000  Uiso   1.00
C522   C     0.75780   0.83124   0.09270   0.00000  Uiso   1.00
C523   C     0.89207   0.83732   0.45428   0.00000  Uiso   1.00
C524   C     0.77639   0.84103   0.04714   0.00000  Uiso   1.00
C525   C     0.92596   0.82676   0.47860   0.00000  Uiso   1.00
C526   C     0.74332   0.85537   0.02357   0.00000  Uiso   1.00
C527   C     0.84240   0.84424   0.47748   0.00000  Uiso   1.00
C528   C     0.82669   0.83704   0.02449   0.00000  Uiso   1.00
Cu529  Cu    0.71355   0.83334   0.25000   0.00000  Uiso   1.00
Cu530  Cu    0.95311   0.83333   0.25000   0.00000  Uiso   1.00
H531   H     0.93617   0.81438   0.04379   0.00000  Uiso   1.00
H532   H     0.73482   0.87583   0.45995   0.00000  Uiso   1.00
H533   H     0.78039   0.81803   0.11184   0.00000  Uiso   1.00
H534   H     0.88442   0.84475   0.38701   0.00000  Uiso   1.00
H535   H     0.97258   0.85854   0.10827   0.00000  Uiso   1.00
H536   H     0.69566   0.81818   0.39337   0.00000  Uiso   1.00
H537   H     0.92410   0.70394   0.25026   0.00000  Uiso   1.00
H538   H     0.74257   0.96273   0.24972   0.00000  Uiso   1.00
H539   H     0.92414   0.96269   0.25016   0.00000  Uiso   1.00
H540   H     0.74253   0.70398   0.24981   0.00000  Uiso   1.00
H541   H     0.86134   0.79006   0.30303   0.00000  Uiso   1.00
H542   H     0.80533   0.87659   0.19695   0.00000  Uiso   1.00
H543   H     0.77436   0.79018   0.30307   0.00000  Uiso   1.00
H544   H     0.89231   0.87648   0.19692   0.00000  Uiso   1.00
N545   N     0.78403   0.83334   0.24999   0.00000  Uiso   1.00
N546   N     0.88264   0.83332   0.25001   0.00000  Uiso   1.00
O547   O     0.70625   0.77322   0.25000   0.00000  Uiso   1.00
O548   O     0.96042   0.89345   0.25000   0.00000  Uiso   1.00
O549   O     0.96039   0.77321   0.25001   0.00000  Uiso   1.00
O550   O     0.70628   0.89346   0.25000   0.00000  Uiso   1.00
O551   O     0.68519   0.83334   0.31492   0.00000  Uiso   1.00
O552   O     0.98148   0.83332   0.18509   0.00000  Uiso   1.00
O553   O     0.93933   0.83333   0.31492   0.00000  Uiso   1.00
O554   O     0.72733   0.83333   0.18508   0.00000  Uiso   1.00
H555   H     0.66773   0.81228   0.47476   0.00000  Uiso   1.00
H556   H     0.66890   0.87280   0.02813   0.00000  Uiso   1.00
H557   H     0.85363   0.82367   0.08324   0.00000  Uiso   1.00
H558   H     0.81764   0.86742   0.42060   0.00000  Uiso   1.00
C559   C     0.33331   0.08736   0.75003   0.00000  Uiso   1.00
C560   C     0.00002   0.24598   0.74996   0.00000  Uiso   1.00
C561   C     0.19529   0.16039   0.54744   0.00000  Uiso   1.00
C562   C     0.14146   0.19211   0.95540   0.00000  Uiso   1.00
C563   C     0.24388   0.15558   0.52485   0.00000  Uiso   1.00
C564   C     0.09303   0.19771   0.97816   0.00000  Uiso   1.00
C565   C     0.29074   0.02127   0.75014   0.00000  Uiso   1.00
C566   C     0.04260   0.31206   0.74984   0.00000  Uiso   1.00
C567   C     0.29076   0.31204   0.75008   0.00000  Uiso   1.00
C568   C     0.04258   0.02129   0.74989   0.00000  Uiso   1.00
C569   C     0.00002   0.29059   0.74995   0.00000  Uiso   1.00
C570   C     0.33332   0.04274   0.75003   0.00000  Uiso   1.00
C571   C     0.18287   0.14268   0.77947   0.00000  Uiso   1.00
C572   C     0.15046   0.19064   0.72052   0.00000  Uiso   1.00
C573   C     0.13327   0.14272   0.77949   0.00000  Uiso   1.00
C574   C     0.20007   0.19061   0.72051   0.00000  Uiso   1.00
C575   C     0.30609   0.16653   0.83608   0.00000  Uiso   1.00
C576   C     0.02724   0.16724   0.66396   0.00000  Uiso   1.00
C577   C     0.29112   0.16579   0.88520   0.00000  Uiso   1.00
C578   C     0.04241   0.17153   0.61510   0.00000  Uiso   1.00
C579   C     0.30841   0.15375   0.95632   0.00000  Uiso   1.00
C580   C     0.02741   0.19440   0.54584   0.00000  Uiso   1.00
C581   C     0.32436   0.15701   0.90992   0.00000  Uiso   1.00
C582   C     0.01038   0.18602   0.59141   0.00000  Uiso   1.00
C583   C     0.24225   0.17258   0.90737   0.00000  Uiso   1.00
C584   C     0.09113   0.16457   0.59270   0.00000  Uiso   1.00
C585   C     0.22541   0.17065   0.95428   0.00000  Uiso   1.00
C586   C     0.10972   0.17436   0.54714   0.00000  Uiso   1.00
C587   C     0.25930   0.16009   0.97860   0.00000  Uiso   1.00
C588   C     0.07665   0.18870   0.52357   0.00000  Uiso   1.00
C589   C     0.17574   0.17758   0.97748   0.00000  Uiso   1.00
C590   C     0.16003   0.17037   0.52449   0.00000  Uiso   1.00
Cu591  Cu    0.04689   0.16667   0.75000   0.00000  Uiso   1.00
Cu592  Cu    0.28645   0.16666   0.75000   0.00000  Uiso   1.00
H593   H     0.26951   0.14772   0.54379   0.00000  Uiso   1.00
H594   H     0.06815   0.20916   0.95995   0.00000  Uiso   1.00
H595   H     0.11372   0.15137   0.61184   0.00000  Uiso   1.00
H596   H     0.21775   0.17808   0.88701   0.00000  Uiso   1.00
H597   H     0.30592   0.19187   0.60827   0.00000  Uiso   1.00
H598   H     0.02899   0.15151   0.89337   0.00000  Uiso   1.00
H599   H     0.25744   0.03727   0.75026   0.00000  Uiso   1.00
H600   H     0.07590   0.29606   0.74972   0.00000  Uiso   1.00
H601   H     0.25748   0.29602   0.75016   0.00000  Uiso   1.00
H602   H     0.07586   0.03731   0.74981   0.00000  Uiso   1.00
H603   H     0.19467   0.12339   0.80303   0.00000  Uiso   1.00
H604   H     0.13866   0.20993   0.69695   0.00000  Uiso   1.00
H605   H     0.10769   0.12351   0.80307   0.00000  Uiso   1.00
H606   H     0.22564   0.20981   0.69692   0.00000  Uiso   1.00
N607   N     0.11736   0.16668   0.74999   0.00000  Uiso   1.00
N608   N     0.21597   0.16666   0.75001   0.00000  Uiso   1.00
O609   O     0.03958   0.10655   0.75000   0.00000  Uiso   1.00
O610   O     0.29375   0.22678   0.75000   0.00000  Uiso   1.00
O611   O     0.29372   0.10654   0.75001   0.00000  Uiso   1.00
O612   O     0.03961   0.22679   0.75000   0.00000  Uiso   1.00
O613   O     0.01852   0.16668   0.81492   0.00000  Uiso   1.00
O614   O     0.31481   0.16666   0.68509   0.00000  Uiso   1.00
O615   O     0.27267   0.16667   0.81492   0.00000  Uiso   1.00
O616   O     0.06067   0.16667   0.68508   0.00000  Uiso   1.00
H617   H     0.00107   0.14561   0.97476   0.00000  Uiso   1.00
H618   H     0.00223   0.20614   0.52813   0.00000  Uiso   1.00
H619   H     0.18697   0.15700   0.58324   0.00000  Uiso   1.00
H620   H     0.15097   0.20075   0.92060   0.00000  Uiso   1.00
C621   C     0.66664   0.08736   0.75003   0.00000  Uiso   1.00
C622   C     0.33336   0.24598   0.74996   0.00000  Uiso   1.00
C623   C     0.52862   0.16039   0.54744   0.00000  Uiso   1.00
C624   C     0.47479   0.19211   0.95540   0.00000  Uiso   1.00
C625   C     0.57721   0.15558   0.52485   0.00000  Uiso   1.00
C626   C     0.42636   0.19771   0.97816   0.00000  Uiso   1.00
C627   C     0.62408   0.02127   0.75014   0.00000  Uiso   1.00
C628   C     0.37593   0.31206   0.74984   0.00000  Uiso   1.00
C629   C     0.62410   0.31204   0.75008   0.00000  Uiso   1.00
C630   C     0.37591   0.02129   0.74989   0.00000  Uiso   1.00
C631   C     0.33336   0.29059   0.74995   0.00000  Uiso   1.00
C632   C     0.66665   0.04274   0.75003   0.00000  Uiso   1.00
C633   C     0.51621   0.14268   0.77947   0.00000  Uiso   1.00
C634   C     0.48380   0.19064   0.72052   0.00000  Uiso   1.00
C635   C     0.46660   0.14272   0.77949   0.00000  Uiso   1.00
C636   C     0.53340   0.19061   0.72051   0.00000  Uiso   1.00
C637   C     0.63942   0.16653   0.83608   0.00000  Uiso   1.00
C638   C     0.36058   0.16724   0.66396   0.00000  Uiso   1.00
C639   C     0.62446   0.16579   0.88520   0.00000  Uiso   1.00
C640   C     0.37574   0.17153   0.61510   0.00000  Uiso   1.00
C641   C     0.64175   0.15375   0.95632   0.00000  Uiso   1.00
C642   C     0.36074   0.19440   0.54584   0.00000  Uiso   1.00
C643   C     0.65770   0.15701   0.90992   0.00000  Uiso   1.00
C644   C     0.34371   0.18602   0.59141   0.00000  Uiso   1.00
C645   C     0.57558   0.17258   0.90737   0.00000  Uiso   1.00
C646   C     0.42446   0.16457   0.59270   0.00000  Uiso   1.00
C647   C     0.55874   0.17065   0.95428   0.00000  Uiso   1.00
C648   C     0.44306   0.17436   0.54714   0.00000  Uiso   1.00
C649   C     0.59263   0.16009   0.97860   0.00000  Uiso   1.00
C650   C     0.40999   0.18870   0.52357   0.00000  Uiso   1.00
C651   C     0.50907   0.17758   0.97748   0.00000  Uiso   1.00
C652   C     0.49336   0.17037   0.52449   0.00000  Uiso   1.00
Cu653  Cu    0.38022   0.16667   0.75000   0.00000  Uiso   1.00
Cu654  Cu    0.61978   0.16666   0.75000   0.00000  Uiso   1.00
H655   H     0.60284   0.14772   0.54379   0.00000  Uiso   1.00
H656   H     0.40149   0.20916   0.95995   0.00000  Uiso   1.00
H657   H     0.44706   0.15137   0.61184   0.00000  Uiso   1.00
H658   H     0.55108   0.17808   0.88701   0.00000  Uiso   1.00
H659   H     0.63925   0.19187   0.60827   0.00000  Uiso   1.00
H660   H     0.36232   0.15151   0.89337   0.00000  Uiso   1.00
H661   H     0.59077   0.03727   0.75026   0.00000  Uiso   1.00
H662   H     0.40924   0.29606   0.74972   0.00000  Uiso   1.00
H663   H     0.59081   0.29602   0.75016   0.00000  Uiso   1.00
H664   H     0.40920   0.03731   0.74981   0.00000  Uiso   1.00
H665   H     0.52801   0.12339   0.80303   0.00000  Uiso   1.00
H666   H     0.47200   0.20993   0.69695   0.00000  Uiso   1.00
H667   H     0.44103   0.12351   0.80307   0.00000  Uiso   1.00
H668   H     0.55898   0.20981   0.69692   0.00000  Uiso   1.00
N669   N     0.45069   0.16668   0.74999   0.00000  Uiso   1.00
N670   N     0.54931   0.16666   0.75001   0.00000  Uiso   1.00
O671   O     0.37291   0.10655   0.75000   0.00000  Uiso   1.00
O672   O     0.62709   0.22678   0.75000   0.00000  Uiso   1.00
O673   O     0.62706   0.10654   0.75001   0.00000  Uiso   1.00
O674   O     0.37294   0.22679   0.75000   0.00000  Uiso   1.00
O675   O     0.35186   0.16668   0.81492   0.00000  Uiso   1.00
O676   O     0.64814   0.16666   0.68509   0.00000  Uiso   1.00
O677   O     0.60600   0.16667   0.81492   0.00000  Uiso   1.00
O678   O     0.39400   0.16667   0.68508   0.00000  Uiso   1.00
H679   H     0.33440   0.14561   0.97476   0.00000  Uiso   1.00
H680   H     0.33557   0.20614   0.52813   0.00000  Uiso   1.00
H681   H     0.52030   0.15700   0.58324   0.00000  Uiso   1.00
H682   H     0.48430   0.20075   0.92060   0.00000  Uiso   1.00
C683   C     0.99998   0.08736   0.75003   0.00000  Uiso   1.00
C684   C     0.66669   0.24598   0.74996   0.00000  Uiso   1.00
C685   C     0.86196   0.16039   0.54744   0.00000  Uiso   1.00
C686   C     0.80812   0.19211   0.95540   0.00000  Uiso   1.00
C687   C     0.91054   0.15558   0.52485   0.00000  Uiso   1.00
C688   C     0.75970   0.19771   0.97816   0.00000  Uiso   1.00
C689   C     0.95741   0.02127   0.75014   0.00000  Uiso   1.00
C690   C     0.70926   0.31206   0.74984   0.00000  Uiso   1.00
C691   C     0.95743   0.31204   0.75008   0.00000  Uiso   1.00
C692   C     0.70924   0.02129   0.74989   0.00000  Uiso   1.00
C693   C     0.66669   0.29059   0.74995   0.00000  Uiso   1.00
C694   C     0.99998   0.04274   0.75003   0.00000  Uiso   1.00
C695   C     0.84954   0.14268   0.77947   0.00000  Uiso   1.00
C696   C     0.81713   0.19064   0.72052   0.00000  Uiso   1.00
C697   C     0.79993   0.14272   0.77949   0.00000  Uiso   1.00
C698   C     0.86674   0.19061   0.72051   0.00000  Uiso   1.00
C699   C     0.97276   0.16653   0.83608   0.00000  Uiso   1.00
C700   C     0.69391   0.16724   0.66396   0.00000  Uiso   1.00
C701   C     0.95779   0.16579   0.88520   0.00000  Uiso   1.00
C702   C     0.70908   0.17153   0.61510   0.00000  Uiso   1.00
C703   C     0.97508   0.15375   0.95632   0.00000  Uiso   1.00
C704   C     0.69407   0.19440   0.54584   0.00000  Uiso   1.00
C705   C     0.99103   0.15701   0.90992   0.00000  Uiso   1.00
C706   C     0.67704   0.18602   0.59141   0.00000  Uiso   1.00
C707   C     0.90891   0.17258   0.90737   0.00000  Uiso   1.00
C708   C     0.75780   0.16457   0.59270   0.00000  Uiso   1.00
C709   C     0.89207   0.17065   0.95428   0.00000  Uiso   1.00
C710   C     0.77639   0.17436   0.54714   0.00000  Uiso   1.00
C711   C     0.92596   0.16009   0.97860   0.00000  Uiso   1.00
C712   C     0.74332   0.18870   0.52357   0.00000  Uiso   1.00
C713   C     0.84240   0.17758   0.97748   0.00000  Uiso   1.00
C714   C     0.82669   0.17037   0.52449   0.00000  Uiso   1.00
Cu715  Cu    0.71355   0.16667   0.75000   0.00000  Uiso   1.00
Cu716  Cu    0.95311   0.16666   0.75000   0.00000  Uiso   1.00
H717   H     0.93617   0.14772   0.54379   0.00000  Uiso   1.00
H718   H     0.73482   0.20916   0.95995   0.00000  Uiso   1.00
H719   H     0.78039   0.15137   0.61184   0.00000  Uiso   1.00
H720   H     0.88442   0.17808   0.88701   0.00000  Uiso   1.00
H721   H     0.97258   0.19187   0.60827   0.00000  Uiso   1.00
H722   H     0.69566   0.15151   0.89337   0.00000  Uiso   1.00
H723   H     0.92410   0.03727   0.75026   0.00000  Uiso   1.00
H724   H     0.74257   0.29606   0.74972   0.00000  Uiso   1.00
H725   H     0.92414   0.29602   0.75016   0.00000  Uiso   1.00
H726   H     0.74253   0.03731   0.74981   0.00000  Uiso   1.00
H727   H     0.86134   0.12339   0.80303   0.00000  Uiso   1.00
H728   H     0.80533   0.20993   0.69695   0.00000  Uiso   1.00
H729   H     0.77436   0.12351   0.80307   0.00000  Uiso   1.00
H730   H     0.89231   0.20981   0.69692   0.00000  Uiso   1.00
N731   N     0.78403   0.16668   0.74999   0.00000  Uiso   1.00
N732   N     0.88264   0.16666   0.75001   0.00000  Uiso   1.00
O733   O     0.70625   0.10655   0.75000   0.00000  Uiso   1.00
O734   O     0.96042   0.22678   0.75000   0.00000  Uiso   1.00
O735   O     0.96039   0.10654   0.75001   0.00000  Uiso   1.00
O736   O     0.70628   0.22679   0.75000   0.00000  Uiso   1.00
O737   O     0.68519   0.16668   0.81492   0.00000  Uiso   1.00
O738   O     0.98148   0.16666   0.68509   0.00000  Uiso   1.00
O739   O     0.93933   0.16667   0.81492   0.00000  Uiso   1.00
O740   O     0.72733   0.16667   0.68508   0.00000  Uiso   1.00
H741   H     0.66773   0.14561   0.97476   0.00000  Uiso   1.00
H742   H     0.66890   0.20614   0.52813   0.00000  Uiso   1.00
H743   H     0.85363   0.15700   0.58324   0.00000  Uiso   1.00
H744   H     0.81764   0.20075   0.92060   0.00000  Uiso   1.00
C745   C     0.33331   0.42069   0.75003   0.00000  Uiso   1.00
C746   C     0.00002   0.57931   0.74996   0.00000  Uiso   1.00
C747   C     0.19529   0.49373   0.54744   0.00000  Uiso   1.00
C748   C     0.14146   0.52544   0.95540   0.00000  Uiso   1.00
C749   C     0.24388   0.48891   0.52485   0.00000  Uiso   1.00
C750   C     0.09303   0.53104   0.97816   0.00000  Uiso   1.00
C751   C     0.29074   0.35460   0.75014   0.00000  Uiso   1.00
C752   C     0.04260   0.64539   0.74984   0.00000  Uiso   1.00
C753   C     0.29076   0.64537   0.75008   0.00000  Uiso   1.00
C754   C     0.04258   0.35463   0.74989   0.00000  Uiso   1.00
C755   C     0.00002   0.62393   0.74995   0.00000  Uiso   1.00
C756   C     0.33332   0.37607   0.75003   0.00000  Uiso   1.00
C757   C     0.18287   0.47602   0.77947   0.00000  Uiso   1.00
C758   C     0.15046   0.52398   0.72052   0.00000  Uiso   1.00
C759   C     0.13327   0.47606   0.77949   0.00000  Uiso   1.00
C760   C     0.20007   0.52394   0.72051   0.00000  Uiso   1.00
C761   C     0.30609   0.49986   0.83608   0.00000  Uiso   1.00
C762   C     0.02724   0.50057   0.66396   0.00000  Uiso   1.00
C763   C     0.29112   0.49912   0.88520   0.00000  Uiso   1.00
C764   C     0.04241   0.50487   0.61510   0.00000  Uiso   1.00
C765   C     0.30841   0.48708   0.95632   0.00000  Uiso   1.00
C766   C     0.02741   0.52773   0.54584   0.00000  Uiso   1.00
C767   C     0.32436   0.49034   0.90992   0.00000  Uiso   1.00
C768   C     0.01038   0.51936   0.59141   0.00000  Uiso   1.00
C769   C     0.24225   0.50591   0.90737   0.00000  Uiso   1.00
C770   C     0.09113   0.49791   0.59270   0.00000  Uiso   1.00
C771   C     0.22541   0.50398   0.95428   0.00000  Uiso   1.00
C772   C     0.10972   0.50769   0.54714   0.00000  Uiso   1.00
C773   C     0.25930   0.49343   0.97860   0.00000  Uiso   1.00
C774   C     0.07665   0.52204   0.52357   0.00000  Uiso   1.00
C775   C     0.17574   0.51091   0.97748   0.00000  Uiso   1.00
C776   C     0.16003   0.50371   0.52449   0.00000  Uiso   1.00
Cu777  Cu    0.04689   0.50001   0.75000   0.00000  Uiso   1.00
Cu778  Cu    0.28645   0.49999   0.75000   0.00000  Uiso   1.00
H779   H     0.26951   0.48105   0.54379   0.00000  Uiso   1.00
H780   H     0.06815   0.54250   0.95995   0.00000  Uiso   1.00
H781   H     0.11372   0.48470   0.61184   0.00000  Uiso   1.00
H782   H     0.21775   0.51142   0.88701   0.00000  Uiso   1.00
H783   H     0.30592   0.52521   0.60827   0.00000  Uiso   1.00
H784   H     0.02899   0.48484   0.89337   0.00000  Uiso   1.00
H785   H     0.25744   0.37060   0.75026   0.00000  Uiso   1.00
H786   H     0.07590   0.62940   0.74972   0.00000  Uiso   1.00
H787   H     0.25748   0.62935   0.75016   0.00000  Uiso   1.00
H788   H     0.07586   0.37064   0.74981   0.00000  Uiso   1.00
H789   H     0.19467   0.45673   0.80303   0.00000  Uiso   1.00
H790   H     0.13866   0.54326   0.69695   0.00000  Uiso   1.00
H791   H     0.10769   0.45684   0.80307   0.00000  Uiso   1.00
H792   H     0.22564   0.54315   0.69692   0.00000  Uiso   1.00
N793   N     0.11736   0.50001   0.74999   0.00000  Uiso   1.00
N794   N     0.21597   0.49999   0.75001   0.00000  Uiso   1.00
O795   O     0.03958   0.43989   0.75000   0.00000  Uiso   1.00
O796   O     0.29375   0.56011   0.75000   0.00000  Uiso   1.00
O797   O     0.29372   0.43988   0.75001   0.00000  Uiso   1.00
O798   O     0.03961   0.56012   0.75000   0.00000  Uiso   1.00
O799   O     0.01852   0.50001   0.81492   0.00000  Uiso   1.00
O800   O     0.31481   0.49999   0.68509   0.00000  Uiso   1.00
O801   O     0.27267   0.50000   0.81492   0.00000  Uiso   1.00
O802   O     0.06067   0.50000   0.68508   0.00000  Uiso   1.00
H803   H     0.00107   0.47894   0.97476   0.00000  Uiso   1.00
H804   H     0.00223   0.53947   0.52813   0.00000  Uiso   1.00
H805   H     0.18697   0.49034   0.58324   0.00000  Uiso   1.00
H806   H     0.15097   0.53408   0.92060   0.00000  Uiso   1.00
C807   C     0.66664   0.42069   0.75003   0.00000  Uiso   1.00
C808   C     0.33336   0.57931   0.74996   0.00000  Uiso   1.00
C809   C     0.52862   0.49373   0.54744   0.00000  Uiso   1.00
C810   C     0.47479   0.52544   0.95540   0.00000  Uiso   1.00
C811   C     0.57721   0.48891   0.52485   0.00000  Uiso   1.00
C812   C     0.42636   0.53104   0.97816   0.00000  Uiso   1.00
C813   C     0.62408   0.35460   0.75014   0.00000  Uiso   1.00
C814   C     0.37593   0.64539   0.74984   0.00000  Uiso   1.00
C815   C     0.62410   0.64537   0.75008   0.00000  Uiso   1.00
C816   C     0.37591   0.35463   0.74989   0.00000  Uiso   1.00
C817   C     0.33336   0.62393   0.74995   0.00000  Uiso   1.00
C818   C     0.66665   0.37607   0.75003   0.00000  Uiso   1.00
C819   C     0.51621   0.47602   0.77947   0.00000  Uiso   1.00
C820   C     0.48380   0.52398   0.72052   0.00000  Uiso   1.00
C821   C     0.46660   0.47606   0.77949   0.00000  Uiso   1.00
C822   C     0.53340   0.52394   0.72051   0.00000  Uiso   1.00
C823   C     0.63942   0.49986   0.83608   0.00000  Uiso   1.00
C824   C     0.36058   0.50057   0.66396   0.00000  Uiso   1.00
C825   C     0.62446   0.49912   0.88520   0.00000  Uiso   1.00
C826   C     0.37574   0.50487   0.61510   0.00000  Uiso   1.00
C827   C     0.64175   0.48708   0.95632   0.00000  Uiso   1.00
C828   C     0.36074   0.52773   0.54584   0.00000  Uiso   1.00
C829   C     0.65770   0.49034   0.90992   0.00000  Uiso   1.00
C830   C     0.34371   0.51936   0.59141   0.00000  Uiso   1.00
C831   C     0.57558   0.50591   0.90737   0.00000  Uiso   1.00
C832   C     0.42446   0.49791   0.59270   0.00000  Uiso   1.00
C833   C     0.55874   0.50398   0.95428   0.00000  Uiso   1.00
C834   C     0.44306   0.50769   0.54714   0.00000  Uiso   1.00
C835   C     0.59263   0.49343   0.97860   0.00000  Uiso   1.00
C836   C     0.40999   0.52204   0.52357   0.00000  Uiso   1.00
C837   C     0.50907   0.51091   0.97748   0.00000  Uiso   1.00
C838   C     0.49336   0.50371   0.52449   0.00000  Uiso   1.00
Cu839  Cu    0.38022   0.50001   0.75000   0.00000  Uiso   1.00
Cu840  Cu    0.61978   0.49999   0.75000   0.00000  Uiso   1.00
H841   H     0.60284   0.48105   0.54379   0.00000  Uiso   1.00
H842   H     0.40149   0.54250   0.95995   0.00000  Uiso   1.00
H843   H     0.44706   0.48470   0.61184   0.00000  Uiso   1.00
H844   H     0.55108   0.51142   0.88701   0.00000  Uiso   1.00
H845   H     0.63925   0.52521   0.60827   0.00000  Uiso   1.00
H846   H     0.36232   0.48484   0.89337   0.00000  Uiso   1.00
H847   H     0.59077   0.37060   0.75026   0.00000  Uiso   1.00
H848   H     0.40924   0.62940   0.74972   0.00000  Uiso   1.00
H849   H     0.59081   0.62935   0.75016   0.00000  Uiso   1.00
H850   H     0.40920   0.37064   0.74981   0.00000  Uiso   1.00
H851   H     0.52801   0.45673   0.80303   0.00000  Uiso   1.00
H852   H     0.47200   0.54326   0.69695   0.00000  Uiso   1.00
H853   H     0.44103   0.45684   0.80307   0.00000  Uiso   1.00
H854   H     0.55898   0.54315   0.69692   0.00000  Uiso   1.00
N855   N     0.45069   0.50001   0.74999   0.00000  Uiso   1.00
N856   N     0.54931   0.49999   0.75001   0.00000  Uiso   1.00
O857   O     0.37291   0.43989   0.75000   0.00000  Uiso   1.00
O858   O     0.62709   0.56011   0.75000   0.00000  Uiso   1.00
O859   O     0.62706   0.43988   0.75001   0.00000  Uiso   1.00
O860   O     0.37294   0.56012   0.75000   0.00000  Uiso   1.00
O861   O     0.35186   0.50001   0.81492   0.00000  Uiso   1.00
O862   O     0.64814   0.49999   0.68509   0.00000  Uiso   1.00
O863   O     0.60600   0.50000   0.81492   0.00000  Uiso   1.00
O864   O     0.39400   0.50000   0.68508   0.00000  Uiso   1.00
H865   H     0.33440   0.47894   0.97476   0.00000  Uiso   1.00
H866   H     0.33557   0.53947   0.52813   0.00000  Uiso   1.00
H867   H     0.52030   0.49034   0.58324   0.00000  Uiso   1.00
H868   H     0.48430   0.53408   0.92060   0.00000  Uiso   1.00
C869   C     0.99998   0.42069   0.75003   0.00000  Uiso   1.00
C870   C     0.66669   0.57931   0.74996   0.00000  Uiso   1.00
C871   C     0.86196   0.49373   0.54744   0.00000  Uiso   1.00
C872   C     0.80812   0.52544   0.95540   0.00000  Uiso   1.00
C873   C     0.91054   0.48891   0.52485   0.00000  Uiso   1.00
C874   C     0.75970   0.53104   0.97816   0.00000  Uiso   1.00
C875   C     0.95741   0.35460   0.75014   0.00000  Uiso   1.00
C876   C     0.70926   0.64539   0.74984   0.00000  Uiso   1.00
C877   C     0.95743   0.64537   0.75008   0.00000  Uiso   1.00
C878   C     0.70924   0.35463   0.74989   0.00000  Uiso   1.00
C879   C     0.66669   0.62393   0.74995   0.00000  Uiso   1.00
C880   C     0.99998   0.37607   0.75003   0.00000  Uiso   1.00
C881   C     0.84954   0.47602   0.77947   0.00000  Uiso   1.00
C882   C     0.81713   0.52398   0.72052   0.00000  Uiso   1.00
C883   C     0.79993   0.47606   0.77949   0.00000  Uiso   1.00
C884   C     0.86674   0.52394   0.72051   0.00000  Uiso   1.00
C885   C     0.97276   0.49986   0.83608   0.00000  Uiso   1.00
C886   C     0.69391   0.50057   0.66396   0.00000  Uiso   1.00
C887   C     0.95779   0.49912   0.88520   0.00000  Uiso   1.00
C888   C     0.70908   0.50487   0.61510   0.00000  Uiso   1.00
C889   C     0.97508   0.48708   0.95632   0.00000  Uiso   1.00
C890   C     0.69407   0.52773   0.54584   0.00000  Uiso   1.00
C891   C     0.99103   0.49034   0.90992   0.00000  Uiso   1.00
C892   C     0.67704   0.51936   0.59141   0.00000  Uiso   1.00
C893   C     0.90891   0.50591   0.90737   0.00000  Uiso   1.00
C894   C     0.75780   0.49791   0.59270   0.00000  Uiso   1.00
C895   C     0.89207   0.50398   0.95428   0.00000  Uiso   1.00
C896   C     0.77639   0.50769   0.54714   0.00000  Uiso   1.00
C897   C     0.92596   0.49343   0.97860   0.00000  Uiso   1.00
C898   C     0.74332   0.52204   0.52357   0.00000  Uiso   1.00
C899   C     0.84240   0.51091   0.97748   0.00000  Uiso   1.00
C900   C     0.82669   0.50371   0.52449   0.00000  Uiso   1.00
Cu901  Cu    0.71355   0.50001   0.75000   0.00000  Uiso   1.00
Cu902  Cu    0.95311   0.49999   0.75000   0.00000  Uiso   1.00
H903   H     0.93617   0.48105   0.54379   0.00000  Uiso   1.00
H904   H     0.73482   0.54250   0.95995   0.00000  Uiso   1.00
H905   H     0.78039   0.48470   0.61184   0.00000  Uiso   1.00
H906   H     0.88442   0.51142   0.88701   0.00000  Uiso   1.00
H907   H     0.97258   0.52521   0.60827   0.00000  Uiso   1.00
H908   H     0.69566   0.48484   0.89337   0.00000  Uiso   1.00
H909   H     0.92410   0.37060   0.75026   0.00000  Uiso   1.00
H910   H     0.74257   0.62940   0.74972   0.00000  Uiso   1.00
H911   H     0.92414   0.62935   0.75016   0.00000  Uiso   1.00
H912   H     0.74253   0.37064   0.74981   0.00000  Uiso   1.00
H913   H     0.86134   0.45673   0.80303   0.00000  Uiso   1.00
H914   H     0.80533   0.54326   0.69695   0.00000  Uiso   1.00
H915   H     0.77436   0.45684   0.80307   0.00000  Uiso   1.00
H916   H     0.89231   0.54315   0.69692   0.00000  Uiso   1.00
N917   N     0.78403   0.50001   0.74999   0.00000  Uiso   1.00
N918   N     0.88264   0.49999   0.75001   0.00000  Uiso   1.00
O919   O     0.70625   0.43989   0.75000   0.00000  Uiso   1.00
O920   O     0.96042   0.56011   0.75000   0.00000  Uiso   1.00
O921   O     0.96039   0.43988   0.75001   0.00000  Uiso   1.00
O922   O     0.70628   0.56012   0.75000   0.00000  Uiso   1.00
O923   O     0.68519   0.50001   0.81492   0.00000  Uiso   1.00
O924   O     0.98148   0.49999   0.68509   0.00000  Uiso   1.00
O925   O     0.93933   0.50000   0.81492   0.00000  Uiso   1.00
O926   O     0.72733   0.50000   0.68508   0.00000  Uiso   1.00
H927   H     0.66773   0.47894   0.97476   0.00000  Uiso   1.00
H928   H     0.66890   0.53947   0.52813   0.00000  Uiso   1.00
H929   H     0.85363   0.49034   0.58324   0.00000  Uiso   1.00
H930   H     0.81764   0.53408   0.92060   0.00000  Uiso   1.00
C931   C     0.33331   0.75402   0.75003   0.00000  Uiso   1.00
C932   C     0.00002   0.91264   0.74996   0.00000  Uiso   1.00
C933   C     0.19529   0.82706   0.54744   0.00000  Uiso   1.00
C934   C     0.14146   0.85877   0.95540   0.00000  Uiso   1.00
C935   C     0.24388   0.82224   0.52485   0.00000  Uiso   1.00
C936   C     0.09303   0.86437   0.97816   0.00000  Uiso   1.00
C937   C     0.29074   0.68794   0.75014   0.00000  Uiso   1.00
C938   C     0.04260   0.97873   0.74984   0.00000  Uiso   1.00
C939   C     0.29076   0.97870   0.75008   0.00000  Uiso   1.00
C940   C     0.04258   0.68796   0.74989   0.00000  Uiso   1.00
C941   C     0.00002   0.95726   0.74995   0.00000  Uiso   1.00
C942   C     0.33332   0.70941   0.75003   0.00000  Uiso   1.00
C943   C     0.18287   0.80935   0.77947   0.00000  Uiso   1.00
C944   C     0.15046   0.85731   0.72052   0.00000  Uiso   1.00
C945   C     0.13327   0.80939   0.77949   0.00000  Uiso   1.00
C946   C     0.20007   0.85727   0.72051   0.00000  Uiso   1.00
C947   C     0.30609   0.83319   0.83608   0.00000  Uiso   1.00
C948   C     0.02724   0.83391   0.66396   0.00000  Uiso   1.00
C949   C     0.29112   0.83245   0.88520   0.00000  Uiso   1.00
C950   C     0.04241   0.83820   0.61510   0.00000  Uiso   1.00
C951   C     0.30841   0.82041   0.95632   0.00000  Uiso   1.00
C952   C     0.02741   0.86107   0.54584   0.00000  Uiso   1.00
C953   C     0.32436   0.82367   0.90992   0.00000  Uiso   1.00
C954   C     0.01038   0.85269   0.59141   0.00000  Uiso   1.00
C955   C     0.24225   0.83924   0.90737   0.00000  Uiso   1.00
C956   C     0.09113   0.83124   0.59270   0.00000  Uiso   1.00
C957   C     0.22541   0.83732   0.95428   0.00000  Uiso   1.00
C958   C     0.10972   0.84103   0.54714   0.00000  Uiso   1.00
C959   C     0.25930   0.82676   0.97860   0.00000  Uiso   1.00
C960   C     0.07665   0.85537   0.52357   0.00000  Uiso   1.00
C961   C     0.17574   0.84424   0.97748   0.00000  Uiso   1.00
C962   C     0.16003   0.83704   0.52449   0.00000  Uiso   1.00
Cu963  Cu    0.04689   0.83334   0.75000   0.00000  Uiso   1.00
Cu964  Cu    0.28645   0.83333   0.75000   0.00000  Uiso   1.00
H965   H     0.26951   0.81438   0.54379   0.00000  Uiso   1.00
H966   H     0.06815   0.87583   0.95995   0.00000  Uiso   1.00
H967   H     0.11372   0.81803   0.61184   0.00000  Uiso   1.00
H968   H     0.21775   0.84475   0.88701   0.00000  Uiso   1.00
H969   H     0.30592   0.85854   0.60827   0.00000  Uiso   1.00
H970   H     0.02899   0.81818   0.89337   0.00000  Uiso   1.00
H971   H     0.25744   0.70394   0.75026   0.00000  Uiso   1.00
H972   H     0.07590   0.96273   0.74972   0.00000  Uiso   1.00
H973   H     0.25748   0.96269   0.75016   0.00000  Uiso   1.00
H974   H     0.07586   0.70398   0.74981   0.00000  Uiso   1.00
H975   H     0.19467   0.79006   0.80303   0.00000  Uiso   1.00
H976   H     0.13866   0.87659   0.69695   0.00000  Uiso   1.00
H977   H     0.10769   0.79018   0.80307   0.00000  Uiso   1.00
H978   H     0.22564   0.87648   0.69692   0.00000  Uiso   1.00
N979   N     0.11736   0.83334   0.74999   0.00000  Uiso   1.00
N980   N     0.21597   0.83332   0.75001   0.00000  Uiso   1.00
O981   O     0.03958   0.77322   0.75000   0.00000  Uiso   1.00
O982   O     0.29375   0.89345   0.75000   0.00000  Uiso   1.00
O983   O     0.29372   0.77321   0.75001   0.00000  Uiso   1.00
O984   O     0.03961   0.89346   0.75000   0.00000  Uiso   1.00
O985   O     0.01852   0.83334   0.81492   0.00000  Uiso   1.00
O986   O     0.31481   0.83332   0.68509   0.00000  Uiso   1.00
O987   O     0.27267   0.83333   0.81492   0.00000  Uiso   1.00
O988   O     0.06067   0.83333   0.68508   0.00000  Uiso   1.00
H989   H     0.00107   0.81228   0.97476   0.00000  Uiso   1.00
H990   H     0.00223   0.87280   0.52813   0.00000  Uiso   1.00
H991   H     0.18697   0.82367   0.58324   0.00000  Uiso   1.00
H992   H     0.15097   0.86742   0.92060   0.00000  Uiso   1.00
C993   C     0.66664   0.75402   0.75003   0.00000  Uiso   1.00
C994   C     0.33336   0.91264   0.74996   0.00000  Uiso   1.00
C995   C     0.52862   0.82706   0.54744   0.00000  Uiso   1.00
C996   C     0.47479   0.85877   0.95540   0.00000  Uiso   1.00
C997   C     0.57721   0.82224   0.52485   0.00000  Uiso   1.00
C998   C     0.42636   0.86437   0.97816   0.00000  Uiso   1.00
C999   C     0.62408   0.68794   0.75014   0.00000  Uiso   1.00
C1000  C     0.37593   0.97873   0.74984   0.00000  Uiso   1.00
C1001  C     0.62410   0.97870   0.75008   0.00000  Uiso   1.00
C1002  C     0.37591   0.68796   0.74989   0.00000  Uiso   1.00
C1003  C     0.33336   0.95726   0.74995   0.00000  Uiso   1.00
C1004  C     0.66665   0.70941   0.75003   0.00000  Uiso   1.00
C1005  C     0.51621   0.80935   0.77947   0.00000  Uiso   1.00
C1006  C     0.48380   0.85731   0.72052   0.00000  Uiso   1.00
C1007  C     0.46660   0.80939   0.77949   0.00000  Uiso   1.00
C1008  C     0.53340   0.85727   0.72051   0.00000  Uiso   1.00
C1009  C     0.63942   0.83319   0.83608   0.00000  Uiso   1.00
C1010  C     0.36058   0.83391   0.66396   0.00000  Uiso   1.00
C1011  C     0.62446   0.83245   0.88520   0.00000  Uiso   1.00
C1012  C     0.37574   0.83820   0.61510   0.00000  Uiso   1.00
C1013  C     0.64175   0.82041   0.95632   0.00000  Uiso   1.00
C1014  C     0.36074   0.86107   0.54584   0.00000  Uiso   1.00
C1015  C     0.65770   0.82367   0.90992   0.00000  Uiso   1.00
C1016  C     0.34371   0.85269   0.59141   0.00000  Uiso   1.00
C1017  C     0.57558   0.83924   0.90737   0.00000  Uiso   1.00
C1018  C     0.42446   0.83124   0.59270   0.00000  Uiso   1.00
C1019  C     0.55874   0.83732   0.95428   0.00000  Uiso   1.00
C1020  C     0.44306   0.84103   0.54714   0.00000  Uiso   1.00
C1021  C     0.59263   0.82676   0.97860   0.00000  Uiso   1.00
C1022  C     0.40999   0.85537   0.52357   0.00000  Uiso   1.00
C1023  C     0.50907   0.84424   0.97748   0.00000  Uiso   1.00
C1024  C     0.49336   0.83704   0.52449   0.00000  Uiso   1.00
Cu1025 Cu    0.38022   0.83334   0.75000   0.00000  Uiso   1.00
Cu1026 Cu    0.61978   0.83333   0.75000   0.00000  Uiso   1.00
H1027  H     0.60284   0.81438   0.54379   0.00000  Uiso   1.00
H1028  H     0.40149   0.87583   0.95995   0.00000  Uiso   1.00
H1029  H     0.44706   0.81803   0.61184   0.00000  Uiso   1.00
H1030  H     0.55108   0.84475   0.88701   0.00000  Uiso   1.00
H1031  H     0.63925   0.85854   0.60827   0.00000  Uiso   1.00
H1032  H     0.36232   0.81818   0.89337   0.00000  Uiso   1.00
H1033  H     0.59077   0.70394   0.75026   0.00000  Uiso   1.00
H1034  H     0.40924   0.96273   0.74972   0.00000  Uiso   1.00
H1035  H     0.59081   0.96269   0.75016   0.00000  Uiso   1.00
H1036  H     0.40920   0.70398   0.74981   0.00000  Uiso   1.00
H1037  H     0.52801   0.79006   0.80303   0.00000  Uiso   1.00
H1038  H     0.47200   0.87659   0.69695   0.00000  Uiso   1.00
H1039  H     0.44103   0.79018   0.80307   0.00000  Uiso   1.00
H1040  H     0.55898   0.87648   0.69692   0.00000  Uiso   1.00
N1041  N     0.45069   0.83334   0.74999   0.00000  Uiso   1.00
N1042  N     0.54931   0.83332   0.75001   0.00000  Uiso   1.00
O1043  O     0.37291   0.77322   0.75000   0.00000  Uiso   1.00
O1044  O     0.62709   0.89345   0.75000   0.00000  Uiso   1.00
O1045  O     0.62706   0.77321   0.75001   0.00000  Uiso   1.00
O1046  O     0.37294   0.89346   0.75000   0.00000  Uiso   1.00
O1047  O     0.35186   0.83334   0.81492   0.00000  Uiso   1.00
O1048  O     0.64814   0.83332   0.68509   0.00000  Uiso   1.00
O1049  O     0.60600   0.83333   0.81492   0.00000  Uiso   1.00
O1050  O     0.39400   0.83333   0.68508   0.00000  Uiso   1.00
H1051  H     0.33440   0.81228   0.97476   0.00000  Uiso   1.00
H1052  H     0.33557   0.87280   0.52813   0.00000  Uiso   1.00
H1053  H     0.52030   0.82367   0.58324   0.00000  Uiso   1.00
H1054  H     0.48430   0.86742   0.92060   0.00000  Uiso   1.00
C1055  C     0.99998   0.75402   0.75003   0.00000  Uiso   1.00
C1056  C     0.66669   0.91264   0.74996   0.00000  Uiso   1.00
C1057  C     0.86196   0.82706   0.54744   0.00000  Uiso   1.00
C1058  C     0.80812   0.85877   0.95540   0.00000  Uiso   1.00
C1059  C     0.91054   0.82224   0.52485   0.00000  Uiso   1.00
C1060  C     0.75970   0.86437   0.97816   0.00000  Uiso   1.00
C1061  C     0.95741   0.68794   0.75014   0.00000  Uiso   1.00
C1062  C     0.70926   0.97873   0.74984   0.00000  Uiso   1.00
C1063  C     0.95743   0.97870   0.75008   0.00000  Uiso   1.00
C1064  C     0.70924   0.68796   0.74989   0.00000  Uiso   1.00
C1065  C     0.66669   0.95726   0.74995   0.00000  Uiso   1.00
C1066  C     0.99998   0.70941   0.75003   0.00000  Uiso   1.00
C1067  C     0.84954   0.80935   0.77947   0.00000  Uiso   1.00
C1068  C     0.81713   0.85731   0.72052   0.00000  Uiso   1.00
C1069  C     0.79993   0.80939   0.77949   0.00000  Uiso   1.00
C1070  C     0.86674   0.85727   0.72051   0.00000  Uiso   1.00
C1071  C     0.97276   0.83319   0.83608   0.00000  Uiso   1.00
C1072  C     0.69391   0.83391   0.66396   0.00000  Uiso   1.00
C1073  C     0.95779   0.83245   0.88520   0.00000  Uiso   1.00
C1074  C     0.70908   0.83820   0.61510   0.00000  Uiso   1.00
C1075  C     0.97508   0.82041   0.95632   0.00000  Uiso   1.00
C1076  C     0.69407   0.86107   0.54584   0.00000  Uiso   1.00
C1077  C     0.99103   0.82367   0.90992   0.00000  Uiso   1.00
C1078  C     0.67704   0.85269   0.59141   0.00000  Uiso   1.00
C1079  C     0.90891   0.83924   0.90737   0.00000  Uiso   1.00
C1080  C     0.75780   0.83124   0.59270   0.00000  Uiso   1.00
C1081  C     0.89207   0.83732   0.95428   0.00000  Uiso   1.00
C1082  C     0.77639   0.84103   0.54714   0.00000  Uiso   1.00
C1083  C     0.92596   0.82676   0.97860   0.00000  Uiso   1.00
C1084  C     0.74332   0.85537   0.52357   0.00000  Uiso   1.00
C1085  C     0.84240   0.84424   0.97748   0.00000  Uiso   1.00
C1086  C     0.82669   0.83704   0.52449   0.00000  Uiso   1.00
Cu1087 Cu    0.71355   0.83334   0.75000   0.00000  Uiso   1.00
Cu1088 Cu    0.95311   0.83333   0.75000   0.00000  Uiso   1.00
H1089  H     0.93617   0.81438   0.54379   0.00000  Uiso   1.00
H1090  H     0.73482   0.87583   0.95995   0.00000  Uiso   1.00
H1091  H     0.78039   0.81803   0.61184   0.00000  Uiso   1.00
H1092  H     0.88442   0.84475   0.88701   0.00000  Uiso   1.00
H1093  H     0.97258   0.85854   0.60827   0.00000  Uiso   1.00
H1094  H     0.69566   0.81818   0.89337   0.00000  Uiso   1.00
H1095  H     0.92410   0.70394   0.75026   0.00000  Uiso   1.00
H1096  H     0.74257   0.96273   0.74972   0.00000  Uiso   1.00
H1097  H     0.92414   0.96269   0.75016   0.00000  Uiso   1.00
H1098  H     0.74253   0.70398   0.74981   0.00000  Uiso   1.00
H1099  H     0.86134   0.79006   0.80303   0.00000  Uiso   1.00
H1100  H     0.80533   0.87659   0.69695   0.00000  Uiso   1.00
H1101  H     0.77436   0.79018   0.80307   0.00000  Uiso   1.00
H1102  H     0.89231   0.87648   0.69692   0.00000  Uiso   1.00
N1103  N     0.78403   0.83334   0.74999   0.00000  Uiso   1.00
N1104  N     0.88264   0.83332   0.75001   0.00000  Uiso   1.00
O1105  O     0.70625   0.77322   0.75000   0.00000  Uiso   1.00
O1106  O     0.96042   0.89345   0.75000   0.00000  Uiso   1.00
O1107  O     0.96039   0.77321   0.75001   0.00000  Uiso   1.00
O1108  O     0.70628   0.89346   0.75000   0.00000  Uiso   1.00
O1109  O     0.68519   0.83334   0.81492   0.00000  Uiso   1.00
O1110  O     0.98148   0.83332   0.68509   0.00000  Uiso   1.00
O1111  O     0.93933   0.83333   0.81492   0.00000  Uiso   1.00
O1112  O     0.72733   0.83333   0.68508   0.00000  Uiso   1.00
H1113  H     0.66773   0.81228   0.97476   0.00000  Uiso   1.00
H1114  H     0.66890   0.87280   0.52813   0.00000  Uiso   1.00
H1115  H     0.85363   0.82367   0.58324   0.00000  Uiso   1.00
H1116  H     0.81764   0.86742   0.92060   0.00000  Uiso   1.00
loop_
_geom_bond_atom_site_label_1
_geom_bond_atom_site_label_2
_geom_bond_distance
_geom_bond_site_symmetry_2
_ccdc_geom_bond_type
C1     C12     1.450   .     S
C1     O53     1.291   .     A
C1     O113    1.291   .     S
C2     C11     1.450   .     S
C2     O54     1.291   .     A
C2     O176    1.291   1_455 S
C3     C5      1.386   .     A
C3     C32     1.417   .     A
C3     H61     1.076   .     S
C4     H62     1.076   .     S
C4     C6      1.387   .     A
C4     C31     1.417   .     A
C5     H35     1.084   .     S
C5     C587    1.390   1_554 S
C6     H36     1.084   .     S
C6     C588    1.390   .     S
C7     C12     1.401   .     A
C7     H41     1.083   .     S
C7     C381    1.384   1_545 S
C8     H42     1.083   .     S
C8     C11     1.401   .     A
C8     C196    1.384   .     S
C9     H43     1.083   .     S
C9     C193    1.384   .     S
C9     C73     1.401   .     S
C10    H44     1.083   .     S
C10    C380    1.384   1_545 S
C10    C136    1.401   1_455 S
C11    C133    1.401   1_455 S
C12    C72     1.401   .     S
C13    C15     1.417   .     A
C13    H45     1.082   .     S
C13    N50     1.368   .     A
C14    H46     1.082   .     S
C14    C16     1.417   .     A
C14    N49     1.368   .     A
C15    H47     1.082   .     S
C15    N49     1.367   .     A
C16    H48     1.082   .     S
C16    N50     1.367   .     A
C17    C19     1.468   .     S
C17    O57     1.295   .     A
C17    O117    1.296   .     S
C18    C20     1.466   .     S
C18    O58     1.294   .     A
C18    O180    1.296   1_455 S
C19    C23     1.399   .     A
C19    C25     1.399   .     A
C20    C24     1.399   .     A
C20    C26     1.398   .     A
C21    C29     1.404   .     A
C21    C23     1.392   .     A
C21    H121    1.083   .     S
C22    C24     1.392   .     A
C22    H60     1.083   .     S
C22    C30     1.404   .     A
C23    H102    1.083   .     S
C24    H163    1.083   1_455 S
C25    H38     1.075   .     S
C25    C27     1.406   .     A
C26    H37     1.075   .     S
C26    C28     1.405   .     A
C27    C29     1.418   .     A
C27    C31     1.427   .     A
C28    C30     1.418   .     A
C28    C32     1.426   .     A
C29    C563    1.390   .     S
C30    C564    1.390   1_554 S
C31    C590    1.424   .     S
C32    C589    1.424   1_554 S
Cu33   O55     1.958   .     S
Cu33   O58     1.945   .     S
Cu33   O54     1.965   .     S
Cu33   N49     2.013   .     S
Cu33   O51     1.965   .     S
Cu33   Cu158   2.678   1_455 S
Cu34   O57     1.945   .     S
Cu34   O56     1.958   .     S
Cu34   O53     1.965   .     S
Cu34   N50     2.013   .     S
Cu34   O52     1.965   .     S
Cu34   Cu95    2.678   .     S
H39    C86     1.083   .     S
H40    C147    1.083   1_455 S
O51    C125    1.291   1_455 S
O52    C64     1.291   .     S
O55    C141    1.296   1_455 S
O56    C80     1.296   .     S
H59    C145    1.083   1_455 S
C63    C74     1.450   .     S
C63    O115    1.291   .     A
C63    O175    1.291   .     S
C64    C73     1.450   .     S
C64    O116    1.291   .     A
C65    C67     1.386   .     A
C65    C94     1.417   .     A
C65    H123    1.076   .     S
C66    H124    1.076   .     S
C66    C68     1.387   .     A
C66    C93     1.417   .     A
C67    H97     1.084   .     S
C67    C649    1.390   1_554 S
C68    H98     1.084   .     S
C68    C650    1.390   .     S
C69    C74     1.401   .     A
C69    H103    1.083   .     S
C69    C443    1.384   1_545 S
C70    H104    1.083   .     S
C70    C73     1.401   .     A
C70    C258    1.384   .     S
C71    H105    1.083   .     S
C71    C255    1.384   .     S
C71    C135    1.401   .     S
C72    H106    1.083   .     S
C72    C442    1.384   1_545 S
C74    C134    1.401   .     S
C75    C77     1.417   .     A
C75    H107    1.082   .     S
C75    N112    1.368   .     A
C76    H108    1.082   .     S
C76    C78     1.417   .     A
C76    N111    1.368   .     A
C77    H109    1.082   .     S
C77    N111    1.367   .     A
C78    H110    1.082   .     S
C78    N112    1.367   .     A
C79    C81     1.468   .     S
C79    O119    1.295   .     A
C79    O179    1.296   .     S
C80    C82     1.466   .     S
C80    O120    1.294   .     A
C81    C85     1.399   .     A
C81    C87     1.399   .     A
C82    C86     1.399   .     A
C82    C88     1.398   .     A
C83    C91     1.404   .     A
C83    C85     1.392   .     A
C83    H183    1.083   .     S
C84    C86     1.392   .     A
C84    H122    1.083   .     S
C84    C92     1.404   .     A
C85    H164    1.083   .     S
C87    H100    1.075   .     S
C87    C89     1.406   .     A
C88    H99     1.075   .     S
C88    C90     1.405   .     A
C89    C91     1.418   .     A
C89    C93     1.427   .     A
C90    C92     1.418   .     A
C90    C94     1.426   .     A
C91    C625    1.390   .     S
C92    C626    1.390   1_554 S
C93    C652    1.424   .     S
C94    C651    1.424   1_554 S
Cu95   O117    1.958   .     S
Cu95   O120    1.945   .     S
Cu95   O116    1.965   .     S
Cu95   N111    2.013   .     S
Cu95   O113    1.965   .     S
Cu96   O119    1.945   .     S
Cu96   O118    1.958   .     S
Cu96   O115    1.965   .     S
Cu96   N112    2.013   .     S
Cu96   O114    1.965   .     S
Cu96   Cu157   2.678   .     S
H101   C148    1.083   .     S
O114   C126    1.291   .     S
O118   C142    1.296   .     S
C125   C136    1.450   .     S
C125   O177    1.291   .     A
C125   O51     1.291   1_655 S
C126   C135    1.450   .     S
C126   O178    1.291   .     A
C127   C129    1.386   .     A
C127   C156    1.417   .     A
C127   H185    1.076   .     S
C128   H186    1.076   .     S
C128   C130    1.387   .     A
C128   C155    1.417   .     A
C129   H159    1.084   .     S
C129   C711    1.390   1_554 S
C130   H160    1.084   .     S
C130   C712    1.390   .     S
C131   C136    1.401   .     A
C131   H165    1.083   .     S
C131   C505    1.384   1_545 S
C132   H166    1.083   .     S
C132   C135    1.401   .     A
C132   C320    1.384   .     S
C133   H167    1.083   .     S
C133   C317    1.384   .     S
C133   C11     1.401   1_655 S
C134   H168    1.083   .     S
C134   C504    1.384   1_545 S
C136   C10     1.401   1_655 S
C137   C139    1.417   .     A
C137   H169    1.082   .     S
C137   N174    1.368   .     A
C138   H170    1.082   .     S
C138   C140    1.417   .     A
C138   N173    1.368   .     A
C139   H171    1.082   .     S
C139   N173    1.367   .     A
C140   H172    1.082   .     S
C140   N174    1.367   .     A
C141   C143    1.468   .     S
C141   O181    1.295   .     A
C141   O55     1.296   1_655 S
C142   C144    1.466   .     S
C142   O182    1.294   .     A
C143   C147    1.399   .     A
C143   C149    1.399   .     A
C144   C148    1.399   .     A
C144   C150    1.398   .     A
C145   C153    1.404   .     A
C145   C147    1.392   .     A
C145   H59     1.083   1_655 S
C146   C148    1.392   .     A
C146   H184    1.083   .     S
C146   C154    1.404   .     A
C147   H40     1.083   1_655 S
C149   H162    1.075   .     S
C149   C151    1.406   .     A
C150   H161    1.075   .     S
C150   C152    1.405   .     A
C151   C153    1.418   .     A
C151   C155    1.427   .     A
C152   C154    1.418   .     A
C152   C156    1.426   .     A
C153   C687    1.390   .     S
C154   C688    1.390   1_554 S
C155   C714    1.424   .     S
C156   C713    1.424   1_554 S
Cu157  O179    1.958   .     S
Cu157  O182    1.945   .     S
Cu157  O178    1.965   .     S
Cu157  N173    2.013   .     S
Cu157  O175    1.965   .     S
Cu158  O181    1.945   .     S
Cu158  O180    1.958   .     S
Cu158  O177    1.965   .     S
Cu158  N174    2.013   .     S
Cu158  O176    1.965   .     S
Cu158  Cu33    2.678   1_655 S
H163   C24     1.083   1_655 S
O176   C2      1.291   1_655 S
O180   C18     1.296   1_655 S
C187   C198    1.450   .     S
C187   O239    1.291   .     A
C187   O299    1.291   .     S
C188   C197    1.450   .     S
C188   O240    1.291   .     A
C188   O362    1.291   1_455 S
C189   C191    1.386   .     A
C189   C218    1.417   .     A
C189   H247    1.076   .     S
C190   H248    1.076   .     S
C190   C192    1.387   .     A
C190   C217    1.417   .     A
C191   H221    1.084   .     S
C191   C773    1.390   1_554 S
C192   H222    1.084   .     S
C192   C774    1.390   .     S
C193   C198    1.401   .     A
C193   H227    1.083   .     S
C194   H228    1.083   .     S
C194   C197    1.401   .     A
C194   C382    1.384   .     S
C195   H229    1.083   .     S
C195   C379    1.384   .     S
C195   C259    1.401   .     S
C196   H230    1.083   .     S
C196   C322    1.401   1_455 S
C197   C319    1.401   1_455 S
C198   C258    1.401   .     S
C199   C201    1.417   .     A
C199   H231    1.082   .     S
C199   N236    1.368   .     A
C200   H232    1.082   .     S
C200   C202    1.417   .     A
C200   N235    1.368   .     A
C201   H233    1.082   .     S
C201   N235    1.367   .     A
C202   H234    1.082   .     S
C202   N236    1.367   .     A
C203   C205    1.468   .     S
C203   O243    1.295   .     A
C203   O303    1.296   .     S
C204   C206    1.466   .     S
C204   O244    1.294   .     A
C204   O366    1.296   1_455 S
C205   C209    1.399   .     A
C205   C211    1.399   .     A
C206   C210    1.399   .     A
C206   C212    1.398   .     A
C207   C215    1.404   .     A
C207   C209    1.392   .     A
C207   H307    1.083   .     S
C208   C210    1.392   .     A
C208   H246    1.083   .     S
C208   C216    1.404   .     A
C209   H288    1.083   .     S
C210   H349    1.083   1_455 S
C211   H224    1.075   .     S
C211   C213    1.406   .     A
C212   H223    1.075   .     S
C212   C214    1.405   .     A
C213   C215    1.418   .     A
C213   C217    1.427   .     A
C214   C216    1.418   .     A
C214   C218    1.426   .     A
C215   C749    1.390   .     S
C216   C750    1.390   1_554 S
C217   C776    1.424   .     S
C218   C775    1.424   1_554 S
Cu219  O241    1.958   .     S
Cu219  O244    1.945   .     S
Cu219  O240    1.965   .     S
Cu219  N235    2.013   .     S
Cu219  O237    1.965   .     S
Cu219  Cu344   2.678   1_455 S
Cu220  O243    1.945   .     S
Cu220  O242    1.958   .     S
Cu220  O239    1.965   .     S
Cu220  N236    2.013   .     S
Cu220  O238    1.965   .     S
Cu220  Cu281   2.678   .     S
H225   C272    1.083   .     S
H226   C333    1.083   1_455 S
O237   C311    1.291   1_455 S
O238   C250    1.291   .     S
O241   C327    1.296   1_455 S
O242   C266    1.296   .     S
H245   C331    1.083   1_455 S
C249   C260    1.450   .     S
C249   O301    1.291   .     A
C249   O361    1.291   .     S
C250   C259    1.450   .     S
C250   O302    1.291   .     A
C251   C253    1.386   .     A
C251   C280    1.417   .     A
C251   H309    1.076   .     S
C252   H310    1.076   .     S
C252   C254    1.387   .     A
C252   C279    1.417   .     A
C253   H283    1.084   .     S
C253   C835    1.390   1_554 S
C254   H284    1.084   .     S
C254   C836    1.390   .     S
C255   C260    1.401   .     A
C255   H289    1.083   .     S
C256   H290    1.083   .     S
C256   C259    1.401   .     A
C256   C444    1.384   .     S
C257   H291    1.083   .     S
C257   C441    1.384   .     S
C257   C321    1.401   .     S
C258   H292    1.083   .     S
C260   C320    1.401   .     S
C261   C263    1.417   .     A
C261   H293    1.082   .     S
C261   N298    1.368   .     A
C262   H294    1.082   .     S
C262   C264    1.417   .     A
C262   N297    1.368   .     A
C263   H295    1.082   .     S
C263   N297    1.367   .     A
C264   H296    1.082   .     S
C264   N298    1.367   .     A
C265   C267    1.468   .     S
C265   O305    1.295   .     A
C265   O365    1.296   .     S
C266   C268    1.466   .     S
C266   O306    1.294   .     A
C267   C271    1.399   .     A
C267   C273    1.399   .     A
C268   C272    1.399   .     A
C268   C274    1.398   .     A
C269   C277    1.404   .     A
C269   C271    1.392   .     A
C269   H369    1.083   .     S
C270   C272    1.392   .     A
C270   H308    1.083   .     S
C270   C278    1.404   .     A
C271   H350    1.083   .     S
C273   H286    1.075   .     S
C273   C275    1.406   .     A
C274   H285    1.075   .     S
C274   C276    1.405   .     A
C275   C277    1.418   .     A
C275   C279    1.427   .     A
C276   C278    1.418   .     A
C276   C280    1.426   .     A
C277   C811    1.390   .     S
C278   C812    1.390   1_554 S
C279   C838    1.424   .     S
C280   C837    1.424   1_554 S
Cu281  O303    1.958   .     S
Cu281  O306    1.945   .     S
Cu281  O302    1.965   .     S
Cu281  N297    2.013   .     S
Cu281  O299    1.965   .     S
Cu282  O305    1.945   .     S
Cu282  O304    1.958   .     S
Cu282  O301    1.965   .     S
Cu282  N298    2.013   .     S
Cu282  O300    1.965   .     S
Cu282  Cu343   2.678   .     S
H287   C334    1.083   .     S
O300   C312    1.291   .     S
O304   C328    1.296   .     S
C311   C322    1.450   .     S
C311   O363    1.291   .     A
C311   O237    1.291   1_655 S
C312   C321    1.450   .     S
C312   O364    1.291   .     A
C313   C315    1.386   .     A
C313   C342    1.417   .     A
C313   H371    1.076   .     S
C314   H372    1.076   .     S
C314   C316    1.387   .     A
C314   C341    1.417   .     A
C315   H345    1.084   .     S
C315   C897    1.390   1_554 S
C316   H346    1.084   .     S
C316   C898    1.390   .     S
C317   C322    1.401   .     A
C317   H351    1.083   .     S
C318   H352    1.083   .     S
C318   C321    1.401   .     A
C318   C506    1.384   .     S
C319   H353    1.083   .     S
C319   C503    1.384   .     S
C319   C197    1.401   1_655 S
C320   H354    1.083   .     S
C322   C196    1.401   1_655 S
C323   C325    1.417   .     A
C323   H355    1.082   .     S
C323   N360    1.368   .     A
C324   H356    1.082   .     S
C324   C326    1.417   .     A
C324   N359    1.368   .     A
C325   H357    1.082   .     S
C325   N359    1.367   .     A
C326   H358    1.082   .     S
C326   N360    1.367   .     A
C327   C329    1.468   .     S
C327   O367    1.295   .     A
C327   O241    1.296   1_655 S
C328   C330    1.466   .     S
C328   O368    1.294   .     A
C329   C333    1.399   .     A
C329   C335    1.399   .     A
C330   C334    1.399   .     A
C330   C336    1.398   .     A
C331   C339    1.404   .     A
C331   C333    1.392   .     A
C331   H245    1.083   1_655 S
C332   C334    1.392   .     A
C332   H370    1.083   .     S
C332   C340    1.404   .     A
C333   H226    1.083   1_655 S
C335   H348    1.075   .     S
C335   C337    1.406   .     A
C336   H347    1.075   .     S
C336   C338    1.405   .     A
C337   C339    1.418   .     A
C337   C341    1.427   .     A
C338   C340    1.418   .     A
C338   C342    1.426   .     A
C339   C873    1.390   .     S
C340   C874    1.390   1_554 S
C341   C900    1.424   .     S
C342   C899    1.424   1_554 S
Cu343  O365    1.958   .     S
Cu343  O368    1.945   .     S
Cu343  O364    1.965   .     S
Cu343  N359    2.013   .     S
Cu343  O361    1.965   .     S
Cu344  O367    1.945   .     S
Cu344  O366    1.958   .     S
Cu344  O363    1.965   .     S
Cu344  N360    2.013   .     S
Cu344  O362    1.965   .     S
Cu344  Cu219   2.678   1_655 S
H349   C210    1.083   1_655 S
O362   C188    1.291   1_655 S
O366   C204    1.296   1_655 S
C373   C384    1.450   .     S
C373   O425    1.291   .     A
C373   O485    1.291   .     S
C374   C383    1.450   .     S
C374   O426    1.291   .     A
C374   O548    1.291   1_455 S
C375   C377    1.386   .     A
C375   C404    1.417   .     A
C375   H433    1.076   .     S
C376   H434    1.076   .     S
C376   C378    1.387   .     A
C376   C403    1.417   .     A
C377   H407    1.084   .     S
C377   C959    1.390   1_554 S
C378   H408    1.084   .     S
C378   C960    1.390   .     S
C379   C384    1.401   .     A
C379   H413    1.083   .     S
C380   H414    1.083   .     S
C380   C383    1.401   .     A
C380   C10     1.384   1_565 S
C381   H415    1.083   .     S
C381   C7      1.384   1_565 S
C381   C445    1.401   .     S
C382   H416    1.083   .     S
C382   C508    1.401   1_455 S
C383   C505    1.401   1_455 S
C384   C444    1.401   .     S
C385   C387    1.417   .     A
C385   H417    1.082   .     S
C385   N422    1.368   .     A
C386   H418    1.082   .     S
C386   C388    1.417   .     A
C386   N421    1.368   .     A
C387   H419    1.082   .     S
C387   N421    1.367   .     A
C388   H420    1.082   .     S
C388   N422    1.367   .     A
C389   C391    1.468   .     S
C389   O429    1.295   .     A
C389   O489    1.296   .     S
C390   C392    1.466   .     S
C390   O430    1.294   .     A
C390   O552    1.296   1_455 S
C391   C395    1.399   .     A
C391   C397    1.399   .     A
C392   C396    1.399   .     A
C392   C398    1.398   .     A
C393   C401    1.404   .     A
C393   C395    1.392   .     A
C393   H493    1.083   .     S
C394   C396    1.392   .     A
C394   H432    1.083   .     S
C394   C402    1.404   .     A
C395   H474    1.083   .     S
C396   H535    1.083   1_455 S
C397   H410    1.075   .     S
C397   C399    1.406   .     A
C398   H409    1.075   .     S
C398   C400    1.405   .     A
C399   C401    1.418   .     A
C399   C403    1.427   .     A
C400   C402    1.418   .     A
C400   C404    1.426   .     A
C401   C935    1.390   .     S
C402   C936    1.390   1_554 S
C403   C962    1.424   .     S
C404   C961    1.424   1_554 S
Cu405  O427    1.958   .     S
Cu405  O430    1.945   .     S
Cu405  O426    1.965   .     S
Cu405  N421    2.013   .     S
Cu405  O423    1.965   .     S
Cu405  Cu530   2.678   1_455 S
Cu406  O429    1.945   .     S
Cu406  O428    1.958   .     S
Cu406  O425    1.965   .     S
Cu406  N422    2.013   .     S
Cu406  O424    1.965   .     S
Cu406  Cu467   2.678   .     S
H411   C458    1.083   .     S
H412   C519    1.083   1_455 S
O423   C497    1.291   1_455 S
O424   C436    1.291   .     S
O427   C513    1.296   1_455 S
O428   C452    1.296   .     S
H431   C517    1.083   1_455 S
C435   C446    1.450   .     S
C435   O487    1.291   .     A
C435   O547    1.291   .     S
C436   C445    1.450   .     S
C436   O488    1.291   .     A
C437   C439    1.386   .     A
C437   C466    1.417   .     A
C437   H495    1.076   .     S
C438   H496    1.076   .     S
C438   C440    1.387   .     A
C438   C465    1.417   .     A
C439   H469    1.084   .     S
C439   C1021   1.390   1_554 S
C440   H470    1.084   .     S
C440   C1022   1.390   .     S
C441   C446    1.401   .     A
C441   H475    1.083   .     S
C442   H476    1.083   .     S
C442   C445    1.401   .     A
C442   C72     1.384   1_565 S
C443   H477    1.083   .     S
C443   C69     1.384   1_565 S
C443   C507    1.401   .     S
C444   H478    1.083   .     S
C446   C506    1.401   .     S
C447   C449    1.417   .     A
C447   H479    1.082   .     S
C447   N484    1.368   .     A
C448   H480    1.082   .     S
C448   C450    1.417   .     A
C448   N483    1.368   .     A
C449   H481    1.082   .     S
C449   N483    1.367   .     A
C450   H482    1.082   .     S
C450   N484    1.367   .     A
C451   C453    1.468   .     S
C451   O491    1.295   .     A
C451   O551    1.296   .     S
C452   C454    1.466   .     S
C452   O492    1.294   .     A
C453   C457    1.399   .     A
C453   C459    1.399   .     A
C454   C458    1.399   .     A
C454   C460    1.398   .     A
C455   C463    1.404   .     A
C455   C457    1.392   .     A
C455   H555    1.083   .     S
C456   C458    1.392   .     A
C456   H494    1.083   .     S
C456   C464    1.404   .     A
C457   H536    1.083   .     S
C459   H472    1.075   .     S
C459   C461    1.406   .     A
C460   H471    1.075   .     S
C460   C462    1.405   .     A
C461   C463    1.418   .     A
C461   C465    1.427   .     A
C462   C464    1.418   .     A
C462   C466    1.426   .     A
C463   C997    1.390   .     S
C464   C998    1.390   1_554 S
C465   C1024   1.424   .     S
C466   C1023   1.424   1_554 S
Cu467  O489    1.958   .     S
Cu467  O492    1.945   .     S
Cu467  O488    1.965   .     S
Cu467  N483    2.013   .     S
Cu467  O485    1.965   .     S
Cu468  O491    1.945   .     S
Cu468  O490    1.958   .     S
Cu468  O487    1.965   .     S
Cu468  N484    2.013   .     S
Cu468  O486    1.965   .     S
Cu468  Cu529   2.678   .     S
H473   C520    1.083   .     S
O486   C498    1.291   .     S
O490   C514    1.296   .     S
C497   C508    1.450   .     S
C497   O549    1.291   .     A
C497   O423    1.291   1_655 S
C498   C507    1.450   .     S
C498   O550    1.291   .     A
C499   C501    1.386   .     A
C499   C528    1.417   .     A
C499   H557    1.076   .     S
C500   H558    1.076   .     S
C500   C502    1.387   .     A
C500   C527    1.417   .     A
C501   H531    1.084   .     S
C501   C1083   1.390   1_554 S
C502   H532    1.084   .     S
C502   C1084   1.390   .     S
C503   C508    1.401   .     A
C503   H537    1.083   .     S
C504   H538    1.083   .     S
C504   C507    1.401   .     A
C504   C134    1.384   1_565 S
C505   H539    1.083   .     S
C505   C131    1.384   1_565 S
C505   C383    1.401   1_655 S
C506   H540    1.083   .     S
C508   C382    1.401   1_655 S
C509   C511    1.417   .     A
C509   H541    1.082   .     S
C509   N546    1.368   .     A
C510   H542    1.082   .     S
C510   C512    1.417   .     A
C510   N545    1.368   .     A
C511   H543    1.082   .     S
C511   N545    1.367   .     A
C512   H544    1.082   .     S
C512   N546    1.367   .     A
C513   C515    1.468   .     S
C513   O553    1.295   .     A
C513   O427    1.296   1_655 S
C514   C516    1.466   .     S
C514   O554    1.294   .     A
C515   C519    1.399   .     A
C515   C521    1.399   .     A
C516   C520    1.399   .     A
C516   C522    1.398   .     A
C517   C525    1.404   .     A
C517   C519    1.392   .     A
C517   H431    1.083   1_655 S
C518   C520    1.392   .     A
C518   H556    1.083   .     S
C518   C526    1.404   .     A
C519   H412    1.083   1_655 S
C521   H534    1.075   .     S
C521   C523    1.406   .     A
C522   H533    1.075   .     S
C522   C524    1.405   .     A
C523   C525    1.418   .     A
C523   C527    1.427   .     A
C524   C526    1.418   .     A
C524   C528    1.426   .     A
C525   C1059   1.390   .     S
C526   C1060   1.390   1_554 S
C527   C1086   1.424   .     S
C528   C1085   1.424   1_554 S
Cu529  O551    1.958   .     S
Cu529  O554    1.945   .     S
Cu529  O550    1.965   .     S
Cu529  N545    2.013   .     S
Cu529  O547    1.965   .     S
Cu530  O553    1.945   .     S
Cu530  O552    1.958   .     S
Cu530  O549    1.965   .     S
Cu530  N546    2.013   .     S
Cu530  O548    1.965   .     S
Cu530  Cu405   2.678   1_655 S
H535   C396    1.083   1_655 S
O548   C374    1.291   1_655 S
O552   C390    1.296   1_655 S
C559   C570    1.450   .     S
C559   O611    1.291   .     A
C559   O671    1.291   .     S
C560   C569    1.450   .     S
C560   O612    1.291   .     A
C560   O734    1.291   1_455 S
C561   C563    1.386   .     A
C561   C590    1.417   .     A
C561   H619    1.076   .     S
C562   H620    1.076   .     S
C562   C564    1.387   .     A
C562   C589    1.417   .     A
C563   H593    1.084   .     S
C564   H594    1.084   .     S
C564   C30     1.390   1_556 S
C565   C570    1.401   .     A
C565   H599    1.083   .     S
C565   C939    1.384   1_545 S
C566   H600    1.083   .     S
C566   C569    1.401   .     A
C566   C754    1.384   .     S
C567   H601    1.083   .     S
C567   C751    1.384   .     S
C567   C631    1.401   .     S
C568   H602    1.083   .     S
C568   C938    1.384   1_545 S
C568   C694    1.401   1_455 S
C569   C691    1.401   1_455 S
C570   C630    1.401   .     S
C571   C573    1.417   .     A
C571   H603    1.082   .     S
C571   N608    1.368   .     A
C572   H604    1.082   .     S
C572   C574    1.417   .     A
C572   N607    1.368   .     A
C573   H605    1.082   .     S
C573   N607    1.367   .     A
C574   H606    1.082   .     S
C574   N608    1.367   .     A
C575   C577    1.468   .     S
C575   O615    1.295   .     A
C575   O675    1.296   .     S
C576   C578    1.466   .     S
C576   O616    1.294   .     A
C576   O738    1.296   1_455 S
C577   C581    1.399   .     A
C577   C583    1.399   .     A
C578   C582    1.399   .     A
C578   C584    1.398   .     A
C579   C587    1.404   .     A
C579   C581    1.392   .     A
C579   H679    1.083   .     S
C580   C582    1.392   .     A
C580   H618    1.083   .     S
C580   C588    1.404   .     A
C581   H660    1.083   .     S
C582   H721    1.083   1_455 S
C583   H596    1.075   .     S
C583   C585    1.406   .     A
C584   H595    1.075   .     S
C584   C586    1.405   .     A
C585   C587    1.418   .     A
C585   C589    1.427   .     A
C586   C588    1.418   .     A
C586   C590    1.426   .     A
C587   C5      1.390   1_556 S
C589   C32     1.424   1_556 S
Cu591  O613    1.958   .     S
Cu591  O616    1.945   .     S
Cu591  O612    1.965   .     S
Cu591  N607    2.013   .     S
Cu591  O609    1.965   .     S
Cu591  Cu716   2.678   1_455 S
Cu592  O615    1.945   .     S
Cu592  O614    1.958   .     S
Cu592  O611    1.965   .     S
Cu592  N608    2.013   .     S
Cu592  O610    1.965   .     S
Cu592  Cu653   2.678   .     S
H597   C644    1.083   .     S
H598   C705    1.083   1_455 S
O609   C683    1.291   1_455 S
O610   C622    1.291   .     S
O613   C699    1.296   1_455 S
O614   C638    1.296   .     S
H617   C703    1.083   1_455 S
C621   C632    1.450   .     S
C621   O673    1.291   .     A
C621   O733    1.291   .     S
C622   C631    1.450   .     S
C622   O674    1.291   .     A
C623   C625    1.386   .     A
C623   C652    1.417   .     A
C623   H681    1.076   .     S
C624   H682    1.076   .     S
C624   C626    1.387   .     A
C624   C651    1.417   .     A
C625   H655    1.084   .     S
C626   H656    1.084   .     S
C626   C92     1.390   1_556 S
C627   C632    1.401   .     A
C627   H661    1.083   .     S
C627   C1001   1.384   1_545 S
C628   H662    1.083   .     S
C628   C631    1.401   .     A
C628   C816    1.384   .     S
C629   H663    1.083   .     S
C629   C813    1.384   .     S
C629   C693    1.401   .     S
C630   H664    1.083   .     S
C630   C1000   1.384   1_545 S
C632   C692    1.401   .     S
C633   C635    1.417   .     A
C633   H665    1.082   .     S
C633   N670    1.368   .     A
C634   H666    1.082   .     S
C634   C636    1.417   .     A
C634   N669    1.368   .     A
C635   H667    1.082   .     S
C635   N669    1.367   .     A
C636   H668    1.082   .     S
C636   N670    1.367   .     A
C637   C639    1.468   .     S
C637   O677    1.295   .     A
C637   O737    1.296   .     S
C638   C640    1.466   .     S
C638   O678    1.294   .     A
C639   C643    1.399   .     A
C639   C645    1.399   .     A
C640   C644    1.399   .     A
C640   C646    1.398   .     A
C641   C649    1.404   .     A
C641   C643    1.392   .     A
C641   H741    1.083   .     S
C642   C644    1.392   .     A
C642   H680    1.083   .     S
C642   C650    1.404   .     A
C643   H722    1.083   .     S
C645   H658    1.075   .     S
C645   C647    1.406   .     A
C646   H657    1.075   .     S
C646   C648    1.405   .     A
C647   C649    1.418   .     A
C647   C651    1.427   .     A
C648   C650    1.418   .     A
C648   C652    1.426   .     A
C649   C67     1.390   1_556 S
C651   C94     1.424   1_556 S
Cu653  O675    1.958   .     S
Cu653  O678    1.945   .     S
Cu653  O674    1.965   .     S
Cu653  N669    2.013   .     S
Cu653  O671    1.965   .     S
Cu654  O677    1.945   .     S
Cu654  O676    1.958   .     S
Cu654  O673    1.965   .     S
Cu654  N670    2.013   .     S
Cu654  O672    1.965   .     S
Cu654  Cu715   2.678   .     S
H659   C706    1.083   .     S
O672   C684    1.291   .     S
O676   C700    1.296   .     S
C683   C694    1.450   .     S
C683   O735    1.291   .     A
C683   O609    1.291   1_655 S
C684   C693    1.450   .     S
C684   O736    1.291   .     A
C685   C687    1.386   .     A
C685   C714    1.417   .     A
C685   H743    1.076   .     S
C686   H744    1.076   .     S
C686   C688    1.387   .     A
C686   C713    1.417   .     A
C687   H717    1.084   .     S
C688   H718    1.084   .     S
C688   C154    1.390   1_556 S
C689   C694    1.401   .     A
C689   H723    1.083   .     S
C689   C1063   1.384   1_545 S
C690   H724    1.083   .     S
C690   C693    1.401   .     A
C690   C878    1.384   .     S
C691   H725    1.083   .     S
C691   C875    1.384   .     S
C691   C569    1.401   1_655 S
C692   H726    1.083   .     S
C692   C1062   1.384   1_545 S
C694   C568    1.401   1_655 S
C695   C697    1.417   .     A
C695   H727    1.082   .     S
C695   N732    1.368   .     A
C696   H728    1.082   .     S
C696   C698    1.417   .     A
C696   N731    1.368   .     A
C697   H729    1.082   .     S
C697   N731    1.367   .     A
C698   H730    1.082   .     S
C698   N732    1.367   .     A
C699   C701    1.468   .     S
C699   O739    1.295   .     A
C699   O613    1.296   1_655 S
C700   C702    1.466   .     S
C700   O740    1.294   .     A
C701   C705    1.399   .     A
C701   C707    1.399   .     A
C702   C706    1.399   .     A
C702   C708    1.398   .     A
C703   C711    1.404   .     A
C703   C705    1.392   .     A
C703   H617    1.083   1_655 S
C704   C706    1.392   .     A
C704   H742    1.083   .     S
C704   C712    1.404   .     A
C705   H598    1.083   1_655 S
C707   H720    1.075   .     S
C707   C709    1.406   .     A
C708   H719    1.075   .     S
C708   C710    1.405   .     A
C709   C711    1.418   .     A
C709   C713    1.427   .     A
C710   C712    1.418   .     A
C710   C714    1.426   .     A
C711   C129    1.390   1_556 S
C713   C156    1.424   1_556 S
Cu715  O737    1.958   .     S
Cu715  O740    1.945   .     S
Cu715  O736    1.965   .     S
Cu715  N731    2.013   .     S
Cu715  O733    1.965   .     S
Cu716  O739    1.945   .     S
Cu716  O738    1.958   .     S
Cu716  O735    1.965   .     S
Cu716  N732    2.013   .     S
Cu716  O734    1.965   .     S
Cu716  Cu591   2.678   1_655 S
H721   C582    1.083   1_655 S
O734   C560    1.291   1_655 S
O738   C576    1.296   1_655 S
C745   C756    1.450   .     S
C745   O797    1.291   .     A
C745   O857    1.291   .     S
C746   C755    1.450   .     S
C746   O798    1.291   .     A
C746   O920    1.291   1_455 S
C747   C749    1.386   .     A
C747   C776    1.417   .     A
C747   H805    1.076   .     S
C748   H806    1.076   .     S
C748   C750    1.387   .     A
C748   C775    1.417   .     A
C749   H779    1.084   .     S
C750   H780    1.084   .     S
C750   C216    1.390   1_556 S
C751   C756    1.401   .     A
C751   H785    1.083   .     S
C752   H786    1.083   .     S
C752   C755    1.401   .     A
C752   C940    1.384   .     S
C753   H787    1.083   .     S
C753   C937    1.384   .     S
C753   C817    1.401   .     S
C754   H788    1.083   .     S
C754   C880    1.401   1_455 S
C755   C877    1.401   1_455 S
C756   C816    1.401   .     S
C757   C759    1.417   .     A
C757   H789    1.082   .     S
C757   N794    1.368   .     A
C758   H790    1.082   .     S
C758   C760    1.417   .     A
C758   N793    1.368   .     A
C759   H791    1.082   .     S
C759   N793    1.367   .     A
C760   H792    1.082   .     S
C760   N794    1.367   .     A
C761   C763    1.468   .     S
C761   O801    1.295   .     A
C761   O861    1.296   .     S
C762   C764    1.466   .     S
C762   O802    1.294   .     A
C762   O924    1.296   1_455 S
C763   C767    1.399   .     A
C763   C769    1.399   .     A
C764   C768    1.399   .     A
C764   C770    1.398   .     A
C765   C773    1.404   .     A
C765   C767    1.392   .     A
C765   H865    1.083   .     S
C766   C768    1.392   .     A
C766   H804    1.083   .     S
C766   C774    1.404   .     A
C767   H846    1.083   .     S
C768   H907    1.083   1_455 S
C769   H782    1.075   .     S
C769   C771    1.406   .     A
C770   H781    1.075   .     S
C770   C772    1.405   .     A
C771   C773    1.418   .     A
C771   C775    1.427   .     A
C772   C774    1.418   .     A
C772   C776    1.426   .     A
C773   C191    1.390   1_556 S
C775   C218    1.424   1_556 S
Cu777  O799    1.958   .     S
Cu777  O802    1.945   .     S
Cu777  O798    1.965   .     S
Cu777  N793    2.013   .     S
Cu777  O795    1.965   .     S
Cu777  Cu902   2.678   1_455 S
Cu778  O801    1.945   .     S
Cu778  O800    1.958   .     S
Cu778  O797    1.965   .     S
Cu778  N794    2.013   .     S
Cu778  O796    1.965   .     S
Cu778  Cu839   2.678   .     S
H783   C830    1.083   .     S
H784   C891    1.083   1_455 S
O795   C869    1.291   1_455 S
O796   C808    1.291   .     S
O799   C885    1.296   1_455 S
O800   C824    1.296   .     S
H803   C889    1.083   1_455 S
C807   C818    1.450   .     S
C807   O859    1.291   .     A
C807   O919    1.291   .     S
C808   C817    1.450   .     S
C808   O860    1.291   .     A
C809   C811    1.386   .     A
C809   C838    1.417   .     A
C809   H867    1.076   .     S
C810   H868    1.076   .     S
C810   C812    1.387   .     A
C810   C837    1.417   .     A
C811   H841    1.084   .     S
C812   H842    1.084   .     S
C812   C278    1.390   1_556 S
C813   C818    1.401   .     A
C813   H847    1.083   .     S
C814   H848    1.083   .     S
C814   C817    1.401   .     A
C814   C1002   1.384   .     S
C815   H849    1.083   .     S
C815   C999    1.384   .     S
C815   C879    1.401   .     S
C816   H850    1.083   .     S
C818   C878    1.401   .     S
C819   C821    1.417   .     A
C819   H851    1.082   .     S
C819   N856    1.368   .     A
C820   H852    1.082   .     S
C820   C822    1.417   .     A
C820   N855    1.368   .     A
C821   H853    1.082   .     S
C821   N855    1.367   .     A
C822   H854    1.082   .     S
C822   N856    1.367   .     A
C823   C825    1.468   .     S
C823   O863    1.295   .     A
C823   O923    1.296   .     S
C824   C826    1.466   .     S
C824   O864    1.294   .     A
C825   C829    1.399   .     A
C825   C831    1.399   .     A
C826   C830    1.399   .     A
C826   C832    1.398   .     A
C827   C835    1.404   .     A
C827   C829    1.392   .     A
C827   H927    1.083   .     S
C828   C830    1.392   .     A
C828   H866    1.083   .     S
C828   C836    1.404   .     A
C829   H908    1.083   .     S
C831   H844    1.075   .     S
C831   C833    1.406   .     A
C832   H843    1.075   .     S
C832   C834    1.405   .     A
C833   C835    1.418   .     A
C833   C837    1.427   .     A
C834   C836    1.418   .     A
C834   C838    1.426   .     A
C835   C253    1.390   1_556 S
C837   C280    1.424   1_556 S
Cu839  O861    1.958   .     S
Cu839  O864    1.945   .     S
Cu839  O860    1.965   .     S
Cu839  N855    2.013   .     S
Cu839  O857    1.965   .     S
Cu840  O863    1.945   .     S
Cu840  O862    1.958   .     S
Cu840  O859    1.965   .     S
Cu840  N856    2.013   .     S
Cu840  O858    1.965   .     S
Cu840  Cu901   2.678   .     S
H845   C892    1.083   .     S
O858   C870    1.291   .     S
O862   C886    1.296   .     S
C869   C880    1.450   .     S
C869   O921    1.291   .     A
C869   O795    1.291   1_655 S
C870   C879    1.450   .     S
C870   O922    1.291   .     A
C871   C873    1.386   .     A
C871   C900    1.417   .     A
C871   H929    1.076   .     S
C872   H930    1.076   .     S
C872   C874    1.387   .     A
C872   C899    1.417   .     A
C873   H903    1.084   .     S
C874   H904    1.084   .     S
C874   C340    1.390   1_556 S
C875   C880    1.401   .     A
C875   H909    1.083   .     S
C876   H910    1.083   .     S
C876   C879    1.401   .     A
C876   C1064   1.384   .     S
C877   H911    1.083   .     S
C877   C1061   1.384   .     S
C877   C755    1.401   1_655 S
C878   H912    1.083   .     S
C880   C754    1.401   1_655 S
C881   C883    1.417   .     A
C881   H913    1.082   .     S
C881   N918    1.368   .     A
C882   H914    1.082   .     S
C882   C884    1.417   .     A
C882   N917    1.368   .     A
C883   H915    1.082   .     S
C883   N917    1.367   .     A
C884   H916    1.082   .     S
C884   N918    1.367   .     A
C885   C887    1.468   .     S
C885   O925    1.295   .     A
C885   O799    1.296   1_655 S
C886   C888    1.466   .     S
C886   O926    1.294   .     A
C887   C891    1.399   .     A
C887   C893    1.399   .     A
C888   C892    1.399   .     A
C888   C894    1.398   .     A
C889   C897    1.404   .     A
C889   C891    1.392   .     A
C889   H803    1.083   1_655 S
C890   C892    1.392   .     A
C890   H928    1.083   .     S
C890   C898    1.404   .     A
C891   H784    1.083   1_655 S
C893   H906    1.075   .     S
C893   C895    1.406   .     A
C894   H905    1.075   .     S
C894   C896    1.405   .     A
C895   C897    1.418   .     A
C895   C899    1.427   .     A
C896   C898    1.418   .     A
C896   C900    1.426   .     A
C897   C315    1.390   1_556 S
C899   C342    1.424   1_556 S
Cu901  O923    1.958   .     S
Cu901  O926    1.945   .     S
Cu901  O922    1.965   .     S
Cu901  N917    2.013   .     S
Cu901  O919    1.965   .     S
Cu902  O925    1.945   .     S
Cu902  O924    1.958   .     S
Cu902  O921    1.965   .     S
Cu902  N918    2.013   .     S
Cu902  O920    1.965   .     S
Cu902  Cu777   2.678   1_655 S
H907   C768    1.083   1_655 S
O920   C746    1.291   1_655 S
O924   C762    1.296   1_655 S
C931   C942    1.450   .     S
C931   O983    1.291   .     A
C931   O1043   1.291   .     S
C932   C941    1.450   .     S
C932   O984    1.291   .     A
C932   O1106   1.291   1_455 S
C933   C935    1.386   .     A
C933   C962    1.417   .     A
C933   H991    1.076   .     S
C934   H992    1.076   .     S
C934   C936    1.387   .     A
C934   C961    1.417   .     A
C935   H965    1.084   .     S
C936   H966    1.084   .     S
C936   C402    1.390   1_556 S
C937   C942    1.401   .     A
C937   H971    1.083   .     S
C938   H972    1.083   .     S
C938   C941    1.401   .     A
C938   C568    1.384   1_565 S
C939   H973    1.083   .     S
C939   C565    1.384   1_565 S
C939   C1003   1.401   .     S
C940   H974    1.083   .     S
C940   C1066   1.401   1_455 S
C941   C1063   1.401   1_455 S
C942   C1002   1.401   .     S
C943   C945    1.417   .     A
C943   H975    1.082   .     S
C943   N980    1.368   .     A
C944   H976    1.082   .     S
C944   C946    1.417   .     A
C944   N979    1.368   .     A
C945   H977    1.082   .     S
C945   N979    1.367   .     A
C946   H978    1.082   .     S
C946   N980    1.367   .     A
C947   C949    1.468   .     S
C947   O987    1.295   .     A
C947   O1047   1.296   .     S
C948   C950    1.466   .     S
C948   O988    1.294   .     A
C948   O1110   1.296   1_455 S
C949   C953    1.399   .     A
C949   C955    1.399   .     A
C950   C954    1.399   .     A
C950   C956    1.398   .     A
C951   C959    1.404   .     A
C951   C953    1.392   .     A
C951   H1051   1.083   .     S
C952   C954    1.392   .     A
C952   H990    1.083   .     S
C952   C960    1.404   .     A
C953   H1032   1.083   .     S
C954   H1093   1.083   1_455 S
C955   H968    1.075   .     S
C955   C957    1.406   .     A
C956   H967    1.075   .     S
C956   C958    1.405   .     A
C957   C959    1.418   .     A
C957   C961    1.427   .     A
C958   C960    1.418   .     A
C958   C962    1.426   .     A
C959   C377    1.390   1_556 S
C961   C404    1.424   1_556 S
Cu963  O985    1.958   .     S
Cu963  O988    1.945   .     S
Cu963  O984    1.965   .     S
Cu963  N979    2.013   .     S
Cu963  O981    1.965   .     S
Cu963  Cu1088  2.678   1_455 S
Cu964  O987    1.945   .     S
Cu964  O986    1.958   .     S
Cu964  O983    1.965   .     S
Cu964  N980    2.013   .     S
Cu964  O982    1.965   .     S
Cu964  Cu1025  2.678   .     S
H969   C1016   1.083   .     S
H970   C1077   1.083   1_455 S
O981   C1055   1.291   1_455 S
O982   C994    1.291   .     S
O985   C1071   1.296   1_455 S
O986   C1010   1.296   .     S
H989   C1075   1.083   1_455 S
C993   C1004   1.450   .     S
C993   O1045   1.291   .     A
C993   O1105   1.291   .     S
C994   C1003   1.450   .     S
C994   O1046   1.291   .     A
C995   C997    1.386   .     A
C995   C1024   1.417   .     A
C995   H1053   1.076   .     S
C996   H1054   1.076   .     S
C996   C998    1.387   .     A
C996   C1023   1.417   .     A
C997   H1027   1.084   .     S
C998   H1028   1.084   .     S
C998   C464    1.390   1_556 S
C999   C1004   1.401   .     A
C999   H1033   1.083   .     S
C1000  H1034   1.083   .     S
C1000  C1003   1.401   .     A
C1000  C630    1.384   1_565 S
C1001  H1035   1.083   .     S
C1001  C627    1.384   1_565 S
C1001  C1065   1.401   .     S
C1002  H1036   1.083   .     S
C1004  C1064   1.401   .     S
C1005  C1007   1.417   .     A
C1005  H1037   1.082   .     S
C1005  N1042   1.368   .     A
C1006  H1038   1.082   .     S
C1006  C1008   1.417   .     A
C1006  N1041   1.368   .     A
C1007  H1039   1.082   .     S
C1007  N1041   1.367   .     A
C1008  H1040   1.082   .     S
C1008  N1042   1.367   .     A
C1009  C1011   1.468   .     S
C1009  O1049   1.295   .     A
C1009  O1109   1.296   .     S
C1010  C1012   1.466   .     S
C1010  O1050   1.294   .     A
C1011  C1015   1.399   .     A
C1011  C1017   1.399   .     A
C1012  C1016   1.399   .     A
C1012  C1018   1.398   .     A
C1013  C1021   1.404   .     A
C1013  C1015   1.392   .     A
C1013  H1113   1.083   .     S
C1014  C1016   1.392   .     A
C1014  H1052   1.083   .     S
C1014  C1022   1.404   .     A
C1015  H1094   1.083   .     S
C1017  H1030   1.075   .     S
C1017  C1019   1.406   .     A
C1018  H1029   1.075   .     S
C1018  C1020   1.405   .     A
C1019  C1021   1.418   .     A
C1019  C1023   1.427   .     A
C1020  C1022   1.418   .     A
C1020  C1024   1.426   .     A
C1021  C439    1.390   1_556 S
C1023  C466    1.424   1_556 S
Cu1025 O1047   1.958   .     S
Cu1025 O1050   1.945   .     S
Cu1025 O1046   1.965   .     S
Cu1025 N1041   2.013   .     S
Cu1025 O1043   1.965   .     S
Cu1026 O1049   1.945   .     S
Cu1026 O1048   1.958   .     S
Cu1026 O1045   1.965   .     S
Cu1026 N1042   2.013   .     S
Cu1026 O1044   1.965   .     S
Cu1026 Cu1087  2.678   .     S
H1031  C1078   1.083   .     S
O1044  C1056   1.291   .     S
O1048  C1072   1.296   .     S
C1055  C1066   1.450   .     S
C1055  O1107   1.291   .     A
C1055  O981    1.291   1_655 S
C1056  C1065   1.450   .     S
C1056  O1108   1.291   .     A
C1057  C1059   1.386   .     A
C1057  C1086   1.417   .     A
C1057  H1115   1.076   .     S
C1058  H1116   1.076   .     S
C1058  C1060   1.387   .     A
C1058  C1085   1.417   .     A
C1059  H1089   1.084   .     S
C1060  H1090   1.084   .     S
C1060  C526    1.390   1_556 S
C1061  C1066   1.401   .     A
C1061  H1095   1.083   .     S
C1062  H1096   1.083   .     S
C1062  C1065   1.401   .     A
C1062  C692    1.384   1_565 S
C1063  H1097   1.083   .     S
C1063  C689    1.384   1_565 S
C1063  C941    1.401   1_655 S
C1064  H1098   1.083   .     S
C1066  C940    1.401   1_655 S
C1067  C1069   1.417   .     A
C1067  H1099   1.082   .     S
C1067  N1104   1.368   .     A
C1068  H1100   1.082   .     S
C1068  C1070   1.417   .     A
C1068  N1103   1.368   .     A
C1069  H1101   1.082   .     S
C1069  N1103   1.367   .     A
C1070  H1102   1.082   .     S
C1070  N1104   1.367   .     A
C1071  C1073   1.468   .     S
C1071  O1111   1.295   .     A
C1071  O985    1.296   1_655 S
C1072  C1074   1.466   .     S
C1072  O1112   1.294   .     A
C1073  C1077   1.399   .     A
C1073  C1079   1.399   .     A
C1074  C1078   1.399   .     A
C1074  C1080   1.398   .     A
C1075  C1083   1.404   .     A
C1075  C1077   1.392   .     A
C1075  H989    1.083   1_655 S
C1076  C1078   1.392   .     A
C1076  H1114   1.083   .     S
C1076  C1084   1.404   .     A
C1077  H970    1.083   1_655 S
C1079  H1092   1.075   .     S
C1079  C1081   1.406   .     A
C1080  H1091   1.075   .     S
C1080  C1082   1.405   .     A
C1081  C1083   1.418   .     A
C1081  C1085   1.427   .     A
C1082  C1084   1.418   .     A
C1082  C1086   1.426   .     A
C1083  C501    1.390   1_556 S
C1085  C528    1.424   1_556 S
Cu1087 O1109   1.958   .     S
Cu1087 O1112   1.945   .     S
Cu1087 O1108   1.965   .     S
Cu1087 N1103   2.013   .     S
Cu1087 O1105   1.965   .     S
Cu1088 O1111   1.945   .     S
Cu1088 O1110   1.958   .     S
Cu1088 O1107   1.965   .     S
Cu1088 N1104   2.013   .     S
Cu1088 O1106   1.965   .     S
Cu1088 Cu963   2.678   1_655 S
H1093  C954    1.083   1_655 S
O1106  C932    1.291   1_655 S
O1110  C948    1.296   1_655 S
