data_str_m3_o10_o17_pcu_sym.118
_audit_creation_date              2020-01-03
_audit_creation_method            'Materials Studio'
_symmetry_space_group_name_H-M    'P1'
_symmetry_Int_Tables_number       1
_symmetry_cell_setting            triclinic
loop_
_symmetry_equiv_pos_as_xyz
  x,y,z
_cell_length_a                    23.5047
_cell_length_b                    25.6215
_cell_length_c                    29.7728
_cell_angle_alpha                 91.8039
_cell_angle_beta                  85.1880
_cell_angle_gamma                 93.4720
loop_
_atom_site_label
_atom_site_type_symbol
_atom_site_fract_x
_atom_site_fract_y
_atom_site_fract_z
_atom_site_U_iso_or_equiv
_atom_site_adp_type
_atom_site_occupancy
C1     C     0.18180   0.26480   0.24907   0.00000  Uiso   1.00
C2     C     0.18169   0.21115   0.40635   0.00000  Uiso   1.00
C3     C     0.16578   0.16875   0.11621   0.00000  Uiso   1.00
C4     C     0.16755   0.16458   0.38379   0.00000  Uiso   1.00
C5     C     0.18007   0.21558   0.09368   0.00000  Uiso   1.00
C6     C     0.15326   0.11776   0.40632   0.00000  Uiso   1.00
C7     C     0.18039   0.21513   0.04662   0.00000  Uiso   1.00
C8     C     0.15294   0.11821   0.45338   0.00000  Uiso   1.00
C9     C     0.16643   0.16739   0.02348   0.00000  Uiso   1.00
C10    C     0.16690   0.16594   0.47652   0.00000  Uiso   1.00
C11    C     0.15202   0.12101   0.04728   0.00000  Uiso   1.00
C12    C     0.15154   0.06853   0.25093   0.00000  Uiso   1.00
C13    C     0.18131   0.21233   0.45272   0.00000  Uiso   1.00
C14    C     0.19445   0.26082   0.02208   0.00000  Uiso   1.00
C15    C     0.13889   0.07252   0.47792   0.00000  Uiso   1.00
C16    C     0.19409   0.26338   0.11897   0.00000  Uiso   1.00
C17    C     0.13924   0.06996   0.38103   0.00000  Uiso   1.00
C18    C     0.00871   0.11639   0.20824   0.00000  Uiso   1.00
C19    C     0.32463   0.21695   0.29177   0.00000  Uiso   1.00
C20    C     0.19488   0.25932   0.47549   0.00000  Uiso   1.00
C21    C     0.13845   0.07402   0.02451   0.00000  Uiso   1.00
C22    C     0.18977   0.31933   0.24869   0.00000  Uiso   1.00
C23    C     0.14356   0.01400   0.25131   0.00000  Uiso   1.00
C24    C     0.16697   0.16620   0.33622   0.00000  Uiso   1.00
C25    C     0.16636   0.16713   0.16378   0.00000  Uiso   1.00
C26    C     0.15164   0.12218   0.09365   0.00000  Uiso   1.00
H27    H     0.14093   0.08676   0.11242   0.00000  Uiso   1.00
H28    H     0.19240   0.24658   0.38758   0.00000  Uiso   1.00
H29    H     0.20528   0.29792   0.03857   0.00000  Uiso   1.00
H30    H     0.12805   0.03542   0.46143   0.00000  Uiso   1.00
H31    H     0.20586   0.29496   0.45723   0.00000  Uiso   1.00
H32    H     0.12747   0.03837   0.04277   0.00000  Uiso   1.00
H33    H     0.23348   0.00290   0.24610   0.00000  Uiso   1.00
H34    H     0.09986   0.33044   0.25390   0.00000  Uiso   1.00
N35    N     0.31678   0.15265   0.23783   0.00000  Uiso   1.00
N36    N     0.01656   0.18068   0.26217   0.00000  Uiso   1.00
N37    N     0.20530   0.30157   0.13895   0.00000  Uiso   1.00
N38    N     0.12804   0.03176   0.36105   0.00000  Uiso   1.00
N39    N     0.02913   0.08589   0.18333   0.00000  Uiso   1.00
N40    N     0.30420   0.24744   0.31667   0.00000  Uiso   1.00
O41    O     0.12975   0.24619   0.25299   0.00000  Uiso   1.00
O42    O     0.20358   0.08714   0.24702   0.00000  Uiso   1.00
O43    O     0.22613   0.23721   0.24519   0.00000  Uiso   1.00
O44    O     0.10720   0.09613   0.25482   0.00000  Uiso   1.00
O45    O     0.11847   0.17117   0.31998   0.00000  Uiso   1.00
O46    O     0.21486   0.16216   0.18003   0.00000  Uiso   1.00
O47    O     0.21485   0.16219   0.31218   0.00000  Uiso   1.00
O48    O     0.11848   0.17115   0.18783   0.00000  Uiso   1.00
Zn49   Zn    0.10231   0.17266   0.25521   0.00000  Uiso   1.00
Zn50   Zn    0.23102   0.16067   0.24479   0.00000  Uiso   1.00
C51    C     0.51513   0.26480   0.24907   0.00000  Uiso   1.00
C52    C     0.51502   0.21115   0.40635   0.00000  Uiso   1.00
C53    C     0.49911   0.16875   0.11621   0.00000  Uiso   1.00
C54    C     0.50089   0.16458   0.38379   0.00000  Uiso   1.00
C55    C     0.51340   0.21558   0.09368   0.00000  Uiso   1.00
C56    C     0.48660   0.11776   0.40632   0.00000  Uiso   1.00
C57    C     0.51373   0.21513   0.04662   0.00000  Uiso   1.00
C58    C     0.48627   0.11821   0.45338   0.00000  Uiso   1.00
C59    C     0.49976   0.16739   0.02348   0.00000  Uiso   1.00
C60    C     0.50024   0.16594   0.47652   0.00000  Uiso   1.00
C61    C     0.48535   0.12101   0.04728   0.00000  Uiso   1.00
C62    C     0.48487   0.06853   0.25093   0.00000  Uiso   1.00
C63    C     0.51465   0.21233   0.45272   0.00000  Uiso   1.00
C64    C     0.52778   0.26082   0.02208   0.00000  Uiso   1.00
C65    C     0.47222   0.07252   0.47792   0.00000  Uiso   1.00
C66    C     0.52743   0.26338   0.11897   0.00000  Uiso   1.00
C67    C     0.47257   0.06996   0.38103   0.00000  Uiso   1.00
C68    C     0.34204   0.11639   0.20824   0.00000  Uiso   1.00
C69    C     0.65796   0.21695   0.29177   0.00000  Uiso   1.00
C70    C     0.52821   0.25932   0.47549   0.00000  Uiso   1.00
C71    C     0.47179   0.07402   0.02451   0.00000  Uiso   1.00
C72    C     0.52310   0.31933   0.24869   0.00000  Uiso   1.00
C73    C     0.47690   0.01400   0.25131   0.00000  Uiso   1.00
C74    C     0.50030   0.16620   0.33622   0.00000  Uiso   1.00
C75    C     0.49970   0.16713   0.16378   0.00000  Uiso   1.00
C76    C     0.48498   0.12218   0.09365   0.00000  Uiso   1.00
H77    H     0.47426   0.08676   0.11242   0.00000  Uiso   1.00
H78    H     0.52574   0.24658   0.38758   0.00000  Uiso   1.00
H79    H     0.53862   0.29792   0.03857   0.00000  Uiso   1.00
H80    H     0.46138   0.03542   0.46143   0.00000  Uiso   1.00
H81    H     0.53920   0.29496   0.45723   0.00000  Uiso   1.00
H82    H     0.46080   0.03837   0.04277   0.00000  Uiso   1.00
H83    H     0.56681   0.00290   0.24610   0.00000  Uiso   1.00
H84    H     0.43319   0.33044   0.25390   0.00000  Uiso   1.00
N85    N     0.65011   0.15265   0.23783   0.00000  Uiso   1.00
N86    N     0.34989   0.18068   0.26217   0.00000  Uiso   1.00
N87    N     0.53863   0.30157   0.13895   0.00000  Uiso   1.00
N88    N     0.46137   0.03176   0.36105   0.00000  Uiso   1.00
N89    N     0.36247   0.08589   0.18333   0.00000  Uiso   1.00
N90    N     0.63753   0.24744   0.31667   0.00000  Uiso   1.00
O91    O     0.46308   0.24619   0.25299   0.00000  Uiso   1.00
O92    O     0.53692   0.08714   0.24702   0.00000  Uiso   1.00
O93    O     0.55946   0.23721   0.24519   0.00000  Uiso   1.00
O94    O     0.44054   0.09613   0.25482   0.00000  Uiso   1.00
O95    O     0.45181   0.17117   0.31998   0.00000  Uiso   1.00
O96    O     0.54819   0.16216   0.18003   0.00000  Uiso   1.00
O97    O     0.54819   0.16219   0.31218   0.00000  Uiso   1.00
O98    O     0.45181   0.17115   0.18783   0.00000  Uiso   1.00
Zn99   Zn    0.43565   0.17266   0.25521   0.00000  Uiso   1.00
Zn100  Zn    0.56435   0.16067   0.24479   0.00000  Uiso   1.00
C101   C     0.84846   0.26480   0.24907   0.00000  Uiso   1.00
C102   C     0.84836   0.21115   0.40635   0.00000  Uiso   1.00
C103   C     0.83245   0.16875   0.11621   0.00000  Uiso   1.00
C104   C     0.83422   0.16458   0.38379   0.00000  Uiso   1.00
C105   C     0.84674   0.21558   0.09368   0.00000  Uiso   1.00
C106   C     0.81993   0.11776   0.40632   0.00000  Uiso   1.00
C107   C     0.84706   0.21513   0.04662   0.00000  Uiso   1.00
C108   C     0.81961   0.11821   0.45338   0.00000  Uiso   1.00
C109   C     0.83310   0.16739   0.02348   0.00000  Uiso   1.00
C110   C     0.83357   0.16594   0.47652   0.00000  Uiso   1.00
C111   C     0.81869   0.12101   0.04728   0.00000  Uiso   1.00
C112   C     0.81821   0.06853   0.25093   0.00000  Uiso   1.00
C113   C     0.84798   0.21233   0.45272   0.00000  Uiso   1.00
C114   C     0.86111   0.26082   0.02208   0.00000  Uiso   1.00
C115   C     0.80555   0.07252   0.47792   0.00000  Uiso   1.00
C116   C     0.86076   0.26338   0.11897   0.00000  Uiso   1.00
C117   C     0.80591   0.06996   0.38103   0.00000  Uiso   1.00
C118   C     0.67537   0.11639   0.20824   0.00000  Uiso   1.00
C119   C     0.99130   0.21695   0.29177   0.00000  Uiso   1.00
C120   C     0.86155   0.25932   0.47549   0.00000  Uiso   1.00
C121   C     0.80512   0.07402   0.02451   0.00000  Uiso   1.00
C122   C     0.85644   0.31933   0.24869   0.00000  Uiso   1.00
C123   C     0.81023   0.01400   0.25131   0.00000  Uiso   1.00
C124   C     0.83364   0.16620   0.33622   0.00000  Uiso   1.00
C125   C     0.83303   0.16713   0.16378   0.00000  Uiso   1.00
C126   C     0.81831   0.12218   0.09365   0.00000  Uiso   1.00
H127   H     0.80760   0.08676   0.11242   0.00000  Uiso   1.00
H128   H     0.85907   0.24658   0.38758   0.00000  Uiso   1.00
H129   H     0.87195   0.29792   0.03857   0.00000  Uiso   1.00
H130   H     0.79472   0.03542   0.46143   0.00000  Uiso   1.00
H131   H     0.87253   0.29496   0.45723   0.00000  Uiso   1.00
H132   H     0.79414   0.03837   0.04277   0.00000  Uiso   1.00
H133   H     0.90014   0.00290   0.24610   0.00000  Uiso   1.00
H134   H     0.76652   0.33044   0.25390   0.00000  Uiso   1.00
N135   N     0.98344   0.15265   0.23783   0.00000  Uiso   1.00
N136   N     0.68322   0.18068   0.26217   0.00000  Uiso   1.00
N137   N     0.87196   0.30157   0.13895   0.00000  Uiso   1.00
N138   N     0.79470   0.03176   0.36105   0.00000  Uiso   1.00
N139   N     0.69580   0.08589   0.18333   0.00000  Uiso   1.00
N140   N     0.97087   0.24744   0.31667   0.00000  Uiso   1.00
O141   O     0.79642   0.24619   0.25299   0.00000  Uiso   1.00
O142   O     0.87025   0.08714   0.24702   0.00000  Uiso   1.00
O143   O     0.89280   0.23721   0.24519   0.00000  Uiso   1.00
O144   O     0.77387   0.09613   0.25482   0.00000  Uiso   1.00
O145   O     0.78514   0.17117   0.31998   0.00000  Uiso   1.00
O146   O     0.88153   0.16216   0.18003   0.00000  Uiso   1.00
O147   O     0.88152   0.16219   0.31218   0.00000  Uiso   1.00
O148   O     0.78515   0.17115   0.18783   0.00000  Uiso   1.00
Zn149  Zn    0.76898   0.17266   0.25521   0.00000  Uiso   1.00
Zn150  Zn    0.89769   0.16067   0.24479   0.00000  Uiso   1.00
C151   C     0.18180   0.59814   0.24907   0.00000  Uiso   1.00
C152   C     0.18169   0.54448   0.40635   0.00000  Uiso   1.00
C153   C     0.16578   0.50209   0.11621   0.00000  Uiso   1.00
C154   C     0.16755   0.49791   0.38379   0.00000  Uiso   1.00
C155   C     0.18007   0.54891   0.09368   0.00000  Uiso   1.00
C156   C     0.15326   0.45109   0.40632   0.00000  Uiso   1.00
C157   C     0.18039   0.54846   0.04662   0.00000  Uiso   1.00
C158   C     0.15294   0.45154   0.45338   0.00000  Uiso   1.00
C159   C     0.16643   0.50072   0.02348   0.00000  Uiso   1.00
C160   C     0.16690   0.49928   0.47652   0.00000  Uiso   1.00
C161   C     0.15202   0.45434   0.04728   0.00000  Uiso   1.00
C162   C     0.15154   0.40186   0.25093   0.00000  Uiso   1.00
C163   C     0.18131   0.54566   0.45272   0.00000  Uiso   1.00
C164   C     0.19445   0.59415   0.02208   0.00000  Uiso   1.00
C165   C     0.13889   0.40585   0.47792   0.00000  Uiso   1.00
C166   C     0.19409   0.59671   0.11897   0.00000  Uiso   1.00
C167   C     0.13924   0.40329   0.38103   0.00000  Uiso   1.00
C168   C     0.00871   0.44972   0.20824   0.00000  Uiso   1.00
C169   C     0.32463   0.55028   0.29177   0.00000  Uiso   1.00
C170   C     0.19488   0.59265   0.47549   0.00000  Uiso   1.00
C171   C     0.13845   0.40735   0.02451   0.00000  Uiso   1.00
C172   C     0.18977   0.65267   0.24869   0.00000  Uiso   1.00
C173   C     0.14356   0.34733   0.25131   0.00000  Uiso   1.00
C174   C     0.16697   0.49953   0.33622   0.00000  Uiso   1.00
C175   C     0.16636   0.50047   0.16378   0.00000  Uiso   1.00
C176   C     0.15164   0.45552   0.09365   0.00000  Uiso   1.00
H177   H     0.14093   0.42009   0.11242   0.00000  Uiso   1.00
H178   H     0.19240   0.57991   0.38758   0.00000  Uiso   1.00
H179   H     0.20528   0.63125   0.03857   0.00000  Uiso   1.00
H180   H     0.12805   0.36875   0.46143   0.00000  Uiso   1.00
H181   H     0.20586   0.62830   0.45723   0.00000  Uiso   1.00
H182   H     0.12747   0.37170   0.04277   0.00000  Uiso   1.00
H183   H     0.23348   0.33623   0.24610   0.00000  Uiso   1.00
H184   H     0.09986   0.66377   0.25390   0.00000  Uiso   1.00
N185   N     0.31678   0.48598   0.23783   0.00000  Uiso   1.00
N186   N     0.01656   0.51402   0.26217   0.00000  Uiso   1.00
N187   N     0.20530   0.63490   0.13895   0.00000  Uiso   1.00
N188   N     0.12804   0.36510   0.36105   0.00000  Uiso   1.00
N189   N     0.02913   0.41922   0.18333   0.00000  Uiso   1.00
N190   N     0.30420   0.58078   0.31667   0.00000  Uiso   1.00
O191   O     0.12975   0.57952   0.25299   0.00000  Uiso   1.00
O192   O     0.20358   0.42048   0.24702   0.00000  Uiso   1.00
O193   O     0.22613   0.57054   0.24519   0.00000  Uiso   1.00
O194   O     0.10720   0.42946   0.25482   0.00000  Uiso   1.00
O195   O     0.11847   0.50450   0.31998   0.00000  Uiso   1.00
O196   O     0.21486   0.49550   0.18003   0.00000  Uiso   1.00
O197   O     0.21485   0.49552   0.31218   0.00000  Uiso   1.00
O198   O     0.11848   0.50448   0.18783   0.00000  Uiso   1.00
Zn199  Zn    0.10231   0.50600   0.25521   0.00000  Uiso   1.00
Zn200  Zn    0.23102   0.49400   0.24479   0.00000  Uiso   1.00
C201   C     0.51513   0.59814   0.24907   0.00000  Uiso   1.00
C202   C     0.51502   0.54448   0.40635   0.00000  Uiso   1.00
C203   C     0.49911   0.50209   0.11621   0.00000  Uiso   1.00
C204   C     0.50089   0.49791   0.38379   0.00000  Uiso   1.00
C205   C     0.51340   0.54891   0.09368   0.00000  Uiso   1.00
C206   C     0.48660   0.45109   0.40632   0.00000  Uiso   1.00
C207   C     0.51373   0.54846   0.04662   0.00000  Uiso   1.00
C208   C     0.48627   0.45154   0.45338   0.00000  Uiso   1.00
C209   C     0.49976   0.50072   0.02348   0.00000  Uiso   1.00
C210   C     0.50024   0.49928   0.47652   0.00000  Uiso   1.00
C211   C     0.48535   0.45434   0.04728   0.00000  Uiso   1.00
C212   C     0.48487   0.40186   0.25093   0.00000  Uiso   1.00
C213   C     0.51465   0.54566   0.45272   0.00000  Uiso   1.00
C214   C     0.52778   0.59415   0.02208   0.00000  Uiso   1.00
C215   C     0.47222   0.40585   0.47792   0.00000  Uiso   1.00
C216   C     0.52743   0.59671   0.11897   0.00000  Uiso   1.00
C217   C     0.47257   0.40329   0.38103   0.00000  Uiso   1.00
C218   C     0.34204   0.44972   0.20824   0.00000  Uiso   1.00
C219   C     0.65796   0.55028   0.29177   0.00000  Uiso   1.00
C220   C     0.52821   0.59265   0.47549   0.00000  Uiso   1.00
C221   C     0.47179   0.40735   0.02451   0.00000  Uiso   1.00
C222   C     0.52310   0.65267   0.24869   0.00000  Uiso   1.00
C223   C     0.47690   0.34733   0.25131   0.00000  Uiso   1.00
C224   C     0.50030   0.49953   0.33622   0.00000  Uiso   1.00
C225   C     0.49970   0.50047   0.16378   0.00000  Uiso   1.00
C226   C     0.48498   0.45552   0.09365   0.00000  Uiso   1.00
H227   H     0.47426   0.42009   0.11242   0.00000  Uiso   1.00
H228   H     0.52574   0.57991   0.38758   0.00000  Uiso   1.00
H229   H     0.53862   0.63125   0.03857   0.00000  Uiso   1.00
H230   H     0.46138   0.36875   0.46143   0.00000  Uiso   1.00
H231   H     0.53920   0.62830   0.45723   0.00000  Uiso   1.00
H232   H     0.46080   0.37170   0.04277   0.00000  Uiso   1.00
H233   H     0.56681   0.33623   0.24610   0.00000  Uiso   1.00
H234   H     0.43319   0.66377   0.25390   0.00000  Uiso   1.00
N235   N     0.65011   0.48598   0.23783   0.00000  Uiso   1.00
N236   N     0.34989   0.51402   0.26217   0.00000  Uiso   1.00
N237   N     0.53863   0.63490   0.13895   0.00000  Uiso   1.00
N238   N     0.46137   0.36510   0.36105   0.00000  Uiso   1.00
N239   N     0.36247   0.41922   0.18333   0.00000  Uiso   1.00
N240   N     0.63753   0.58078   0.31667   0.00000  Uiso   1.00
O241   O     0.46308   0.57952   0.25299   0.00000  Uiso   1.00
O242   O     0.53692   0.42048   0.24702   0.00000  Uiso   1.00
O243   O     0.55946   0.57054   0.24519   0.00000  Uiso   1.00
O244   O     0.44054   0.42946   0.25482   0.00000  Uiso   1.00
O245   O     0.45181   0.50450   0.31998   0.00000  Uiso   1.00
O246   O     0.54819   0.49550   0.18003   0.00000  Uiso   1.00
O247   O     0.54819   0.49552   0.31218   0.00000  Uiso   1.00
O248   O     0.45181   0.50448   0.18783   0.00000  Uiso   1.00
Zn249  Zn    0.43565   0.50600   0.25521   0.00000  Uiso   1.00
Zn250  Zn    0.56435   0.49400   0.24479   0.00000  Uiso   1.00
C251   C     0.84846   0.59814   0.24907   0.00000  Uiso   1.00
C252   C     0.84836   0.54448   0.40635   0.00000  Uiso   1.00
C253   C     0.83245   0.50209   0.11621   0.00000  Uiso   1.00
C254   C     0.83422   0.49791   0.38379   0.00000  Uiso   1.00
C255   C     0.84674   0.54891   0.09368   0.00000  Uiso   1.00
C256   C     0.81993   0.45109   0.40632   0.00000  Uiso   1.00
C257   C     0.84706   0.54846   0.04662   0.00000  Uiso   1.00
C258   C     0.81961   0.45154   0.45338   0.00000  Uiso   1.00
C259   C     0.83310   0.50072   0.02348   0.00000  Uiso   1.00
C260   C     0.83357   0.49928   0.47652   0.00000  Uiso   1.00
C261   C     0.81869   0.45434   0.04728   0.00000  Uiso   1.00
C262   C     0.81821   0.40186   0.25093   0.00000  Uiso   1.00
C263   C     0.84798   0.54566   0.45272   0.00000  Uiso   1.00
C264   C     0.86111   0.59415   0.02208   0.00000  Uiso   1.00
C265   C     0.80555   0.40585   0.47792   0.00000  Uiso   1.00
C266   C     0.86076   0.59671   0.11897   0.00000  Uiso   1.00
C267   C     0.80591   0.40329   0.38103   0.00000  Uiso   1.00
C268   C     0.67537   0.44972   0.20824   0.00000  Uiso   1.00
C269   C     0.99130   0.55028   0.29177   0.00000  Uiso   1.00
C270   C     0.86155   0.59265   0.47549   0.00000  Uiso   1.00
C271   C     0.80512   0.40735   0.02451   0.00000  Uiso   1.00
C272   C     0.85644   0.65267   0.24869   0.00000  Uiso   1.00
C273   C     0.81023   0.34733   0.25131   0.00000  Uiso   1.00
C274   C     0.83364   0.49953   0.33622   0.00000  Uiso   1.00
C275   C     0.83303   0.50047   0.16378   0.00000  Uiso   1.00
C276   C     0.81831   0.45552   0.09365   0.00000  Uiso   1.00
H277   H     0.80760   0.42009   0.11242   0.00000  Uiso   1.00
H278   H     0.85907   0.57991   0.38758   0.00000  Uiso   1.00
H279   H     0.87195   0.63125   0.03857   0.00000  Uiso   1.00
H280   H     0.79472   0.36875   0.46143   0.00000  Uiso   1.00
H281   H     0.87253   0.62830   0.45723   0.00000  Uiso   1.00
H282   H     0.79414   0.37170   0.04277   0.00000  Uiso   1.00
H283   H     0.90014   0.33623   0.24610   0.00000  Uiso   1.00
H284   H     0.76652   0.66377   0.25390   0.00000  Uiso   1.00
N285   N     0.98344   0.48598   0.23783   0.00000  Uiso   1.00
N286   N     0.68322   0.51402   0.26217   0.00000  Uiso   1.00
N287   N     0.87196   0.63490   0.13895   0.00000  Uiso   1.00
N288   N     0.79470   0.36510   0.36105   0.00000  Uiso   1.00
N289   N     0.69580   0.41922   0.18333   0.00000  Uiso   1.00
N290   N     0.97087   0.58078   0.31667   0.00000  Uiso   1.00
O291   O     0.79642   0.57952   0.25299   0.00000  Uiso   1.00
O292   O     0.87025   0.42048   0.24702   0.00000  Uiso   1.00
O293   O     0.89280   0.57054   0.24519   0.00000  Uiso   1.00
O294   O     0.77387   0.42946   0.25482   0.00000  Uiso   1.00
O295   O     0.78514   0.50450   0.31998   0.00000  Uiso   1.00
O296   O     0.88153   0.49550   0.18003   0.00000  Uiso   1.00
O297   O     0.88152   0.49552   0.31218   0.00000  Uiso   1.00
O298   O     0.78515   0.50448   0.18783   0.00000  Uiso   1.00
Zn299  Zn    0.76898   0.50600   0.25521   0.00000  Uiso   1.00
Zn300  Zn    0.89769   0.49400   0.24479   0.00000  Uiso   1.00
C301   C     0.18180   0.93147   0.24907   0.00000  Uiso   1.00
C302   C     0.18169   0.87782   0.40635   0.00000  Uiso   1.00
C303   C     0.16578   0.83542   0.11621   0.00000  Uiso   1.00
C304   C     0.16755   0.83125   0.38379   0.00000  Uiso   1.00
C305   C     0.18007   0.88224   0.09368   0.00000  Uiso   1.00
C306   C     0.15326   0.78442   0.40632   0.00000  Uiso   1.00
C307   C     0.18039   0.88179   0.04662   0.00000  Uiso   1.00
C308   C     0.15294   0.78487   0.45338   0.00000  Uiso   1.00
C309   C     0.16643   0.83406   0.02348   0.00000  Uiso   1.00
C310   C     0.16690   0.83261   0.47652   0.00000  Uiso   1.00
C311   C     0.15202   0.78767   0.04728   0.00000  Uiso   1.00
C312   C     0.15154   0.73520   0.25093   0.00000  Uiso   1.00
C313   C     0.18131   0.87899   0.45272   0.00000  Uiso   1.00
C314   C     0.19445   0.92748   0.02208   0.00000  Uiso   1.00
C315   C     0.13889   0.73918   0.47792   0.00000  Uiso   1.00
C316   C     0.19409   0.93004   0.11897   0.00000  Uiso   1.00
C317   C     0.13924   0.73662   0.38103   0.00000  Uiso   1.00
C318   C     0.00871   0.78305   0.20824   0.00000  Uiso   1.00
C319   C     0.32463   0.88361   0.29177   0.00000  Uiso   1.00
C320   C     0.19488   0.92598   0.47549   0.00000  Uiso   1.00
C321   C     0.13845   0.74068   0.02451   0.00000  Uiso   1.00
C322   C     0.18977   0.98600   0.24869   0.00000  Uiso   1.00
C323   C     0.14356   0.68067   0.25131   0.00000  Uiso   1.00
C324   C     0.16697   0.83287   0.33622   0.00000  Uiso   1.00
C325   C     0.16636   0.83380   0.16378   0.00000  Uiso   1.00
C326   C     0.15164   0.78885   0.09365   0.00000  Uiso   1.00
H327   H     0.14093   0.75342   0.11242   0.00000  Uiso   1.00
H328   H     0.19240   0.91324   0.38758   0.00000  Uiso   1.00
H329   H     0.20528   0.96458   0.03857   0.00000  Uiso   1.00
H330   H     0.12805   0.70208   0.46143   0.00000  Uiso   1.00
H331   H     0.20586   0.96163   0.45723   0.00000  Uiso   1.00
H332   H     0.12747   0.70504   0.04277   0.00000  Uiso   1.00
H333   H     0.23348   0.66956   0.24610   0.00000  Uiso   1.00
H334   H     0.09986   0.99710   0.25390   0.00000  Uiso   1.00
N335   N     0.31678   0.81932   0.23783   0.00000  Uiso   1.00
N336   N     0.01656   0.84735   0.26217   0.00000  Uiso   1.00
N337   N     0.20530   0.96824   0.13895   0.00000  Uiso   1.00
N338   N     0.12804   0.69843   0.36105   0.00000  Uiso   1.00
N339   N     0.02913   0.75256   0.18333   0.00000  Uiso   1.00
N340   N     0.30420   0.91411   0.31667   0.00000  Uiso   1.00
O341   O     0.12975   0.91286   0.25299   0.00000  Uiso   1.00
O342   O     0.20358   0.75381   0.24702   0.00000  Uiso   1.00
O343   O     0.22613   0.90387   0.24519   0.00000  Uiso   1.00
O344   O     0.10720   0.76279   0.25482   0.00000  Uiso   1.00
O345   O     0.11847   0.83784   0.31998   0.00000  Uiso   1.00
O346   O     0.21486   0.82883   0.18003   0.00000  Uiso   1.00
O347   O     0.21485   0.82885   0.31218   0.00000  Uiso   1.00
O348   O     0.11848   0.83781   0.18783   0.00000  Uiso   1.00
Zn349  Zn    0.10231   0.83933   0.25521   0.00000  Uiso   1.00
Zn350  Zn    0.23102   0.82734   0.24479   0.00000  Uiso   1.00
C351   C     0.51513   0.93147   0.24907   0.00000  Uiso   1.00
C352   C     0.51502   0.87782   0.40635   0.00000  Uiso   1.00
C353   C     0.49911   0.83542   0.11621   0.00000  Uiso   1.00
C354   C     0.50089   0.83125   0.38379   0.00000  Uiso   1.00
C355   C     0.51340   0.88224   0.09368   0.00000  Uiso   1.00
C356   C     0.48660   0.78442   0.40632   0.00000  Uiso   1.00
C357   C     0.51373   0.88179   0.04662   0.00000  Uiso   1.00
C358   C     0.48627   0.78487   0.45338   0.00000  Uiso   1.00
C359   C     0.49976   0.83406   0.02348   0.00000  Uiso   1.00
C360   C     0.50024   0.83261   0.47652   0.00000  Uiso   1.00
C361   C     0.48535   0.78767   0.04728   0.00000  Uiso   1.00
C362   C     0.48487   0.73520   0.25093   0.00000  Uiso   1.00
C363   C     0.51465   0.87899   0.45272   0.00000  Uiso   1.00
C364   C     0.52778   0.92748   0.02208   0.00000  Uiso   1.00
C365   C     0.47222   0.73918   0.47792   0.00000  Uiso   1.00
C366   C     0.52743   0.93004   0.11897   0.00000  Uiso   1.00
C367   C     0.47257   0.73662   0.38103   0.00000  Uiso   1.00
C368   C     0.34204   0.78305   0.20824   0.00000  Uiso   1.00
C369   C     0.65796   0.88361   0.29177   0.00000  Uiso   1.00
C370   C     0.52821   0.92598   0.47549   0.00000  Uiso   1.00
C371   C     0.47179   0.74068   0.02451   0.00000  Uiso   1.00
C372   C     0.52310   0.98600   0.24869   0.00000  Uiso   1.00
C373   C     0.47690   0.68067   0.25131   0.00000  Uiso   1.00
C374   C     0.50030   0.83287   0.33622   0.00000  Uiso   1.00
C375   C     0.49970   0.83380   0.16378   0.00000  Uiso   1.00
C376   C     0.48498   0.78885   0.09365   0.00000  Uiso   1.00
H377   H     0.47426   0.75342   0.11242   0.00000  Uiso   1.00
H378   H     0.52574   0.91324   0.38758   0.00000  Uiso   1.00
H379   H     0.53862   0.96458   0.03857   0.00000  Uiso   1.00
H380   H     0.46138   0.70208   0.46143   0.00000  Uiso   1.00
H381   H     0.53920   0.96163   0.45723   0.00000  Uiso   1.00
H382   H     0.46080   0.70504   0.04277   0.00000  Uiso   1.00
H383   H     0.56681   0.66956   0.24610   0.00000  Uiso   1.00
H384   H     0.43319   0.99710   0.25390   0.00000  Uiso   1.00
N385   N     0.65011   0.81932   0.23783   0.00000  Uiso   1.00
N386   N     0.34989   0.84735   0.26217   0.00000  Uiso   1.00
N387   N     0.53863   0.96824   0.13895   0.00000  Uiso   1.00
N388   N     0.46137   0.69843   0.36105   0.00000  Uiso   1.00
N389   N     0.36247   0.75256   0.18333   0.00000  Uiso   1.00
N390   N     0.63753   0.91411   0.31667   0.00000  Uiso   1.00
O391   O     0.46308   0.91286   0.25299   0.00000  Uiso   1.00
O392   O     0.53692   0.75381   0.24702   0.00000  Uiso   1.00
O393   O     0.55946   0.90387   0.24519   0.00000  Uiso   1.00
O394   O     0.44054   0.76279   0.25482   0.00000  Uiso   1.00
O395   O     0.45181   0.83784   0.31998   0.00000  Uiso   1.00
O396   O     0.54819   0.82883   0.18003   0.00000  Uiso   1.00
O397   O     0.54819   0.82885   0.31218   0.00000  Uiso   1.00
O398   O     0.45181   0.83781   0.18783   0.00000  Uiso   1.00
Zn399  Zn    0.43565   0.83933   0.25521   0.00000  Uiso   1.00
Zn400  Zn    0.56435   0.82734   0.24479   0.00000  Uiso   1.00
C401   C     0.84846   0.93147   0.24907   0.00000  Uiso   1.00
C402   C     0.84836   0.87782   0.40635   0.00000  Uiso   1.00
C403   C     0.83245   0.83542   0.11621   0.00000  Uiso   1.00
C404   C     0.83422   0.83125   0.38379   0.00000  Uiso   1.00
C405   C     0.84674   0.88224   0.09368   0.00000  Uiso   1.00
C406   C     0.81993   0.78442   0.40632   0.00000  Uiso   1.00
C407   C     0.84706   0.88179   0.04662   0.00000  Uiso   1.00
C408   C     0.81961   0.78487   0.45338   0.00000  Uiso   1.00
C409   C     0.83310   0.83406   0.02348   0.00000  Uiso   1.00
C410   C     0.83357   0.83261   0.47652   0.00000  Uiso   1.00
C411   C     0.81869   0.78767   0.04728   0.00000  Uiso   1.00
C412   C     0.81821   0.73520   0.25093   0.00000  Uiso   1.00
C413   C     0.84798   0.87899   0.45272   0.00000  Uiso   1.00
C414   C     0.86111   0.92748   0.02208   0.00000  Uiso   1.00
C415   C     0.80555   0.73918   0.47792   0.00000  Uiso   1.00
C416   C     0.86076   0.93004   0.11897   0.00000  Uiso   1.00
C417   C     0.80591   0.73662   0.38103   0.00000  Uiso   1.00
C418   C     0.67537   0.78305   0.20824   0.00000  Uiso   1.00
C419   C     0.99130   0.88361   0.29177   0.00000  Uiso   1.00
C420   C     0.86155   0.92598   0.47549   0.00000  Uiso   1.00
C421   C     0.80512   0.74068   0.02451   0.00000  Uiso   1.00
C422   C     0.85644   0.98600   0.24869   0.00000  Uiso   1.00
C423   C     0.81023   0.68067   0.25131   0.00000  Uiso   1.00
C424   C     0.83364   0.83287   0.33622   0.00000  Uiso   1.00
C425   C     0.83303   0.83380   0.16378   0.00000  Uiso   1.00
C426   C     0.81831   0.78885   0.09365   0.00000  Uiso   1.00
H427   H     0.80760   0.75342   0.11242   0.00000  Uiso   1.00
H428   H     0.85907   0.91324   0.38758   0.00000  Uiso   1.00
H429   H     0.87195   0.96458   0.03857   0.00000  Uiso   1.00
H430   H     0.79472   0.70208   0.46143   0.00000  Uiso   1.00
H431   H     0.87253   0.96163   0.45723   0.00000  Uiso   1.00
H432   H     0.79414   0.70504   0.04277   0.00000  Uiso   1.00
H433   H     0.90014   0.66956   0.24610   0.00000  Uiso   1.00
H434   H     0.76652   0.99710   0.25390   0.00000  Uiso   1.00
N435   N     0.98344   0.81932   0.23783   0.00000  Uiso   1.00
N436   N     0.68322   0.84735   0.26217   0.00000  Uiso   1.00
N437   N     0.87196   0.96824   0.13895   0.00000  Uiso   1.00
N438   N     0.79470   0.69843   0.36105   0.00000  Uiso   1.00
N439   N     0.69580   0.75256   0.18333   0.00000  Uiso   1.00
N440   N     0.97087   0.91411   0.31667   0.00000  Uiso   1.00
O441   O     0.79642   0.91286   0.25299   0.00000  Uiso   1.00
O442   O     0.87025   0.75381   0.24702   0.00000  Uiso   1.00
O443   O     0.89280   0.90387   0.24519   0.00000  Uiso   1.00
O444   O     0.77387   0.76279   0.25482   0.00000  Uiso   1.00
O445   O     0.78514   0.83784   0.31998   0.00000  Uiso   1.00
O446   O     0.88153   0.82883   0.18003   0.00000  Uiso   1.00
O447   O     0.88152   0.82885   0.31218   0.00000  Uiso   1.00
O448   O     0.78515   0.83781   0.18783   0.00000  Uiso   1.00
Zn449  Zn    0.76898   0.83933   0.25521   0.00000  Uiso   1.00
Zn450  Zn    0.89769   0.82734   0.24479   0.00000  Uiso   1.00
C451   C     0.18180   0.26480   0.74907   0.00000  Uiso   1.00
C452   C     0.18169   0.21115   0.90635   0.00000  Uiso   1.00
C453   C     0.16578   0.16875   0.61621   0.00000  Uiso   1.00
C454   C     0.16755   0.16458   0.88379   0.00000  Uiso   1.00
C455   C     0.18007   0.21558   0.59368   0.00000  Uiso   1.00
C456   C     0.15326   0.11776   0.90632   0.00000  Uiso   1.00
C457   C     0.18039   0.21513   0.54662   0.00000  Uiso   1.00
C458   C     0.15294   0.11821   0.95338   0.00000  Uiso   1.00
C459   C     0.16643   0.16739   0.52348   0.00000  Uiso   1.00
C460   C     0.16690   0.16594   0.97652   0.00000  Uiso   1.00
C461   C     0.15202   0.12101   0.54728   0.00000  Uiso   1.00
C462   C     0.15154   0.06853   0.75093   0.00000  Uiso   1.00
C463   C     0.18131   0.21233   0.95272   0.00000  Uiso   1.00
C464   C     0.19445   0.26082   0.52208   0.00000  Uiso   1.00
C465   C     0.13889   0.07252   0.97792   0.00000  Uiso   1.00
C466   C     0.19409   0.26338   0.61897   0.00000  Uiso   1.00
C467   C     0.13924   0.06996   0.88103   0.00000  Uiso   1.00
C468   C     0.00871   0.11639   0.70824   0.00000  Uiso   1.00
C469   C     0.32463   0.21695   0.79177   0.00000  Uiso   1.00
C470   C     0.19488   0.25932   0.97549   0.00000  Uiso   1.00
C471   C     0.13845   0.07402   0.52451   0.00000  Uiso   1.00
C472   C     0.18977   0.31933   0.74869   0.00000  Uiso   1.00
C473   C     0.14356   0.01400   0.75131   0.00000  Uiso   1.00
C474   C     0.16697   0.16620   0.83622   0.00000  Uiso   1.00
C475   C     0.16636   0.16713   0.66378   0.00000  Uiso   1.00
C476   C     0.15164   0.12218   0.59365   0.00000  Uiso   1.00
H477   H     0.14093   0.08676   0.61242   0.00000  Uiso   1.00
H478   H     0.19240   0.24658   0.88758   0.00000  Uiso   1.00
H479   H     0.20528   0.29792   0.53857   0.00000  Uiso   1.00
H480   H     0.12805   0.03542   0.96143   0.00000  Uiso   1.00
H481   H     0.20586   0.29496   0.95723   0.00000  Uiso   1.00
H482   H     0.12747   0.03837   0.54277   0.00000  Uiso   1.00
H483   H     0.23348   0.00290   0.74610   0.00000  Uiso   1.00
H484   H     0.09986   0.33044   0.75390   0.00000  Uiso   1.00
N485   N     0.31678   0.15265   0.73783   0.00000  Uiso   1.00
N486   N     0.01656   0.18068   0.76217   0.00000  Uiso   1.00
N487   N     0.20530   0.30157   0.63895   0.00000  Uiso   1.00
N488   N     0.12804   0.03176   0.86105   0.00000  Uiso   1.00
N489   N     0.02913   0.08589   0.68333   0.00000  Uiso   1.00
N490   N     0.30420   0.24744   0.81667   0.00000  Uiso   1.00
O491   O     0.12975   0.24619   0.75299   0.00000  Uiso   1.00
O492   O     0.20358   0.08714   0.74702   0.00000  Uiso   1.00
O493   O     0.22613   0.23721   0.74519   0.00000  Uiso   1.00
O494   O     0.10720   0.09613   0.75482   0.00000  Uiso   1.00
O495   O     0.11847   0.17117   0.81998   0.00000  Uiso   1.00
O496   O     0.21486   0.16216   0.68003   0.00000  Uiso   1.00
O497   O     0.21485   0.16219   0.81218   0.00000  Uiso   1.00
O498   O     0.11848   0.17115   0.68783   0.00000  Uiso   1.00
Zn499  Zn    0.10231   0.17266   0.75521   0.00000  Uiso   1.00
Zn500  Zn    0.23102   0.16067   0.74479   0.00000  Uiso   1.00
C501   C     0.51513   0.26480   0.74907   0.00000  Uiso   1.00
C502   C     0.51502   0.21115   0.90635   0.00000  Uiso   1.00
C503   C     0.49911   0.16875   0.61621   0.00000  Uiso   1.00
C504   C     0.50089   0.16458   0.88379   0.00000  Uiso   1.00
C505   C     0.51340   0.21558   0.59368   0.00000  Uiso   1.00
C506   C     0.48660   0.11776   0.90632   0.00000  Uiso   1.00
C507   C     0.51373   0.21513   0.54662   0.00000  Uiso   1.00
C508   C     0.48627   0.11821   0.95338   0.00000  Uiso   1.00
C509   C     0.49976   0.16739   0.52348   0.00000  Uiso   1.00
C510   C     0.50024   0.16594   0.97652   0.00000  Uiso   1.00
C511   C     0.48535   0.12101   0.54728   0.00000  Uiso   1.00
C512   C     0.48487   0.06853   0.75093   0.00000  Uiso   1.00
C513   C     0.51465   0.21233   0.95272   0.00000  Uiso   1.00
C514   C     0.52778   0.26082   0.52208   0.00000  Uiso   1.00
C515   C     0.47222   0.07252   0.97792   0.00000  Uiso   1.00
C516   C     0.52743   0.26338   0.61897   0.00000  Uiso   1.00
C517   C     0.47257   0.06996   0.88103   0.00000  Uiso   1.00
C518   C     0.34204   0.11639   0.70824   0.00000  Uiso   1.00
C519   C     0.65796   0.21695   0.79177   0.00000  Uiso   1.00
C520   C     0.52821   0.25932   0.97549   0.00000  Uiso   1.00
C521   C     0.47179   0.07402   0.52451   0.00000  Uiso   1.00
C522   C     0.52310   0.31933   0.74869   0.00000  Uiso   1.00
C523   C     0.47690   0.01400   0.75131   0.00000  Uiso   1.00
C524   C     0.50030   0.16620   0.83622   0.00000  Uiso   1.00
C525   C     0.49970   0.16713   0.66378   0.00000  Uiso   1.00
C526   C     0.48498   0.12218   0.59365   0.00000  Uiso   1.00
H527   H     0.47426   0.08676   0.61242   0.00000  Uiso   1.00
H528   H     0.52574   0.24658   0.88758   0.00000  Uiso   1.00
H529   H     0.53862   0.29792   0.53857   0.00000  Uiso   1.00
H530   H     0.46138   0.03542   0.96143   0.00000  Uiso   1.00
H531   H     0.53920   0.29496   0.95723   0.00000  Uiso   1.00
H532   H     0.46080   0.03837   0.54277   0.00000  Uiso   1.00
H533   H     0.56681   0.00290   0.74610   0.00000  Uiso   1.00
H534   H     0.43319   0.33044   0.75390   0.00000  Uiso   1.00
N535   N     0.65011   0.15265   0.73783   0.00000  Uiso   1.00
N536   N     0.34989   0.18068   0.76217   0.00000  Uiso   1.00
N537   N     0.53863   0.30157   0.63895   0.00000  Uiso   1.00
N538   N     0.46137   0.03176   0.86105   0.00000  Uiso   1.00
N539   N     0.36247   0.08589   0.68333   0.00000  Uiso   1.00
N540   N     0.63753   0.24744   0.81667   0.00000  Uiso   1.00
O541   O     0.46308   0.24619   0.75299   0.00000  Uiso   1.00
O542   O     0.53692   0.08714   0.74702   0.00000  Uiso   1.00
O543   O     0.55946   0.23721   0.74519   0.00000  Uiso   1.00
O544   O     0.44054   0.09613   0.75482   0.00000  Uiso   1.00
O545   O     0.45181   0.17117   0.81998   0.00000  Uiso   1.00
O546   O     0.54819   0.16216   0.68003   0.00000  Uiso   1.00
O547   O     0.54819   0.16219   0.81218   0.00000  Uiso   1.00
O548   O     0.45181   0.17115   0.68783   0.00000  Uiso   1.00
Zn549  Zn    0.43565   0.17266   0.75521   0.00000  Uiso   1.00
Zn550  Zn    0.56435   0.16067   0.74479   0.00000  Uiso   1.00
C551   C     0.84846   0.26480   0.74907   0.00000  Uiso   1.00
C552   C     0.84836   0.21115   0.90635   0.00000  Uiso   1.00
C553   C     0.83245   0.16875   0.61621   0.00000  Uiso   1.00
C554   C     0.83422   0.16458   0.88379   0.00000  Uiso   1.00
C555   C     0.84674   0.21558   0.59368   0.00000  Uiso   1.00
C556   C     0.81993   0.11776   0.90632   0.00000  Uiso   1.00
C557   C     0.84706   0.21513   0.54662   0.00000  Uiso   1.00
C558   C     0.81961   0.11821   0.95338   0.00000  Uiso   1.00
C559   C     0.83310   0.16739   0.52348   0.00000  Uiso   1.00
C560   C     0.83357   0.16594   0.97652   0.00000  Uiso   1.00
C561   C     0.81869   0.12101   0.54728   0.00000  Uiso   1.00
C562   C     0.81821   0.06853   0.75093   0.00000  Uiso   1.00
C563   C     0.84798   0.21233   0.95272   0.00000  Uiso   1.00
C564   C     0.86111   0.26082   0.52208   0.00000  Uiso   1.00
C565   C     0.80555   0.07252   0.97792   0.00000  Uiso   1.00
C566   C     0.86076   0.26338   0.61897   0.00000  Uiso   1.00
C567   C     0.80591   0.06996   0.88103   0.00000  Uiso   1.00
C568   C     0.67537   0.11639   0.70824   0.00000  Uiso   1.00
C569   C     0.99130   0.21695   0.79177   0.00000  Uiso   1.00
C570   C     0.86155   0.25932   0.97549   0.00000  Uiso   1.00
C571   C     0.80512   0.07402   0.52451   0.00000  Uiso   1.00
C572   C     0.85644   0.31933   0.74869   0.00000  Uiso   1.00
C573   C     0.81023   0.01400   0.75131   0.00000  Uiso   1.00
C574   C     0.83364   0.16620   0.83622   0.00000  Uiso   1.00
C575   C     0.83303   0.16713   0.66378   0.00000  Uiso   1.00
C576   C     0.81831   0.12218   0.59365   0.00000  Uiso   1.00
H577   H     0.80760   0.08676   0.61242   0.00000  Uiso   1.00
H578   H     0.85907   0.24658   0.88758   0.00000  Uiso   1.00
H579   H     0.87195   0.29792   0.53857   0.00000  Uiso   1.00
H580   H     0.79472   0.03542   0.96143   0.00000  Uiso   1.00
H581   H     0.87253   0.29496   0.95723   0.00000  Uiso   1.00
H582   H     0.79414   0.03837   0.54277   0.00000  Uiso   1.00
H583   H     0.90014   0.00290   0.74610   0.00000  Uiso   1.00
H584   H     0.76652   0.33044   0.75390   0.00000  Uiso   1.00
N585   N     0.98344   0.15265   0.73783   0.00000  Uiso   1.00
N586   N     0.68322   0.18068   0.76217   0.00000  Uiso   1.00
N587   N     0.87196   0.30157   0.63895   0.00000  Uiso   1.00
N588   N     0.79470   0.03176   0.86105   0.00000  Uiso   1.00
N589   N     0.69580   0.08589   0.68333   0.00000  Uiso   1.00
N590   N     0.97087   0.24744   0.81667   0.00000  Uiso   1.00
O591   O     0.79642   0.24619   0.75299   0.00000  Uiso   1.00
O592   O     0.87025   0.08714   0.74702   0.00000  Uiso   1.00
O593   O     0.89280   0.23721   0.74519   0.00000  Uiso   1.00
O594   O     0.77387   0.09613   0.75482   0.00000  Uiso   1.00
O595   O     0.78514   0.17117   0.81998   0.00000  Uiso   1.00
O596   O     0.88153   0.16216   0.68003   0.00000  Uiso   1.00
O597   O     0.88152   0.16219   0.81218   0.00000  Uiso   1.00
O598   O     0.78515   0.17115   0.68783   0.00000  Uiso   1.00
Zn599  Zn    0.76898   0.17266   0.75521   0.00000  Uiso   1.00
Zn600  Zn    0.89769   0.16067   0.74479   0.00000  Uiso   1.00
C601   C     0.18180   0.59814   0.74907   0.00000  Uiso   1.00
C602   C     0.18169   0.54448   0.90635   0.00000  Uiso   1.00
C603   C     0.16578   0.50209   0.61621   0.00000  Uiso   1.00
C604   C     0.16755   0.49791   0.88379   0.00000  Uiso   1.00
C605   C     0.18007   0.54891   0.59368   0.00000  Uiso   1.00
C606   C     0.15326   0.45109   0.90632   0.00000  Uiso   1.00
C607   C     0.18039   0.54846   0.54662   0.00000  Uiso   1.00
C608   C     0.15294   0.45154   0.95338   0.00000  Uiso   1.00
C609   C     0.16643   0.50072   0.52348   0.00000  Uiso   1.00
C610   C     0.16690   0.49928   0.97652   0.00000  Uiso   1.00
C611   C     0.15202   0.45434   0.54728   0.00000  Uiso   1.00
C612   C     0.15154   0.40186   0.75093   0.00000  Uiso   1.00
C613   C     0.18131   0.54566   0.95272   0.00000  Uiso   1.00
C614   C     0.19445   0.59415   0.52208   0.00000  Uiso   1.00
C615   C     0.13889   0.40585   0.97792   0.00000  Uiso   1.00
C616   C     0.19409   0.59671   0.61897   0.00000  Uiso   1.00
C617   C     0.13924   0.40329   0.88103   0.00000  Uiso   1.00
C618   C     0.00871   0.44972   0.70824   0.00000  Uiso   1.00
C619   C     0.32463   0.55028   0.79177   0.00000  Uiso   1.00
C620   C     0.19488   0.59265   0.97549   0.00000  Uiso   1.00
C621   C     0.13845   0.40735   0.52451   0.00000  Uiso   1.00
C622   C     0.18977   0.65267   0.74869   0.00000  Uiso   1.00
C623   C     0.14356   0.34733   0.75131   0.00000  Uiso   1.00
C624   C     0.16697   0.49953   0.83622   0.00000  Uiso   1.00
C625   C     0.16636   0.50047   0.66378   0.00000  Uiso   1.00
C626   C     0.15164   0.45552   0.59365   0.00000  Uiso   1.00
H627   H     0.14093   0.42009   0.61242   0.00000  Uiso   1.00
H628   H     0.19240   0.57991   0.88758   0.00000  Uiso   1.00
H629   H     0.20528   0.63125   0.53857   0.00000  Uiso   1.00
H630   H     0.12805   0.36875   0.96143   0.00000  Uiso   1.00
H631   H     0.20586   0.62830   0.95723   0.00000  Uiso   1.00
H632   H     0.12747   0.37170   0.54277   0.00000  Uiso   1.00
H633   H     0.23348   0.33623   0.74610   0.00000  Uiso   1.00
H634   H     0.09986   0.66377   0.75390   0.00000  Uiso   1.00
N635   N     0.31678   0.48598   0.73783   0.00000  Uiso   1.00
N636   N     0.01656   0.51402   0.76217   0.00000  Uiso   1.00
N637   N     0.20530   0.63490   0.63895   0.00000  Uiso   1.00
N638   N     0.12804   0.36510   0.86105   0.00000  Uiso   1.00
N639   N     0.02913   0.41922   0.68333   0.00000  Uiso   1.00
N640   N     0.30420   0.58078   0.81667   0.00000  Uiso   1.00
O641   O     0.12975   0.57952   0.75299   0.00000  Uiso   1.00
O642   O     0.20358   0.42048   0.74702   0.00000  Uiso   1.00
O643   O     0.22613   0.57054   0.74519   0.00000  Uiso   1.00
O644   O     0.10720   0.42946   0.75482   0.00000  Uiso   1.00
O645   O     0.11847   0.50450   0.81998   0.00000  Uiso   1.00
O646   O     0.21486   0.49550   0.68003   0.00000  Uiso   1.00
O647   O     0.21485   0.49552   0.81218   0.00000  Uiso   1.00
O648   O     0.11848   0.50448   0.68783   0.00000  Uiso   1.00
Zn649  Zn    0.10231   0.50600   0.75521   0.00000  Uiso   1.00
Zn650  Zn    0.23102   0.49400   0.74479   0.00000  Uiso   1.00
C651   C     0.51513   0.59814   0.74907   0.00000  Uiso   1.00
C652   C     0.51502   0.54448   0.90635   0.00000  Uiso   1.00
C653   C     0.49911   0.50209   0.61621   0.00000  Uiso   1.00
C654   C     0.50089   0.49791   0.88379   0.00000  Uiso   1.00
C655   C     0.51340   0.54891   0.59368   0.00000  Uiso   1.00
C656   C     0.48660   0.45109   0.90632   0.00000  Uiso   1.00
C657   C     0.51373   0.54846   0.54662   0.00000  Uiso   1.00
C658   C     0.48627   0.45154   0.95338   0.00000  Uiso   1.00
C659   C     0.49976   0.50072   0.52348   0.00000  Uiso   1.00
C660   C     0.50024   0.49928   0.97652   0.00000  Uiso   1.00
C661   C     0.48535   0.45434   0.54728   0.00000  Uiso   1.00
C662   C     0.48487   0.40186   0.75093   0.00000  Uiso   1.00
C663   C     0.51465   0.54566   0.95272   0.00000  Uiso   1.00
C664   C     0.52778   0.59415   0.52208   0.00000  Uiso   1.00
C665   C     0.47222   0.40585   0.97792   0.00000  Uiso   1.00
C666   C     0.52743   0.59671   0.61897   0.00000  Uiso   1.00
C667   C     0.47257   0.40329   0.88103   0.00000  Uiso   1.00
C668   C     0.34204   0.44972   0.70824   0.00000  Uiso   1.00
C669   C     0.65796   0.55028   0.79177   0.00000  Uiso   1.00
C670   C     0.52821   0.59265   0.97549   0.00000  Uiso   1.00
C671   C     0.47179   0.40735   0.52451   0.00000  Uiso   1.00
C672   C     0.52310   0.65267   0.74869   0.00000  Uiso   1.00
C673   C     0.47690   0.34733   0.75131   0.00000  Uiso   1.00
C674   C     0.50030   0.49953   0.83622   0.00000  Uiso   1.00
C675   C     0.49970   0.50047   0.66378   0.00000  Uiso   1.00
C676   C     0.48498   0.45552   0.59365   0.00000  Uiso   1.00
H677   H     0.47426   0.42009   0.61242   0.00000  Uiso   1.00
H678   H     0.52574   0.57991   0.88758   0.00000  Uiso   1.00
H679   H     0.53862   0.63125   0.53857   0.00000  Uiso   1.00
H680   H     0.46138   0.36875   0.96143   0.00000  Uiso   1.00
H681   H     0.53920   0.62830   0.95723   0.00000  Uiso   1.00
H682   H     0.46080   0.37170   0.54277   0.00000  Uiso   1.00
H683   H     0.56681   0.33623   0.74610   0.00000  Uiso   1.00
H684   H     0.43319   0.66377   0.75390   0.00000  Uiso   1.00
N685   N     0.65011   0.48598   0.73783   0.00000  Uiso   1.00
N686   N     0.34989   0.51402   0.76217   0.00000  Uiso   1.00
N687   N     0.53863   0.63490   0.63895   0.00000  Uiso   1.00
N688   N     0.46137   0.36510   0.86105   0.00000  Uiso   1.00
N689   N     0.36247   0.41922   0.68333   0.00000  Uiso   1.00
N690   N     0.63753   0.58078   0.81667   0.00000  Uiso   1.00
O691   O     0.46308   0.57952   0.75299   0.00000  Uiso   1.00
O692   O     0.53692   0.42048   0.74702   0.00000  Uiso   1.00
O693   O     0.55946   0.57054   0.74519   0.00000  Uiso   1.00
O694   O     0.44054   0.42946   0.75482   0.00000  Uiso   1.00
O695   O     0.45181   0.50450   0.81998   0.00000  Uiso   1.00
O696   O     0.54819   0.49550   0.68003   0.00000  Uiso   1.00
O697   O     0.54819   0.49552   0.81218   0.00000  Uiso   1.00
O698   O     0.45181   0.50448   0.68783   0.00000  Uiso   1.00
Zn699  Zn    0.43565   0.50600   0.75521   0.00000  Uiso   1.00
Zn700  Zn    0.56435   0.49400   0.74479   0.00000  Uiso   1.00
C701   C     0.84846   0.59814   0.74907   0.00000  Uiso   1.00
C702   C     0.84836   0.54448   0.90635   0.00000  Uiso   1.00
C703   C     0.83245   0.50209   0.61621   0.00000  Uiso   1.00
C704   C     0.83422   0.49791   0.88379   0.00000  Uiso   1.00
C705   C     0.84674   0.54891   0.59368   0.00000  Uiso   1.00
C706   C     0.81993   0.45109   0.90632   0.00000  Uiso   1.00
C707   C     0.84706   0.54846   0.54662   0.00000  Uiso   1.00
C708   C     0.81961   0.45154   0.95338   0.00000  Uiso   1.00
C709   C     0.83310   0.50072   0.52348   0.00000  Uiso   1.00
C710   C     0.83357   0.49928   0.97652   0.00000  Uiso   1.00
C711   C     0.81869   0.45434   0.54728   0.00000  Uiso   1.00
C712   C     0.81821   0.40186   0.75093   0.00000  Uiso   1.00
C713   C     0.84798   0.54566   0.95272   0.00000  Uiso   1.00
C714   C     0.86111   0.59415   0.52208   0.00000  Uiso   1.00
C715   C     0.80555   0.40585   0.97792   0.00000  Uiso   1.00
C716   C     0.86076   0.59671   0.61897   0.00000  Uiso   1.00
C717   C     0.80591   0.40329   0.88103   0.00000  Uiso   1.00
C718   C     0.67537   0.44972   0.70824   0.00000  Uiso   1.00
C719   C     0.99130   0.55028   0.79177   0.00000  Uiso   1.00
C720   C     0.86155   0.59265   0.97549   0.00000  Uiso   1.00
C721   C     0.80512   0.40735   0.52451   0.00000  Uiso   1.00
C722   C     0.85644   0.65267   0.74869   0.00000  Uiso   1.00
C723   C     0.81023   0.34733   0.75131   0.00000  Uiso   1.00
C724   C     0.83364   0.49953   0.83622   0.00000  Uiso   1.00
C725   C     0.83303   0.50047   0.66378   0.00000  Uiso   1.00
C726   C     0.81831   0.45552   0.59365   0.00000  Uiso   1.00
H727   H     0.80760   0.42009   0.61242   0.00000  Uiso   1.00
H728   H     0.85907   0.57991   0.88758   0.00000  Uiso   1.00
H729   H     0.87195   0.63125   0.53857   0.00000  Uiso   1.00
H730   H     0.79472   0.36875   0.96143   0.00000  Uiso   1.00
H731   H     0.87253   0.62830   0.95723   0.00000  Uiso   1.00
H732   H     0.79414   0.37170   0.54277   0.00000  Uiso   1.00
H733   H     0.90014   0.33623   0.74610   0.00000  Uiso   1.00
H734   H     0.76652   0.66377   0.75390   0.00000  Uiso   1.00
N735   N     0.98344   0.48598   0.73783   0.00000  Uiso   1.00
N736   N     0.68322   0.51402   0.76217   0.00000  Uiso   1.00
N737   N     0.87196   0.63490   0.63895   0.00000  Uiso   1.00
N738   N     0.79470   0.36510   0.86105   0.00000  Uiso   1.00
N739   N     0.69580   0.41922   0.68333   0.00000  Uiso   1.00
N740   N     0.97087   0.58078   0.81667   0.00000  Uiso   1.00
O741   O     0.79642   0.57952   0.75299   0.00000  Uiso   1.00
O742   O     0.87025   0.42048   0.74702   0.00000  Uiso   1.00
O743   O     0.89280   0.57054   0.74519   0.00000  Uiso   1.00
O744   O     0.77387   0.42946   0.75482   0.00000  Uiso   1.00
O745   O     0.78514   0.50450   0.81998   0.00000  Uiso   1.00
O746   O     0.88153   0.49550   0.68003   0.00000  Uiso   1.00
O747   O     0.88152   0.49552   0.81218   0.00000  Uiso   1.00
O748   O     0.78515   0.50448   0.68783   0.00000  Uiso   1.00
Zn749  Zn    0.76898   0.50600   0.75521   0.00000  Uiso   1.00
Zn750  Zn    0.89769   0.49400   0.74479   0.00000  Uiso   1.00
C751   C     0.18180   0.93147   0.74907   0.00000  Uiso   1.00
C752   C     0.18169   0.87782   0.90635   0.00000  Uiso   1.00
C753   C     0.16578   0.83542   0.61621   0.00000  Uiso   1.00
C754   C     0.16755   0.83125   0.88379   0.00000  Uiso   1.00
C755   C     0.18007   0.88224   0.59368   0.00000  Uiso   1.00
C756   C     0.15326   0.78442   0.90632   0.00000  Uiso   1.00
C757   C     0.18039   0.88179   0.54662   0.00000  Uiso   1.00
C758   C     0.15294   0.78487   0.95338   0.00000  Uiso   1.00
C759   C     0.16643   0.83406   0.52348   0.00000  Uiso   1.00
C760   C     0.16690   0.83261   0.97652   0.00000  Uiso   1.00
C761   C     0.15202   0.78767   0.54728   0.00000  Uiso   1.00
C762   C     0.15154   0.73520   0.75093   0.00000  Uiso   1.00
C763   C     0.18131   0.87899   0.95272   0.00000  Uiso   1.00
C764   C     0.19445   0.92748   0.52208   0.00000  Uiso   1.00
C765   C     0.13889   0.73918   0.97792   0.00000  Uiso   1.00
C766   C     0.19409   0.93004   0.61897   0.00000  Uiso   1.00
C767   C     0.13924   0.73662   0.88103   0.00000  Uiso   1.00
C768   C     0.00871   0.78305   0.70824   0.00000  Uiso   1.00
C769   C     0.32463   0.88361   0.79177   0.00000  Uiso   1.00
C770   C     0.19488   0.92598   0.97549   0.00000  Uiso   1.00
C771   C     0.13845   0.74068   0.52451   0.00000  Uiso   1.00
C772   C     0.18977   0.98600   0.74869   0.00000  Uiso   1.00
C773   C     0.14356   0.68067   0.75131   0.00000  Uiso   1.00
C774   C     0.16697   0.83287   0.83622   0.00000  Uiso   1.00
C775   C     0.16636   0.83380   0.66378   0.00000  Uiso   1.00
C776   C     0.15164   0.78885   0.59365   0.00000  Uiso   1.00
H777   H     0.14093   0.75342   0.61242   0.00000  Uiso   1.00
H778   H     0.19240   0.91324   0.88758   0.00000  Uiso   1.00
H779   H     0.20528   0.96458   0.53857   0.00000  Uiso   1.00
H780   H     0.12805   0.70208   0.96143   0.00000  Uiso   1.00
H781   H     0.20586   0.96163   0.95723   0.00000  Uiso   1.00
H782   H     0.12747   0.70504   0.54277   0.00000  Uiso   1.00
H783   H     0.23348   0.66956   0.74610   0.00000  Uiso   1.00
H784   H     0.09986   0.99710   0.75390   0.00000  Uiso   1.00
N785   N     0.31678   0.81932   0.73783   0.00000  Uiso   1.00
N786   N     0.01656   0.84735   0.76217   0.00000  Uiso   1.00
N787   N     0.20530   0.96824   0.63895   0.00000  Uiso   1.00
N788   N     0.12804   0.69843   0.86105   0.00000  Uiso   1.00
N789   N     0.02913   0.75256   0.68333   0.00000  Uiso   1.00
N790   N     0.30420   0.91411   0.81667   0.00000  Uiso   1.00
O791   O     0.12975   0.91286   0.75299   0.00000  Uiso   1.00
O792   O     0.20358   0.75381   0.74702   0.00000  Uiso   1.00
O793   O     0.22613   0.90387   0.74519   0.00000  Uiso   1.00
O794   O     0.10720   0.76279   0.75482   0.00000  Uiso   1.00
O795   O     0.11847   0.83784   0.81998   0.00000  Uiso   1.00
O796   O     0.21486   0.82883   0.68003   0.00000  Uiso   1.00
O797   O     0.21485   0.82885   0.81218   0.00000  Uiso   1.00
O798   O     0.11848   0.83781   0.68783   0.00000  Uiso   1.00
Zn799  Zn    0.10231   0.83933   0.75521   0.00000  Uiso   1.00
Zn800  Zn    0.23102   0.82734   0.74479   0.00000  Uiso   1.00
C801   C     0.51513   0.93147   0.74907   0.00000  Uiso   1.00
C802   C     0.51502   0.87782   0.90635   0.00000  Uiso   1.00
C803   C     0.49911   0.83542   0.61621   0.00000  Uiso   1.00
C804   C     0.50089   0.83125   0.88379   0.00000  Uiso   1.00
C805   C     0.51340   0.88224   0.59368   0.00000  Uiso   1.00
C806   C     0.48660   0.78442   0.90632   0.00000  Uiso   1.00
C807   C     0.51373   0.88179   0.54662   0.00000  Uiso   1.00
C808   C     0.48627   0.78487   0.95338   0.00000  Uiso   1.00
C809   C     0.49976   0.83406   0.52348   0.00000  Uiso   1.00
C810   C     0.50024   0.83261   0.97652   0.00000  Uiso   1.00
C811   C     0.48535   0.78767   0.54728   0.00000  Uiso   1.00
C812   C     0.48487   0.73520   0.75093   0.00000  Uiso   1.00
C813   C     0.51465   0.87899   0.95272   0.00000  Uiso   1.00
C814   C     0.52778   0.92748   0.52208   0.00000  Uiso   1.00
C815   C     0.47222   0.73918   0.97792   0.00000  Uiso   1.00
C816   C     0.52743   0.93004   0.61897   0.00000  Uiso   1.00
C817   C     0.47257   0.73662   0.88103   0.00000  Uiso   1.00
C818   C     0.34204   0.78305   0.70824   0.00000  Uiso   1.00
C819   C     0.65796   0.88361   0.79177   0.00000  Uiso   1.00
C820   C     0.52821   0.92598   0.97549   0.00000  Uiso   1.00
C821   C     0.47179   0.74068   0.52451   0.00000  Uiso   1.00
C822   C     0.52310   0.98600   0.74869   0.00000  Uiso   1.00
C823   C     0.47690   0.68067   0.75131   0.00000  Uiso   1.00
C824   C     0.50030   0.83287   0.83622   0.00000  Uiso   1.00
C825   C     0.49970   0.83380   0.66378   0.00000  Uiso   1.00
C826   C     0.48498   0.78885   0.59365   0.00000  Uiso   1.00
H827   H     0.47426   0.75342   0.61242   0.00000  Uiso   1.00
H828   H     0.52574   0.91324   0.88758   0.00000  Uiso   1.00
H829   H     0.53862   0.96458   0.53857   0.00000  Uiso   1.00
H830   H     0.46138   0.70208   0.96143   0.00000  Uiso   1.00
H831   H     0.53920   0.96163   0.95723   0.00000  Uiso   1.00
H832   H     0.46080   0.70504   0.54277   0.00000  Uiso   1.00
H833   H     0.56681   0.66956   0.74610   0.00000  Uiso   1.00
H834   H     0.43319   0.99710   0.75390   0.00000  Uiso   1.00
N835   N     0.65011   0.81932   0.73783   0.00000  Uiso   1.00
N836   N     0.34989   0.84735   0.76217   0.00000  Uiso   1.00
N837   N     0.53863   0.96824   0.63895   0.00000  Uiso   1.00
N838   N     0.46137   0.69843   0.86105   0.00000  Uiso   1.00
N839   N     0.36247   0.75256   0.68333   0.00000  Uiso   1.00
N840   N     0.63753   0.91411   0.81667   0.00000  Uiso   1.00
O841   O     0.46308   0.91286   0.75299   0.00000  Uiso   1.00
O842   O     0.53692   0.75381   0.74702   0.00000  Uiso   1.00
O843   O     0.55946   0.90387   0.74519   0.00000  Uiso   1.00
O844   O     0.44054   0.76279   0.75482   0.00000  Uiso   1.00
O845   O     0.45181   0.83784   0.81998   0.00000  Uiso   1.00
O846   O     0.54819   0.82883   0.68003   0.00000  Uiso   1.00
O847   O     0.54819   0.82885   0.81218   0.00000  Uiso   1.00
O848   O     0.45181   0.83781   0.68783   0.00000  Uiso   1.00
Zn849  Zn    0.43565   0.83933   0.75521   0.00000  Uiso   1.00
Zn850  Zn    0.56435   0.82734   0.74479   0.00000  Uiso   1.00
C851   C     0.84846   0.93147   0.74907   0.00000  Uiso   1.00
C852   C     0.84836   0.87782   0.90635   0.00000  Uiso   1.00
C853   C     0.83245   0.83542   0.61621   0.00000  Uiso   1.00
C854   C     0.83422   0.83125   0.88379   0.00000  Uiso   1.00
C855   C     0.84674   0.88224   0.59368   0.00000  Uiso   1.00
C856   C     0.81993   0.78442   0.90632   0.00000  Uiso   1.00
C857   C     0.84706   0.88179   0.54662   0.00000  Uiso   1.00
C858   C     0.81961   0.78487   0.95338   0.00000  Uiso   1.00
C859   C     0.83310   0.83406   0.52348   0.00000  Uiso   1.00
C860   C     0.83357   0.83261   0.97652   0.00000  Uiso   1.00
C861   C     0.81869   0.78767   0.54728   0.00000  Uiso   1.00
C862   C     0.81821   0.73520   0.75093   0.00000  Uiso   1.00
C863   C     0.84798   0.87899   0.95272   0.00000  Uiso   1.00
C864   C     0.86111   0.92748   0.52208   0.00000  Uiso   1.00
C865   C     0.80555   0.73918   0.97792   0.00000  Uiso   1.00
C866   C     0.86076   0.93004   0.61897   0.00000  Uiso   1.00
C867   C     0.80591   0.73662   0.88103   0.00000  Uiso   1.00
C868   C     0.67537   0.78305   0.70824   0.00000  Uiso   1.00
C869   C     0.99130   0.88361   0.79177   0.00000  Uiso   1.00
C870   C     0.86155   0.92598   0.97549   0.00000  Uiso   1.00
C871   C     0.80512   0.74068   0.52451   0.00000  Uiso   1.00
C872   C     0.85644   0.98600   0.74869   0.00000  Uiso   1.00
C873   C     0.81023   0.68067   0.75131   0.00000  Uiso   1.00
C874   C     0.83364   0.83287   0.83622   0.00000  Uiso   1.00
C875   C     0.83303   0.83380   0.66378   0.00000  Uiso   1.00
C876   C     0.81831   0.78885   0.59365   0.00000  Uiso   1.00
H877   H     0.80760   0.75342   0.61242   0.00000  Uiso   1.00
H878   H     0.85907   0.91324   0.88758   0.00000  Uiso   1.00
H879   H     0.87195   0.96458   0.53857   0.00000  Uiso   1.00
H880   H     0.79472   0.70208   0.96143   0.00000  Uiso   1.00
H881   H     0.87253   0.96163   0.95723   0.00000  Uiso   1.00
H882   H     0.79414   0.70504   0.54277   0.00000  Uiso   1.00
H883   H     0.90014   0.66956   0.74610   0.00000  Uiso   1.00
H884   H     0.76652   0.99710   0.75390   0.00000  Uiso   1.00
N885   N     0.98344   0.81932   0.73783   0.00000  Uiso   1.00
N886   N     0.68322   0.84735   0.76217   0.00000  Uiso   1.00
N887   N     0.87196   0.96824   0.63895   0.00000  Uiso   1.00
N888   N     0.79470   0.69843   0.86105   0.00000  Uiso   1.00
N889   N     0.69580   0.75256   0.68333   0.00000  Uiso   1.00
N890   N     0.97087   0.91411   0.81667   0.00000  Uiso   1.00
O891   O     0.79642   0.91286   0.75299   0.00000  Uiso   1.00
O892   O     0.87025   0.75381   0.74702   0.00000  Uiso   1.00
O893   O     0.89280   0.90387   0.74519   0.00000  Uiso   1.00
O894   O     0.77387   0.76279   0.75482   0.00000  Uiso   1.00
O895   O     0.78514   0.83784   0.81998   0.00000  Uiso   1.00
O896   O     0.88153   0.82883   0.68003   0.00000  Uiso   1.00
O897   O     0.88152   0.82885   0.81218   0.00000  Uiso   1.00
O898   O     0.78515   0.83781   0.68783   0.00000  Uiso   1.00
Zn899  Zn    0.76898   0.83933   0.75521   0.00000  Uiso   1.00
Zn900  Zn    0.89769   0.82734   0.74479   0.00000  Uiso   1.00
loop_
_geom_bond_atom_site_label_1
_geom_bond_atom_site_label_2
_geom_bond_distance
_geom_bond_site_symmetry_2
_ccdc_geom_bond_type
C1     C22     1.399   .     S
C1     O41     1.283   .     A
C1     O43     1.290   .     A
C2     C4      1.387   .     A
C2     H28     1.086   .     S
C2     C13     1.379   .     A
C3     C26     1.387   .     A
C3     C25     1.419   .     S
C3     C5      1.402   .     A
C4     C24     1.419   .     S
C4     C6      1.402   .     A
C5     C7      1.400   .     A
C5     C16     1.453   .     S
C6     C17     1.453   .     S
C6     C8      1.400   .     A
C7     C9      1.419   .     A
C7     C14     1.407   .     A
C8     C10     1.419   .     A
C8     C15     1.407   .     A
C9     C11     1.412   .     A
C9     C460    1.397   1_554 S
C10    C13     1.412   .     A
C10    C459    1.397   .     S
C11    C26     1.379   .     A
C11    C21     1.396   .     A
C12    O44     1.290   .     A
C12    C23     1.399   .     S
C12    O42     1.283   .     A
C13    C20     1.396   .     A
C14    H29     1.083   .     S
C14    C470    1.385   1_554 S
C15    H30     1.083   .     S
C15    C471    1.385   .     S
C16    N37     1.157   .     T
C17    N38     1.157   .     T
C18    N39     1.158   .     T
C18    N135    1.386   1_455 S
C19    N40     1.158   .     T
C19    N86     1.386   .     S
C20    H31     1.084   .     S
C20    C464    1.385   .     S
C21    H32     1.084   .     S
C21    C465    1.385   1_554 S
C22    C173    1.333   .     S
C22    H183    1.088   .     S
C23    C322    1.333   1_545 S
C23    H334    1.088   1_545 S
C24    O45     1.290   .     A
C24    O47     1.290   .     A
C25    O48     1.290   .     A
C25    O46     1.290   .     A
C26    H27     1.086   .     S
H33    C322    1.088   1_545 S
H34    C173    1.088   .     S
N35    Zn50    2.031   .     S
N35    C68     1.386   .     S
N35    N86     1.281   .     S
N36    Zn49    2.031   .     S
N36    N135    1.281   1_455 S
N36    C119    1.386   1_455 S
O41    Zn49    1.955   .     S
O42    Zn50    1.955   .     S
O43    Zn50    1.971   .     S
O44    Zn49    1.971   .     S
O45    Zn49    1.998   .     S
O46    Zn50    1.998   .     S
O47    Zn50    2.010   .     S
O48    Zn49    2.010   .     S
C51    C72     1.399   .     S
C51    O91     1.283   .     A
C51    O93     1.290   .     A
C52    C54     1.387   .     A
C52    H78     1.086   .     S
C52    C63     1.379   .     A
C53    C76     1.387   .     A
C53    C75     1.419   .     S
C53    C55     1.402   .     A
C54    C74     1.419   .     S
C54    C56     1.402   .     A
C55    C57     1.400   .     A
C55    C66     1.453   .     S
C56    C67     1.453   .     S
C56    C58     1.400   .     A
C57    C59     1.419   .     A
C57    C64     1.407   .     A
C58    C60     1.419   .     A
C58    C65     1.407   .     A
C59    C61     1.412   .     A
C59    C510    1.397   1_554 S
C60    C63     1.412   .     A
C60    C509    1.397   .     S
C61    C76     1.379   .     A
C61    C71     1.396   .     A
C62    O94     1.290   .     A
C62    C73     1.399   .     S
C62    O92     1.283   .     A
C63    C70     1.396   .     A
C64    H79     1.083   .     S
C64    C520    1.385   1_554 S
C65    H80     1.083   .     S
C65    C521    1.385   .     S
C66    N87     1.157   .     T
C67    N88     1.157   .     T
C68    N89     1.158   .     T
C69    N90     1.158   .     T
C69    N136    1.386   .     S
C70    H81     1.084   .     S
C70    C514    1.385   .     S
C71    H82     1.084   .     S
C71    C515    1.385   1_554 S
C72    C223    1.333   .     S
C72    H233    1.088   .     S
C73    C372    1.333   1_545 S
C73    H384    1.088   1_545 S
C74    O95     1.290   .     A
C74    O97     1.290   .     A
C75    O98     1.290   .     A
C75    O96     1.290   .     A
C76    H77     1.086   .     S
H83    C372    1.088   1_545 S
H84    C223    1.088   .     S
N85    Zn100   2.031   .     S
N85    C118    1.386   .     S
N85    N136    1.281   .     S
N86    Zn99    2.031   .     S
O91    Zn99    1.955   .     S
O92    Zn100   1.955   .     S
O93    Zn100   1.971   .     S
O94    Zn99    1.971   .     S
O95    Zn99    1.998   .     S
O96    Zn100   1.998   .     S
O97    Zn100   2.010   .     S
O98    Zn99    2.010   .     S
C101   C122    1.399   .     S
C101   O141    1.283   .     A
C101   O143    1.290   .     A
C102   C104    1.387   .     A
C102   H128    1.086   .     S
C102   C113    1.379   .     A
C103   C126    1.387   .     A
C103   C125    1.419   .     S
C103   C105    1.402   .     A
C104   C124    1.419   .     S
C104   C106    1.402   .     A
C105   C107    1.400   .     A
C105   C116    1.453   .     S
C106   C117    1.453   .     S
C106   C108    1.400   .     A
C107   C109    1.419   .     A
C107   C114    1.407   .     A
C108   C110    1.419   .     A
C108   C115    1.407   .     A
C109   C111    1.412   .     A
C109   C560    1.397   1_554 S
C110   C113    1.412   .     A
C110   C559    1.397   .     S
C111   C126    1.379   .     A
C111   C121    1.396   .     A
C112   O144    1.290   .     A
C112   C123    1.399   .     S
C112   O142    1.283   .     A
C113   C120    1.396   .     A
C114   H129    1.083   .     S
C114   C570    1.385   1_554 S
C115   H130    1.083   .     S
C115   C571    1.385   .     S
C116   N137    1.157   .     T
C117   N138    1.157   .     T
C118   N139    1.158   .     T
C119   N140    1.158   .     T
C119   N36     1.386   1_655 S
C120   H131    1.084   .     S
C120   C564    1.385   .     S
C121   H132    1.084   .     S
C121   C565    1.385   1_554 S
C122   C273    1.333   .     S
C122   H283    1.088   .     S
C123   C422    1.333   1_545 S
C123   H434    1.088   1_545 S
C124   O145    1.290   .     A
C124   O147    1.290   .     A
C125   O148    1.290   .     A
C125   O146    1.290   .     A
C126   H127    1.086   .     S
H133   C422    1.088   1_545 S
H134   C273    1.088   .     S
N135   Zn150   2.031   .     S
N135   C18     1.386   1_655 S
N135   N36     1.281   1_655 S
N136   Zn149   2.031   .     S
O141   Zn149   1.955   .     S
O142   Zn150   1.955   .     S
O143   Zn150   1.971   .     S
O144   Zn149   1.971   .     S
O145   Zn149   1.998   .     S
O146   Zn150   1.998   .     S
O147   Zn150   2.010   .     S
O148   Zn149   2.010   .     S
C151   C172    1.399   .     S
C151   O191    1.283   .     A
C151   O193    1.290   .     A
C152   C154    1.387   .     A
C152   H178    1.086   .     S
C152   C163    1.379   .     A
C153   C176    1.387   .     A
C153   C175    1.419   .     S
C153   C155    1.402   .     A
C154   C174    1.419   .     S
C154   C156    1.402   .     A
C155   C157    1.400   .     A
C155   C166    1.453   .     S
C156   C167    1.453   .     S
C156   C158    1.400   .     A
C157   C159    1.419   .     A
C157   C164    1.407   .     A
C158   C160    1.419   .     A
C158   C165    1.407   .     A
C159   C161    1.412   .     A
C159   C610    1.397   1_554 S
C160   C163    1.412   .     A
C160   C609    1.397   .     S
C161   C176    1.379   .     A
C161   C171    1.396   .     A
C162   O194    1.290   .     A
C162   C173    1.399   .     S
C162   O192    1.283   .     A
C163   C170    1.396   .     A
C164   H179    1.083   .     S
C164   C620    1.385   1_554 S
C165   H180    1.083   .     S
C165   C621    1.385   .     S
C166   N187    1.157   .     T
C167   N188    1.157   .     T
C168   N189    1.158   .     T
C168   N285    1.386   1_455 S
C169   N190    1.158   .     T
C169   N236    1.386   .     S
C170   H181    1.084   .     S
C170   C614    1.385   .     S
C171   H182    1.084   .     S
C171   C615    1.385   1_554 S
C172   C323    1.333   .     S
C172   H333    1.088   .     S
C174   O195    1.290   .     A
C174   O197    1.290   .     A
C175   O198    1.290   .     A
C175   O196    1.290   .     A
C176   H177    1.086   .     S
H184   C323    1.088   .     S
N185   Zn200   2.031   .     S
N185   C218    1.386   .     S
N185   N236    1.281   .     S
N186   Zn199   2.031   .     S
N186   N285    1.281   1_455 S
N186   C269    1.386   1_455 S
O191   Zn199   1.955   .     S
O192   Zn200   1.955   .     S
O193   Zn200   1.971   .     S
O194   Zn199   1.971   .     S
O195   Zn199   1.998   .     S
O196   Zn200   1.998   .     S
O197   Zn200   2.010   .     S
O198   Zn199   2.010   .     S
C201   C222    1.399   .     S
C201   O241    1.283   .     A
C201   O243    1.290   .     A
C202   C204    1.387   .     A
C202   H228    1.086   .     S
C202   C213    1.379   .     A
C203   C226    1.387   .     A
C203   C225    1.419   .     S
C203   C205    1.402   .     A
C204   C224    1.419   .     S
C204   C206    1.402   .     A
C205   C207    1.400   .     A
C205   C216    1.453   .     S
C206   C217    1.453   .     S
C206   C208    1.400   .     A
C207   C209    1.419   .     A
C207   C214    1.407   .     A
C208   C210    1.419   .     A
C208   C215    1.407   .     A
C209   C211    1.412   .     A
C209   C660    1.397   1_554 S
C210   C213    1.412   .     A
C210   C659    1.397   .     S
C211   C226    1.379   .     A
C211   C221    1.396   .     A
C212   O244    1.290   .     A
C212   C223    1.399   .     S
C212   O242    1.283   .     A
C213   C220    1.396   .     A
C214   H229    1.083   .     S
C214   C670    1.385   1_554 S
C215   H230    1.083   .     S
C215   C671    1.385   .     S
C216   N237    1.157   .     T
C217   N238    1.157   .     T
C218   N239    1.158   .     T
C219   N240    1.158   .     T
C219   N286    1.386   .     S
C220   H231    1.084   .     S
C220   C664    1.385   .     S
C221   H232    1.084   .     S
C221   C665    1.385   1_554 S
C222   C373    1.333   .     S
C222   H383    1.088   .     S
C224   O245    1.290   .     A
C224   O247    1.290   .     A
C225   O248    1.290   .     A
C225   O246    1.290   .     A
C226   H227    1.086   .     S
H234   C373    1.088   .     S
N235   Zn250   2.031   .     S
N235   C268    1.386   .     S
N235   N286    1.281   .     S
N236   Zn249   2.031   .     S
O241   Zn249   1.955   .     S
O242   Zn250   1.955   .     S
O243   Zn250   1.971   .     S
O244   Zn249   1.971   .     S
O245   Zn249   1.998   .     S
O246   Zn250   1.998   .     S
O247   Zn250   2.010   .     S
O248   Zn249   2.010   .     S
C251   C272    1.399   .     S
C251   O291    1.283   .     A
C251   O293    1.290   .     A
C252   C254    1.387   .     A
C252   H278    1.086   .     S
C252   C263    1.379   .     A
C253   C276    1.387   .     A
C253   C275    1.419   .     S
C253   C255    1.402   .     A
C254   C274    1.419   .     S
C254   C256    1.402   .     A
C255   C257    1.400   .     A
C255   C266    1.453   .     S
C256   C267    1.453   .     S
C256   C258    1.400   .     A
C257   C259    1.419   .     A
C257   C264    1.407   .     A
C258   C260    1.419   .     A
C258   C265    1.407   .     A
C259   C261    1.412   .     A
C259   C710    1.397   1_554 S
C260   C263    1.412   .     A
C260   C709    1.397   .     S
C261   C276    1.379   .     A
C261   C271    1.396   .     A
C262   O294    1.290   .     A
C262   C273    1.399   .     S
C262   O292    1.283   .     A
C263   C270    1.396   .     A
C264   H279    1.083   .     S
C264   C720    1.385   1_554 S
C265   H280    1.083   .     S
C265   C721    1.385   .     S
C266   N287    1.157   .     T
C267   N288    1.157   .     T
C268   N289    1.158   .     T
C269   N290    1.158   .     T
C269   N186    1.386   1_655 S
C270   H281    1.084   .     S
C270   C714    1.385   .     S
C271   H282    1.084   .     S
C271   C715    1.385   1_554 S
C272   C423    1.333   .     S
C272   H433    1.088   .     S
C274   O295    1.290   .     A
C274   O297    1.290   .     A
C275   O298    1.290   .     A
C275   O296    1.290   .     A
C276   H277    1.086   .     S
H284   C423    1.088   .     S
N285   Zn300   2.031   .     S
N285   C168    1.386   1_655 S
N285   N186    1.281   1_655 S
N286   Zn299   2.031   .     S
O291   Zn299   1.955   .     S
O292   Zn300   1.955   .     S
O293   Zn300   1.971   .     S
O294   Zn299   1.971   .     S
O295   Zn299   1.998   .     S
O296   Zn300   1.998   .     S
O297   Zn300   2.010   .     S
O298   Zn299   2.010   .     S
C301   C322    1.399   .     S
C301   O341    1.283   .     A
C301   O343    1.290   .     A
C302   C304    1.387   .     A
C302   H328    1.086   .     S
C302   C313    1.379   .     A
C303   C326    1.387   .     A
C303   C325    1.419   .     S
C303   C305    1.402   .     A
C304   C324    1.419   .     S
C304   C306    1.402   .     A
C305   C307    1.400   .     A
C305   C316    1.453   .     S
C306   C317    1.453   .     S
C306   C308    1.400   .     A
C307   C309    1.419   .     A
C307   C314    1.407   .     A
C308   C310    1.419   .     A
C308   C315    1.407   .     A
C309   C311    1.412   .     A
C309   C760    1.397   1_554 S
C310   C313    1.412   .     A
C310   C759    1.397   .     S
C311   C326    1.379   .     A
C311   C321    1.396   .     A
C312   O344    1.290   .     A
C312   C323    1.399   .     S
C312   O342    1.283   .     A
C313   C320    1.396   .     A
C314   H329    1.083   .     S
C314   C770    1.385   1_554 S
C315   H330    1.083   .     S
C315   C771    1.385   .     S
C316   N337    1.157   .     T
C317   N338    1.157   .     T
C318   N339    1.158   .     T
C318   N435    1.386   1_455 S
C319   N340    1.158   .     T
C319   N386    1.386   .     S
C320   H331    1.084   .     S
C320   C764    1.385   .     S
C321   H332    1.084   .     S
C321   C765    1.385   1_554 S
C322   C23     1.333   1_565 S
C322   H33     1.088   1_565 S
C324   O345    1.290   .     A
C324   O347    1.290   .     A
C325   O348    1.290   .     A
C325   O346    1.290   .     A
C326   H327    1.086   .     S
H334   C23     1.088   1_565 S
N335   Zn350   2.031   .     S
N335   C368    1.386   .     S
N335   N386    1.281   .     S
N336   Zn349   2.031   .     S
N336   N435    1.281   1_455 S
N336   C419    1.386   1_455 S
O341   Zn349   1.955   .     S
O342   Zn350   1.955   .     S
O343   Zn350   1.971   .     S
O344   Zn349   1.971   .     S
O345   Zn349   1.998   .     S
O346   Zn350   1.998   .     S
O347   Zn350   2.010   .     S
O348   Zn349   2.010   .     S
C351   C372    1.399   .     S
C351   O391    1.283   .     A
C351   O393    1.290   .     A
C352   C354    1.387   .     A
C352   H378    1.086   .     S
C352   C363    1.379   .     A
C353   C376    1.387   .     A
C353   C375    1.419   .     S
C353   C355    1.402   .     A
C354   C374    1.419   .     S
C354   C356    1.402   .     A
C355   C357    1.400   .     A
C355   C366    1.453   .     S
C356   C367    1.453   .     S
C356   C358    1.400   .     A
C357   C359    1.419   .     A
C357   C364    1.407   .     A
C358   C360    1.419   .     A
C358   C365    1.407   .     A
C359   C361    1.412   .     A
C359   C810    1.397   1_554 S
C360   C363    1.412   .     A
C360   C809    1.397   .     S
C361   C376    1.379   .     A
C361   C371    1.396   .     A
C362   O394    1.290   .     A
C362   C373    1.399   .     S
C362   O392    1.283   .     A
C363   C370    1.396   .     A
C364   H379    1.083   .     S
C364   C820    1.385   1_554 S
C365   H380    1.083   .     S
C365   C821    1.385   .     S
C366   N387    1.157   .     T
C367   N388    1.157   .     T
C368   N389    1.158   .     T
C369   N390    1.158   .     T
C369   N436    1.386   .     S
C370   H381    1.084   .     S
C370   C814    1.385   .     S
C371   H382    1.084   .     S
C371   C815    1.385   1_554 S
C372   C73     1.333   1_565 S
C372   H83     1.088   1_565 S
C374   O395    1.290   .     A
C374   O397    1.290   .     A
C375   O398    1.290   .     A
C375   O396    1.290   .     A
C376   H377    1.086   .     S
H384   C73     1.088   1_565 S
N385   Zn400   2.031   .     S
N385   C418    1.386   .     S
N385   N436    1.281   .     S
N386   Zn399   2.031   .     S
O391   Zn399   1.955   .     S
O392   Zn400   1.955   .     S
O393   Zn400   1.971   .     S
O394   Zn399   1.971   .     S
O395   Zn399   1.998   .     S
O396   Zn400   1.998   .     S
O397   Zn400   2.010   .     S
O398   Zn399   2.010   .     S
C401   C422    1.399   .     S
C401   O441    1.283   .     A
C401   O443    1.290   .     A
C402   C404    1.387   .     A
C402   H428    1.086   .     S
C402   C413    1.379   .     A
C403   C426    1.387   .     A
C403   C425    1.419   .     S
C403   C405    1.402   .     A
C404   C424    1.419   .     S
C404   C406    1.402   .     A
C405   C407    1.400   .     A
C405   C416    1.453   .     S
C406   C417    1.453   .     S
C406   C408    1.400   .     A
C407   C409    1.419   .     A
C407   C414    1.407   .     A
C408   C410    1.419   .     A
C408   C415    1.407   .     A
C409   C411    1.412   .     A
C409   C860    1.397   1_554 S
C410   C413    1.412   .     A
C410   C859    1.397   .     S
C411   C426    1.379   .     A
C411   C421    1.396   .     A
C412   O444    1.290   .     A
C412   C423    1.399   .     S
C412   O442    1.283   .     A
C413   C420    1.396   .     A
C414   H429    1.083   .     S
C414   C870    1.385   1_554 S
C415   H430    1.083   .     S
C415   C871    1.385   .     S
C416   N437    1.157   .     T
C417   N438    1.157   .     T
C418   N439    1.158   .     T
C419   N440    1.158   .     T
C419   N336    1.386   1_655 S
C420   H431    1.084   .     S
C420   C864    1.385   .     S
C421   H432    1.084   .     S
C421   C865    1.385   1_554 S
C422   C123    1.333   1_565 S
C422   H133    1.088   1_565 S
C424   O445    1.290   .     A
C424   O447    1.290   .     A
C425   O448    1.290   .     A
C425   O446    1.290   .     A
C426   H427    1.086   .     S
H434   C123    1.088   1_565 S
N435   Zn450   2.031   .     S
N435   C318    1.386   1_655 S
N435   N336    1.281   1_655 S
N436   Zn449   2.031   .     S
O441   Zn449   1.955   .     S
O442   Zn450   1.955   .     S
O443   Zn450   1.971   .     S
O444   Zn449   1.971   .     S
O445   Zn449   1.998   .     S
O446   Zn450   1.998   .     S
O447   Zn450   2.010   .     S
O448   Zn449   2.010   .     S
C451   C472    1.399   .     S
C451   O491    1.283   .     A
C451   O493    1.290   .     A
C452   C454    1.387   .     A
C452   H478    1.086   .     S
C452   C463    1.379   .     A
C453   C476    1.387   .     A
C453   C475    1.419   .     S
C453   C455    1.402   .     A
C454   C474    1.419   .     S
C454   C456    1.402   .     A
C455   C457    1.400   .     A
C455   C466    1.453   .     S
C456   C467    1.453   .     S
C456   C458    1.400   .     A
C457   C459    1.419   .     A
C457   C464    1.407   .     A
C458   C460    1.419   .     A
C458   C465    1.407   .     A
C459   C461    1.412   .     A
C460   C463    1.412   .     A
C460   C9      1.397   1_556 S
C461   C476    1.379   .     A
C461   C471    1.396   .     A
C462   O494    1.290   .     A
C462   C473    1.399   .     S
C462   O492    1.283   .     A
C463   C470    1.396   .     A
C464   H479    1.083   .     S
C465   H480    1.083   .     S
C465   C21     1.385   1_556 S
C466   N487    1.157   .     T
C467   N488    1.157   .     T
C468   N489    1.158   .     T
C468   N585    1.386   1_455 S
C469   N490    1.158   .     T
C469   N536    1.386   .     S
C470   H481    1.084   .     S
C470   C14     1.385   1_556 S
C471   H482    1.084   .     S
C472   C623    1.333   .     S
C472   H633    1.088   .     S
C473   C772    1.333   1_545 S
C473   H784    1.088   1_545 S
C474   O495    1.290   .     A
C474   O497    1.290   .     A
C475   O498    1.290   .     A
C475   O496    1.290   .     A
C476   H477    1.086   .     S
H483   C772    1.088   1_545 S
H484   C623    1.088   .     S
N485   Zn500   2.031   .     S
N485   C518    1.386   .     S
N485   N536    1.281   .     S
N486   Zn499   2.031   .     S
N486   N585    1.281   1_455 S
N486   C569    1.386   1_455 S
O491   Zn499   1.955   .     S
O492   Zn500   1.955   .     S
O493   Zn500   1.971   .     S
O494   Zn499   1.971   .     S
O495   Zn499   1.998   .     S
O496   Zn500   1.998   .     S
O497   Zn500   2.010   .     S
O498   Zn499   2.010   .     S
C501   C522    1.399   .     S
C501   O541    1.283   .     A
C501   O543    1.290   .     A
C502   C504    1.387   .     A
C502   H528    1.086   .     S
C502   C513    1.379   .     A
C503   C526    1.387   .     A
C503   C525    1.419   .     S
C503   C505    1.402   .     A
C504   C524    1.419   .     S
C504   C506    1.402   .     A
C505   C507    1.400   .     A
C505   C516    1.453   .     S
C506   C517    1.453   .     S
C506   C508    1.400   .     A
C507   C509    1.419   .     A
C507   C514    1.407   .     A
C508   C510    1.419   .     A
C508   C515    1.407   .     A
C509   C511    1.412   .     A
C510   C513    1.412   .     A
C510   C59     1.397   1_556 S
C511   C526    1.379   .     A
C511   C521    1.396   .     A
C512   O544    1.290   .     A
C512   C523    1.399   .     S
C512   O542    1.283   .     A
C513   C520    1.396   .     A
C514   H529    1.083   .     S
C515   H530    1.083   .     S
C515   C71     1.385   1_556 S
C516   N537    1.157   .     T
C517   N538    1.157   .     T
C518   N539    1.158   .     T
C519   N540    1.158   .     T
C519   N586    1.386   .     S
C520   H531    1.084   .     S
C520   C64     1.385   1_556 S
C521   H532    1.084   .     S
C522   C673    1.333   .     S
C522   H683    1.088   .     S
C523   C822    1.333   1_545 S
C523   H834    1.088   1_545 S
C524   O545    1.290   .     A
C524   O547    1.290   .     A
C525   O548    1.290   .     A
C525   O546    1.290   .     A
C526   H527    1.086   .     S
H533   C822    1.088   1_545 S
H534   C673    1.088   .     S
N535   Zn550   2.031   .     S
N535   C568    1.386   .     S
N535   N586    1.281   .     S
N536   Zn549   2.031   .     S
O541   Zn549   1.955   .     S
O542   Zn550   1.955   .     S
O543   Zn550   1.971   .     S
O544   Zn549   1.971   .     S
O545   Zn549   1.998   .     S
O546   Zn550   1.998   .     S
O547   Zn550   2.010   .     S
O548   Zn549   2.010   .     S
C551   C572    1.399   .     S
C551   O591    1.283   .     A
C551   O593    1.290   .     A
C552   C554    1.387   .     A
C552   H578    1.086   .     S
C552   C563    1.379   .     A
C553   C576    1.387   .     A
C553   C575    1.419   .     S
C553   C555    1.402   .     A
C554   C574    1.419   .     S
C554   C556    1.402   .     A
C555   C557    1.400   .     A
C555   C566    1.453   .     S
C556   C567    1.453   .     S
C556   C558    1.400   .     A
C557   C559    1.419   .     A
C557   C564    1.407   .     A
C558   C560    1.419   .     A
C558   C565    1.407   .     A
C559   C561    1.412   .     A
C560   C563    1.412   .     A
C560   C109    1.397   1_556 S
C561   C576    1.379   .     A
C561   C571    1.396   .     A
C562   O594    1.290   .     A
C562   C573    1.399   .     S
C562   O592    1.283   .     A
C563   C570    1.396   .     A
C564   H579    1.083   .     S
C565   H580    1.083   .     S
C565   C121    1.385   1_556 S
C566   N587    1.157   .     T
C567   N588    1.157   .     T
C568   N589    1.158   .     T
C569   N590    1.158   .     T
C569   N486    1.386   1_655 S
C570   H581    1.084   .     S
C570   C114    1.385   1_556 S
C571   H582    1.084   .     S
C572   C723    1.333   .     S
C572   H733    1.088   .     S
C573   C872    1.333   1_545 S
C573   H884    1.088   1_545 S
C574   O595    1.290   .     A
C574   O597    1.290   .     A
C575   O598    1.290   .     A
C575   O596    1.290   .     A
C576   H577    1.086   .     S
H583   C872    1.088   1_545 S
H584   C723    1.088   .     S
N585   Zn600   2.031   .     S
N585   C468    1.386   1_655 S
N585   N486    1.281   1_655 S
N586   Zn599   2.031   .     S
O591   Zn599   1.955   .     S
O592   Zn600   1.955   .     S
O593   Zn600   1.971   .     S
O594   Zn599   1.971   .     S
O595   Zn599   1.998   .     S
O596   Zn600   1.998   .     S
O597   Zn600   2.010   .     S
O598   Zn599   2.010   .     S
C601   C622    1.399   .     S
C601   O641    1.283   .     A
C601   O643    1.290   .     A
C602   C604    1.387   .     A
C602   H628    1.086   .     S
C602   C613    1.379   .     A
C603   C626    1.387   .     A
C603   C625    1.419   .     S
C603   C605    1.402   .     A
C604   C624    1.419   .     S
C604   C606    1.402   .     A
C605   C607    1.400   .     A
C605   C616    1.453   .     S
C606   C617    1.453   .     S
C606   C608    1.400   .     A
C607   C609    1.419   .     A
C607   C614    1.407   .     A
C608   C610    1.419   .     A
C608   C615    1.407   .     A
C609   C611    1.412   .     A
C610   C613    1.412   .     A
C610   C159    1.397   1_556 S
C611   C626    1.379   .     A
C611   C621    1.396   .     A
C612   O644    1.290   .     A
C612   C623    1.399   .     S
C612   O642    1.283   .     A
C613   C620    1.396   .     A
C614   H629    1.083   .     S
C615   H630    1.083   .     S
C615   C171    1.385   1_556 S
C616   N637    1.157   .     T
C617   N638    1.157   .     T
C618   N639    1.158   .     T
C618   N735    1.386   1_455 S
C619   N640    1.158   .     T
C619   N686    1.386   .     S
C620   H631    1.084   .     S
C620   C164    1.385   1_556 S
C621   H632    1.084   .     S
C622   C773    1.333   .     S
C622   H783    1.088   .     S
C624   O645    1.290   .     A
C624   O647    1.290   .     A
C625   O648    1.290   .     A
C625   O646    1.290   .     A
C626   H627    1.086   .     S
H634   C773    1.088   .     S
N635   Zn650   2.031   .     S
N635   C668    1.386   .     S
N635   N686    1.281   .     S
N636   Zn649   2.031   .     S
N636   N735    1.281   1_455 S
N636   C719    1.386   1_455 S
O641   Zn649   1.955   .     S
O642   Zn650   1.955   .     S
O643   Zn650   1.971   .     S
O644   Zn649   1.971   .     S
O645   Zn649   1.998   .     S
O646   Zn650   1.998   .     S
O647   Zn650   2.010   .     S
O648   Zn649   2.010   .     S
C651   C672    1.399   .     S
C651   O691    1.283   .     A
C651   O693    1.290   .     A
C652   C654    1.387   .     A
C652   H678    1.086   .     S
C652   C663    1.379   .     A
C653   C676    1.387   .     A
C653   C675    1.419   .     S
C653   C655    1.402   .     A
C654   C674    1.419   .     S
C654   C656    1.402   .     A
C655   C657    1.400   .     A
C655   C666    1.453   .     S
C656   C667    1.453   .     S
C656   C658    1.400   .     A
C657   C659    1.419   .     A
C657   C664    1.407   .     A
C658   C660    1.419   .     A
C658   C665    1.407   .     A
C659   C661    1.412   .     A
C660   C663    1.412   .     A
C660   C209    1.397   1_556 S
C661   C676    1.379   .     A
C661   C671    1.396   .     A
C662   O694    1.290   .     A
C662   C673    1.399   .     S
C662   O692    1.283   .     A
C663   C670    1.396   .     A
C664   H679    1.083   .     S
C665   H680    1.083   .     S
C665   C221    1.385   1_556 S
C666   N687    1.157   .     T
C667   N688    1.157   .     T
C668   N689    1.158   .     T
C669   N690    1.158   .     T
C669   N736    1.386   .     S
C670   H681    1.084   .     S
C670   C214    1.385   1_556 S
C671   H682    1.084   .     S
C672   C823    1.333   .     S
C672   H833    1.088   .     S
C674   O695    1.290   .     A
C674   O697    1.290   .     A
C675   O698    1.290   .     A
C675   O696    1.290   .     A
C676   H677    1.086   .     S
H684   C823    1.088   .     S
N685   Zn700   2.031   .     S
N685   C718    1.386   .     S
N685   N736    1.281   .     S
N686   Zn699   2.031   .     S
O691   Zn699   1.955   .     S
O692   Zn700   1.955   .     S
O693   Zn700   1.971   .     S
O694   Zn699   1.971   .     S
O695   Zn699   1.998   .     S
O696   Zn700   1.998   .     S
O697   Zn700   2.010   .     S
O698   Zn699   2.010   .     S
C701   C722    1.399   .     S
C701   O741    1.283   .     A
C701   O743    1.290   .     A
C702   C704    1.387   .     A
C702   H728    1.086   .     S
C702   C713    1.379   .     A
C703   C726    1.387   .     A
C703   C725    1.419   .     S
C703   C705    1.402   .     A
C704   C724    1.419   .     S
C704   C706    1.402   .     A
C705   C707    1.400   .     A
C705   C716    1.453   .     S
C706   C717    1.453   .     S
C706   C708    1.400   .     A
C707   C709    1.419   .     A
C707   C714    1.407   .     A
C708   C710    1.419   .     A
C708   C715    1.407   .     A
C709   C711    1.412   .     A
C710   C713    1.412   .     A
C710   C259    1.397   1_556 S
C711   C726    1.379   .     A
C711   C721    1.396   .     A
C712   O744    1.290   .     A
C712   C723    1.399   .     S
C712   O742    1.283   .     A
C713   C720    1.396   .     A
C714   H729    1.083   .     S
C715   H730    1.083   .     S
C715   C271    1.385   1_556 S
C716   N737    1.157   .     T
C717   N738    1.157   .     T
C718   N739    1.158   .     T
C719   N740    1.158   .     T
C719   N636    1.386   1_655 S
C720   H731    1.084   .     S
C720   C264    1.385   1_556 S
C721   H732    1.084   .     S
C722   C873    1.333   .     S
C722   H883    1.088   .     S
C724   O745    1.290   .     A
C724   O747    1.290   .     A
C725   O748    1.290   .     A
C725   O746    1.290   .     A
C726   H727    1.086   .     S
H734   C873    1.088   .     S
N735   Zn750   2.031   .     S
N735   C618    1.386   1_655 S
N735   N636    1.281   1_655 S
N736   Zn749   2.031   .     S
O741   Zn749   1.955   .     S
O742   Zn750   1.955   .     S
O743   Zn750   1.971   .     S
O744   Zn749   1.971   .     S
O745   Zn749   1.998   .     S
O746   Zn750   1.998   .     S
O747   Zn750   2.010   .     S
O748   Zn749   2.010   .     S
C751   C772    1.399   .     S
C751   O791    1.283   .     A
C751   O793    1.290   .     A
C752   C754    1.387   .     A
C752   H778    1.086   .     S
C752   C763    1.379   .     A
C753   C776    1.387   .     A
C753   C775    1.419   .     S
C753   C755    1.402   .     A
C754   C774    1.419   .     S
C754   C756    1.402   .     A
C755   C757    1.400   .     A
C755   C766    1.453   .     S
C756   C767    1.453   .     S
C756   C758    1.400   .     A
C757   C759    1.419   .     A
C757   C764    1.407   .     A
C758   C760    1.419   .     A
C758   C765    1.407   .     A
C759   C761    1.412   .     A
C760   C763    1.412   .     A
C760   C309    1.397   1_556 S
C761   C776    1.379   .     A
C761   C771    1.396   .     A
C762   O794    1.290   .     A
C762   C773    1.399   .     S
C762   O792    1.283   .     A
C763   C770    1.396   .     A
C764   H779    1.083   .     S
C765   H780    1.083   .     S
C765   C321    1.385   1_556 S
C766   N787    1.157   .     T
C767   N788    1.157   .     T
C768   N789    1.158   .     T
C768   N885    1.386   1_455 S
C769   N790    1.158   .     T
C769   N836    1.386   .     S
C770   H781    1.084   .     S
C770   C314    1.385   1_556 S
C771   H782    1.084   .     S
C772   C473    1.333   1_565 S
C772   H483    1.088   1_565 S
C774   O795    1.290   .     A
C774   O797    1.290   .     A
C775   O798    1.290   .     A
C775   O796    1.290   .     A
C776   H777    1.086   .     S
H784   C473    1.088   1_565 S
N785   Zn800   2.031   .     S
N785   C818    1.386   .     S
N785   N836    1.281   .     S
N786   Zn799   2.031   .     S
N786   N885    1.281   1_455 S
N786   C869    1.386   1_455 S
O791   Zn799   1.955   .     S
O792   Zn800   1.955   .     S
O793   Zn800   1.971   .     S
O794   Zn799   1.971   .     S
O795   Zn799   1.998   .     S
O796   Zn800   1.998   .     S
O797   Zn800   2.010   .     S
O798   Zn799   2.010   .     S
C801   C822    1.399   .     S
C801   O841    1.283   .     A
C801   O843    1.290   .     A
C802   C804    1.387   .     A
C802   H828    1.086   .     S
C802   C813    1.379   .     A
C803   C826    1.387   .     A
C803   C825    1.419   .     S
C803   C805    1.402   .     A
C804   C824    1.419   .     S
C804   C806    1.402   .     A
C805   C807    1.400   .     A
C805   C816    1.453   .     S
C806   C817    1.453   .     S
C806   C808    1.400   .     A
C807   C809    1.419   .     A
C807   C814    1.407   .     A
C808   C810    1.419   .     A
C808   C815    1.407   .     A
C809   C811    1.412   .     A
C810   C813    1.412   .     A
C810   C359    1.397   1_556 S
C811   C826    1.379   .     A
C811   C821    1.396   .     A
C812   O844    1.290   .     A
C812   C823    1.399   .     S
C812   O842    1.283   .     A
C813   C820    1.396   .     A
C814   H829    1.083   .     S
C815   H830    1.083   .     S
C815   C371    1.385   1_556 S
C816   N837    1.157   .     T
C817   N838    1.157   .     T
C818   N839    1.158   .     T
C819   N840    1.158   .     T
C819   N886    1.386   .     S
C820   H831    1.084   .     S
C820   C364    1.385   1_556 S
C821   H832    1.084   .     S
C822   C523    1.333   1_565 S
C822   H533    1.088   1_565 S
C824   O845    1.290   .     A
C824   O847    1.290   .     A
C825   O848    1.290   .     A
C825   O846    1.290   .     A
C826   H827    1.086   .     S
H834   C523    1.088   1_565 S
N835   Zn850   2.031   .     S
N835   C868    1.386   .     S
N835   N886    1.281   .     S
N836   Zn849   2.031   .     S
O841   Zn849   1.955   .     S
O842   Zn850   1.955   .     S
O843   Zn850   1.971   .     S
O844   Zn849   1.971   .     S
O845   Zn849   1.998   .     S
O846   Zn850   1.998   .     S
O847   Zn850   2.010   .     S
O848   Zn849   2.010   .     S
C851   C872    1.399   .     S
C851   O891    1.283   .     A
C851   O893    1.290   .     A
C852   C854    1.387   .     A
C852   H878    1.086   .     S
C852   C863    1.379   .     A
C853   C876    1.387   .     A
C853   C875    1.419   .     S
C853   C855    1.402   .     A
C854   C874    1.419   .     S
C854   C856    1.402   .     A
C855   C857    1.400   .     A
C855   C866    1.453   .     S
C856   C867    1.453   .     S
C856   C858    1.400   .     A
C857   C859    1.419   .     A
C857   C864    1.407   .     A
C858   C860    1.419   .     A
C858   C865    1.407   .     A
C859   C861    1.412   .     A
C860   C863    1.412   .     A
C860   C409    1.397   1_556 S
C861   C876    1.379   .     A
C861   C871    1.396   .     A
C862   O894    1.290   .     A
C862   C873    1.399   .     S
C862   O892    1.283   .     A
C863   C870    1.396   .     A
C864   H879    1.083   .     S
C865   H880    1.083   .     S
C865   C421    1.385   1_556 S
C866   N887    1.157   .     T
C867   N888    1.157   .     T
C868   N889    1.158   .     T
C869   N890    1.158   .     T
C869   N786    1.386   1_655 S
C870   H881    1.084   .     S
C870   C414    1.385   1_556 S
C871   H882    1.084   .     S
C872   C573    1.333   1_565 S
C872   H583    1.088   1_565 S
C874   O895    1.290   .     A
C874   O897    1.290   .     A
C875   O898    1.290   .     A
C875   O896    1.290   .     A
C876   H877    1.086   .     S
H884   C573    1.088   1_565 S
N885   Zn900   2.031   .     S
N885   C768    1.386   1_655 S
N885   N786    1.281   1_655 S
N886   Zn899   2.031   .     S
O891   Zn899   1.955   .     S
O892   Zn900   1.955   .     S
O893   Zn900   1.971   .     S
O894   Zn899   1.971   .     S
O895   Zn899   1.998   .     S
O896   Zn900   1.998   .     S
O897   Zn900   2.010   .     S
O898   Zn899   2.010   .     S
