data_str_m2_o2_o10_pcu_sym.117
_audit_creation_date              2020-01-03
_audit_creation_method            'Materials Studio'
_symmetry_space_group_name_H-M    'P1'
_symmetry_Int_Tables_number       1
_symmetry_cell_setting            triclinic
loop_
_symmetry_equiv_pos_as_xyz
  x,y,z
_cell_length_a                    26.1592
_cell_length_b                    30.2360
_cell_length_c                    27.9247
_cell_angle_alpha                 89.9496
_cell_angle_beta                  97.7250
_cell_angle_gamma                 91.2834
loop_
_atom_site_label
_atom_site_type_symbol
_atom_site_fract_x
_atom_site_fract_y
_atom_site_fract_z
_atom_site_U_iso_or_equiv
_atom_site_adp_type
_atom_site_occupancy
C1     C     0.16663   0.16502   0.24989   0.00000  Uiso   1.00
C2     C     0.19487   0.28191   0.44966   0.00000  Uiso   1.00
C3     C     0.16644   0.25024   0.02735   0.00000  Uiso   1.00
C4     C     0.16641   0.25031   0.47278   0.00000  Uiso   1.00
C5     C     0.06799   0.24974   0.23764   0.00000  Uiso   1.00
C6     C     0.26533   0.25067   0.26231   0.00000  Uiso   1.00
C7     C     0.01270   0.24842   0.23086   0.00000  Uiso   1.00
C8     C     0.32059   0.25275   0.26883   0.00000  Uiso   1.00
C9     C     0.14354   0.04637   0.28145   0.00000  Uiso   1.00
C10    C     0.14987   0.45237   0.20750   0.00000  Uiso   1.00
C11    C     0.14254   0.09222   0.28203   0.00000  Uiso   1.00
C12    C     0.16661   0.33503   0.24994   0.00000  Uiso   1.00
C13    C     0.14845   0.40641   0.20776   0.00000  Uiso   1.00
C14    C     0.16745   0.11679   0.24926   0.00000  Uiso   1.00
C15    C     0.16714   0.38340   0.24980   0.00000  Uiso   1.00
C16    C     0.19268   0.09506   0.21513   0.00000  Uiso   1.00
C17    C     0.18687   0.40685   0.29167   0.00000  Uiso   1.00
C18    C     0.19450   0.04887   0.21451   0.00000  Uiso   1.00
C19    C     0.18909   0.45303   0.29177   0.00000  Uiso   1.00
C20    C     0.16976   0.02441   0.24826   0.00000  Uiso   1.00
C21    C     0.17020   0.47594   0.24919   0.00000  Uiso   1.00
C22    C     0.27114   0.01152   0.19811   0.00000  Uiso   1.00
C23    C     0.20480   0.27299   0.05874   0.00000  Uiso   1.00
C24    C     0.26151   0.49368   0.33521   0.00000  Uiso   1.00
C25    C     0.23607   0.34733   0.13207   0.00000  Uiso   1.00
C26    C     0.05249   0.18614   0.36812   0.00000  Uiso   1.00
C27    C     0.09750   0.15276   0.11527   0.00000  Uiso   1.00
C28    C     0.28386   0.30173   0.39063   0.00000  Uiso   1.00
C29    C     0.13833   0.21842   0.44272   0.00000  Uiso   1.00
C30    C     0.20325   0.27414   0.10908   0.00000  Uiso   1.00
C31    C     0.13708   0.21967   0.39196   0.00000  Uiso   1.00
C32    C     0.12997   0.22598   0.09997   0.00000  Uiso   1.00
C33    C     0.19651   0.28018   0.39931   0.00000  Uiso   1.00
C34    C     0.12817   0.22735   0.04919   0.00000  Uiso   1.00
Cu35   Cu    0.16667   0.24999   0.29821   0.00000  Uiso   1.00
Cu36   Cu    0.16667   0.25000   0.20178   0.00000  Uiso   1.00
H37    H     0.23634   0.29024   0.04499   0.00000  Uiso   1.00
H38    H     0.20175   0.38938   0.32408   0.00000  Uiso   1.00
H39    H     0.22104   0.04530   0.14814   0.00000  Uiso   1.00
H40    H     0.29679   0.03938   0.21315   0.00000  Uiso   1.00
H41    H     0.28850   0.49584   0.16835   0.00000  Uiso   1.00
H42    H     0.26841   0.48617   0.22643   0.00000  Uiso   1.00
H43    H     0.20551   0.45879   0.36613   0.00000  Uiso   1.00
H44    H     0.27429   0.01050   0.37025   0.00000  Uiso   1.00
H45    H     0.26295   0.01847   0.30611   0.00000  Uiso   1.00
H46    H     0.28848   0.46659   0.33059   0.00000  Uiso   1.00
H47    H     0.27777   0.29015   0.13677   0.00000  Uiso   1.00
H48    H     0.11739   0.19194   0.45797   0.00000  Uiso   1.00
H49    H     0.24869   0.35740   0.09714   0.00000  Uiso   1.00
H50    H     0.26085   0.36485   0.16184   0.00000  Uiso   1.00
H51    H     0.19557   0.35733   0.13242   0.00000  Uiso   1.00
H52    H     0.12276   0.15675   0.36754   0.00000  Uiso   1.00
H53    H     0.04562   0.16606   0.40008   0.00000  Uiso   1.00
H54    H     0.03057   0.17069   0.33535   0.00000  Uiso   1.00
H55    H     0.03798   0.21992   0.37241   0.00000  Uiso   1.00
H56    H     0.05547   0.21001   0.10950   0.00000  Uiso   1.00
H57    H     0.08611   0.14262   0.07702   0.00000  Uiso   1.00
H58    H     0.07184   0.13528   0.13803   0.00000  Uiso   1.00
H59    H     0.32622   0.24310   0.19452   0.00000  Uiso   1.00
H60    H     0.13781   0.14275   0.12712   0.00000  Uiso   1.00
H61    H     0.22188   0.34268   0.38647   0.00000  Uiso   1.00
H62    H     0.29704   0.30972   0.42922   0.00000  Uiso   1.00
H63    H     0.30625   0.32266   0.36781   0.00000  Uiso   1.00
H64    H     0.29176   0.26647   0.38404   0.00000  Uiso   1.00
H65    H     0.09655   0.21017   0.02755   0.00000  Uiso   1.00
H66    H     0.21658   0.30808   0.47001   0.00000  Uiso   1.00
H67    H     0.00712   0.25858   0.30496   0.00000  Uiso   1.00
H68    H     0.12345   0.02787   0.30675   0.00000  Uiso   1.00
H69    H     0.13446   0.46966   0.17491   0.00000  Uiso   1.00
H70    H     0.12120   0.10830   0.30726   0.00000  Uiso   1.00
H71    H     0.13191   0.38889   0.17535   0.00000  Uiso   1.00
H72    H     0.21201   0.11402   0.18963   0.00000  Uiso   1.00
N73    N     0.16667   0.25001   0.12934   0.00000  Uiso   1.00
N74    N     0.16667   0.24999   0.37065   0.00000  Uiso   1.00
N75    N     0.22058   0.02749   0.17963   0.00000  Uiso   1.00
N76    N     0.20962   0.47601   0.33490   0.00000  Uiso   1.00
N77    N     0.24069   0.30006   0.13886   0.00000  Uiso   1.00
N78    N     0.10690   0.18758   0.36317   0.00000  Uiso   1.00
N79    N     0.09266   0.20004   0.12051   0.00000  Uiso   1.00
N80    N     0.22942   0.31039   0.37857   0.00000  Uiso   1.00
O81    O     0.16667   0.18572   0.29071   0.00000  Uiso   1.00
O82    O     0.16666   0.31427   0.20928   0.00000  Uiso   1.00
O83    O     0.16667   0.18573   0.20928   0.00000  Uiso   1.00
O84    O     0.16666   0.31427   0.29072   0.00000  Uiso   1.00
O85    O     0.09161   0.24999   0.28132   0.00000  Uiso   1.00
O86    O     0.24172   0.25000   0.21868   0.00000  Uiso   1.00
O87    O     0.09161   0.25000   0.19988   0.00000  Uiso   1.00
O88    O     0.24172   0.25000   0.30011   0.00000  Uiso   1.00
C89    C     0.49996   0.16502   0.24989   0.00000  Uiso   1.00
C90    C     0.52820   0.28191   0.44966   0.00000  Uiso   1.00
C91    C     0.49977   0.25024   0.02735   0.00000  Uiso   1.00
C92    C     0.49974   0.25031   0.47278   0.00000  Uiso   1.00
C93    C     0.40133   0.24974   0.23764   0.00000  Uiso   1.00
C94    C     0.59867   0.25067   0.26231   0.00000  Uiso   1.00
C95    C     0.34603   0.24842   0.23086   0.00000  Uiso   1.00
C96    C     0.65393   0.25275   0.26883   0.00000  Uiso   1.00
C97    C     0.47687   0.04637   0.28145   0.00000  Uiso   1.00
C98    C     0.48320   0.45237   0.20750   0.00000  Uiso   1.00
C99    C     0.47587   0.09222   0.28203   0.00000  Uiso   1.00
C100   C     0.49994   0.33503   0.24994   0.00000  Uiso   1.00
C101   C     0.48179   0.40641   0.20776   0.00000  Uiso   1.00
C102   C     0.50078   0.11679   0.24926   0.00000  Uiso   1.00
C103   C     0.50047   0.38340   0.24980   0.00000  Uiso   1.00
C104   C     0.52601   0.09506   0.21513   0.00000  Uiso   1.00
C105   C     0.52020   0.40685   0.29167   0.00000  Uiso   1.00
C106   C     0.52783   0.04887   0.21451   0.00000  Uiso   1.00
C107   C     0.52242   0.45303   0.29177   0.00000  Uiso   1.00
C108   C     0.50310   0.02441   0.24826   0.00000  Uiso   1.00
C109   C     0.50354   0.47594   0.24919   0.00000  Uiso   1.00
C110   C     0.60448   0.01152   0.19811   0.00000  Uiso   1.00
C111   C     0.53814   0.27299   0.05874   0.00000  Uiso   1.00
C112   C     0.59485   0.49368   0.33521   0.00000  Uiso   1.00
C113   C     0.56940   0.34733   0.13207   0.00000  Uiso   1.00
C114   C     0.38582   0.18614   0.36812   0.00000  Uiso   1.00
C115   C     0.43084   0.15276   0.11527   0.00000  Uiso   1.00
C116   C     0.61719   0.30173   0.39063   0.00000  Uiso   1.00
C117   C     0.47167   0.21842   0.44272   0.00000  Uiso   1.00
C118   C     0.53659   0.27414   0.10908   0.00000  Uiso   1.00
C119   C     0.47042   0.21967   0.39196   0.00000  Uiso   1.00
C120   C     0.46330   0.22598   0.09997   0.00000  Uiso   1.00
C121   C     0.52984   0.28018   0.39931   0.00000  Uiso   1.00
C122   C     0.46151   0.22735   0.04919   0.00000  Uiso   1.00
Cu123  Cu    0.50000   0.24999   0.29821   0.00000  Uiso   1.00
Cu124  Cu    0.50000   0.25000   0.20178   0.00000  Uiso   1.00
H125   H     0.56968   0.29024   0.04499   0.00000  Uiso   1.00
H126   H     0.53508   0.38938   0.32408   0.00000  Uiso   1.00
H127   H     0.55438   0.04530   0.14814   0.00000  Uiso   1.00
H128   H     0.63012   0.03938   0.21315   0.00000  Uiso   1.00
H129   H     0.62183   0.49584   0.16835   0.00000  Uiso   1.00
H130   H     0.60175   0.48617   0.22643   0.00000  Uiso   1.00
H131   H     0.53884   0.45879   0.36613   0.00000  Uiso   1.00
H132   H     0.60762   0.01050   0.37025   0.00000  Uiso   1.00
H133   H     0.59628   0.01847   0.30611   0.00000  Uiso   1.00
H134   H     0.62181   0.46659   0.33059   0.00000  Uiso   1.00
H135   H     0.61110   0.29015   0.13677   0.00000  Uiso   1.00
H136   H     0.45073   0.19194   0.45797   0.00000  Uiso   1.00
H137   H     0.58202   0.35740   0.09714   0.00000  Uiso   1.00
H138   H     0.59418   0.36485   0.16184   0.00000  Uiso   1.00
H139   H     0.52891   0.35733   0.13242   0.00000  Uiso   1.00
H140   H     0.45609   0.15675   0.36754   0.00000  Uiso   1.00
H141   H     0.37895   0.16606   0.40008   0.00000  Uiso   1.00
H142   H     0.36390   0.17069   0.33535   0.00000  Uiso   1.00
H143   H     0.37131   0.21992   0.37241   0.00000  Uiso   1.00
H144   H     0.38880   0.21001   0.10950   0.00000  Uiso   1.00
H145   H     0.41944   0.14262   0.07702   0.00000  Uiso   1.00
H146   H     0.40517   0.13528   0.13803   0.00000  Uiso   1.00
H147   H     0.65956   0.24310   0.19452   0.00000  Uiso   1.00
H148   H     0.47114   0.14275   0.12712   0.00000  Uiso   1.00
H149   H     0.55521   0.34268   0.38647   0.00000  Uiso   1.00
H150   H     0.63037   0.30972   0.42922   0.00000  Uiso   1.00
H151   H     0.63959   0.32266   0.36781   0.00000  Uiso   1.00
H152   H     0.62509   0.26647   0.38404   0.00000  Uiso   1.00
H153   H     0.42988   0.21017   0.02755   0.00000  Uiso   1.00
H154   H     0.54992   0.30808   0.47001   0.00000  Uiso   1.00
H155   H     0.34045   0.25858   0.30496   0.00000  Uiso   1.00
H156   H     0.45678   0.02787   0.30675   0.00000  Uiso   1.00
H157   H     0.46779   0.46966   0.17491   0.00000  Uiso   1.00
H158   H     0.45454   0.10830   0.30726   0.00000  Uiso   1.00
H159   H     0.46525   0.38889   0.17535   0.00000  Uiso   1.00
H160   H     0.54534   0.11402   0.18963   0.00000  Uiso   1.00
N161   N     0.50000   0.25001   0.12934   0.00000  Uiso   1.00
N162   N     0.50000   0.24999   0.37065   0.00000  Uiso   1.00
N163   N     0.55392   0.02749   0.17963   0.00000  Uiso   1.00
N164   N     0.54295   0.47601   0.33490   0.00000  Uiso   1.00
N165   N     0.57402   0.30006   0.13886   0.00000  Uiso   1.00
N166   N     0.44023   0.18758   0.36317   0.00000  Uiso   1.00
N167   N     0.42599   0.20004   0.12051   0.00000  Uiso   1.00
N168   N     0.56276   0.31039   0.37857   0.00000  Uiso   1.00
O169   O     0.50000   0.18572   0.29071   0.00000  Uiso   1.00
O170   O     0.50000   0.31427   0.20928   0.00000  Uiso   1.00
O171   O     0.50000   0.18573   0.20928   0.00000  Uiso   1.00
O172   O     0.50000   0.31427   0.29072   0.00000  Uiso   1.00
O173   O     0.42495   0.24999   0.28132   0.00000  Uiso   1.00
O174   O     0.57505   0.25000   0.21868   0.00000  Uiso   1.00
O175   O     0.42495   0.25000   0.19988   0.00000  Uiso   1.00
O176   O     0.57505   0.25000   0.30011   0.00000  Uiso   1.00
C177   C     0.83330   0.16502   0.24989   0.00000  Uiso   1.00
C178   C     0.86153   0.28191   0.44966   0.00000  Uiso   1.00
C179   C     0.83310   0.25024   0.02735   0.00000  Uiso   1.00
C180   C     0.83307   0.25031   0.47278   0.00000  Uiso   1.00
C181   C     0.73466   0.24974   0.23764   0.00000  Uiso   1.00
C182   C     0.93200   0.25067   0.26231   0.00000  Uiso   1.00
C183   C     0.67936   0.24842   0.23086   0.00000  Uiso   1.00
C184   C     0.98726   0.25275   0.26883   0.00000  Uiso   1.00
C185   C     0.81021   0.04637   0.28145   0.00000  Uiso   1.00
C186   C     0.81654   0.45237   0.20750   0.00000  Uiso   1.00
C187   C     0.80920   0.09222   0.28203   0.00000  Uiso   1.00
C188   C     0.83327   0.33503   0.24994   0.00000  Uiso   1.00
C189   C     0.81512   0.40641   0.20776   0.00000  Uiso   1.00
C190   C     0.83411   0.11679   0.24926   0.00000  Uiso   1.00
C191   C     0.83381   0.38340   0.24980   0.00000  Uiso   1.00
C192   C     0.85935   0.09506   0.21513   0.00000  Uiso   1.00
C193   C     0.85354   0.40685   0.29167   0.00000  Uiso   1.00
C194   C     0.86117   0.04887   0.21451   0.00000  Uiso   1.00
C195   C     0.85576   0.45303   0.29177   0.00000  Uiso   1.00
C196   C     0.83643   0.02441   0.24826   0.00000  Uiso   1.00
C197   C     0.83687   0.47594   0.24919   0.00000  Uiso   1.00
C198   C     0.93781   0.01152   0.19811   0.00000  Uiso   1.00
C199   C     0.87147   0.27299   0.05874   0.00000  Uiso   1.00
C200   C     0.92818   0.49368   0.33521   0.00000  Uiso   1.00
C201   C     0.90273   0.34733   0.13207   0.00000  Uiso   1.00
C202   C     0.71916   0.18614   0.36812   0.00000  Uiso   1.00
C203   C     0.76417   0.15276   0.11527   0.00000  Uiso   1.00
C204   C     0.95052   0.30173   0.39063   0.00000  Uiso   1.00
C205   C     0.80500   0.21842   0.44272   0.00000  Uiso   1.00
C206   C     0.86992   0.27414   0.10908   0.00000  Uiso   1.00
C207   C     0.80375   0.21967   0.39196   0.00000  Uiso   1.00
C208   C     0.79663   0.22598   0.09997   0.00000  Uiso   1.00
C209   C     0.86317   0.28018   0.39931   0.00000  Uiso   1.00
C210   C     0.79484   0.22735   0.04919   0.00000  Uiso   1.00
Cu211  Cu    0.83333   0.24999   0.29821   0.00000  Uiso   1.00
Cu212  Cu    0.83333   0.25000   0.20178   0.00000  Uiso   1.00
H213   H     0.90301   0.29024   0.04499   0.00000  Uiso   1.00
H214   H     0.86842   0.38938   0.32408   0.00000  Uiso   1.00
H215   H     0.88771   0.04530   0.14814   0.00000  Uiso   1.00
H216   H     0.96346   0.03938   0.21315   0.00000  Uiso   1.00
H217   H     0.95517   0.49584   0.16835   0.00000  Uiso   1.00
H218   H     0.93508   0.48617   0.22643   0.00000  Uiso   1.00
H219   H     0.87217   0.45879   0.36613   0.00000  Uiso   1.00
H220   H     0.94095   0.01050   0.37025   0.00000  Uiso   1.00
H221   H     0.92962   0.01847   0.30611   0.00000  Uiso   1.00
H222   H     0.95514   0.46659   0.33059   0.00000  Uiso   1.00
H223   H     0.94444   0.29015   0.13677   0.00000  Uiso   1.00
H224   H     0.78406   0.19194   0.45797   0.00000  Uiso   1.00
H225   H     0.91536   0.35740   0.09714   0.00000  Uiso   1.00
H226   H     0.92751   0.36485   0.16184   0.00000  Uiso   1.00
H227   H     0.86224   0.35733   0.13242   0.00000  Uiso   1.00
H228   H     0.78943   0.15675   0.36754   0.00000  Uiso   1.00
H229   H     0.71228   0.16606   0.40008   0.00000  Uiso   1.00
H230   H     0.69724   0.17069   0.33535   0.00000  Uiso   1.00
H231   H     0.70464   0.21992   0.37241   0.00000  Uiso   1.00
H232   H     0.72214   0.21001   0.10950   0.00000  Uiso   1.00
H233   H     0.75278   0.14262   0.07702   0.00000  Uiso   1.00
H234   H     0.73850   0.13528   0.13803   0.00000  Uiso   1.00
H235   H     0.99289   0.24310   0.19452   0.00000  Uiso   1.00
H236   H     0.80448   0.14275   0.12712   0.00000  Uiso   1.00
H237   H     0.88855   0.34268   0.38647   0.00000  Uiso   1.00
H238   H     0.96371   0.30972   0.42922   0.00000  Uiso   1.00
H239   H     0.97292   0.32266   0.36781   0.00000  Uiso   1.00
H240   H     0.95843   0.26647   0.38404   0.00000  Uiso   1.00
H241   H     0.76322   0.21017   0.02755   0.00000  Uiso   1.00
H242   H     0.88325   0.30808   0.47001   0.00000  Uiso   1.00
H243   H     0.67379   0.25858   0.30496   0.00000  Uiso   1.00
H244   H     0.79012   0.02787   0.30675   0.00000  Uiso   1.00
H245   H     0.80112   0.46966   0.17491   0.00000  Uiso   1.00
H246   H     0.78787   0.10830   0.30726   0.00000  Uiso   1.00
H247   H     0.79858   0.38889   0.17535   0.00000  Uiso   1.00
H248   H     0.87867   0.11402   0.18963   0.00000  Uiso   1.00
N249   N     0.83333   0.25001   0.12934   0.00000  Uiso   1.00
N250   N     0.83333   0.24999   0.37065   0.00000  Uiso   1.00
N251   N     0.88725   0.02749   0.17963   0.00000  Uiso   1.00
N252   N     0.87628   0.47601   0.33490   0.00000  Uiso   1.00
N253   N     0.90735   0.30006   0.13886   0.00000  Uiso   1.00
N254   N     0.77357   0.18758   0.36317   0.00000  Uiso   1.00
N255   N     0.75932   0.20004   0.12051   0.00000  Uiso   1.00
N256   N     0.89609   0.31039   0.37857   0.00000  Uiso   1.00
O257   O     0.83334   0.18572   0.29071   0.00000  Uiso   1.00
O258   O     0.83333   0.31427   0.20928   0.00000  Uiso   1.00
O259   O     0.83334   0.18573   0.20928   0.00000  Uiso   1.00
O260   O     0.83333   0.31427   0.29072   0.00000  Uiso   1.00
O261   O     0.75828   0.24999   0.28132   0.00000  Uiso   1.00
O262   O     0.90839   0.25000   0.21868   0.00000  Uiso   1.00
O263   O     0.75828   0.25000   0.19988   0.00000  Uiso   1.00
O264   O     0.90839   0.25000   0.30011   0.00000  Uiso   1.00
C265   C     0.16663   0.66502   0.24989   0.00000  Uiso   1.00
C266   C     0.19487   0.78191   0.44966   0.00000  Uiso   1.00
C267   C     0.16644   0.75024   0.02735   0.00000  Uiso   1.00
C268   C     0.16641   0.75031   0.47278   0.00000  Uiso   1.00
C269   C     0.06799   0.74974   0.23764   0.00000  Uiso   1.00
C270   C     0.26533   0.75067   0.26231   0.00000  Uiso   1.00
C271   C     0.01270   0.74842   0.23086   0.00000  Uiso   1.00
C272   C     0.32059   0.75275   0.26883   0.00000  Uiso   1.00
C273   C     0.14354   0.54637   0.28145   0.00000  Uiso   1.00
C274   C     0.14987   0.95237   0.20750   0.00000  Uiso   1.00
C275   C     0.14254   0.59222   0.28203   0.00000  Uiso   1.00
C276   C     0.16661   0.83503   0.24994   0.00000  Uiso   1.00
C277   C     0.14845   0.90641   0.20776   0.00000  Uiso   1.00
C278   C     0.16745   0.61679   0.24926   0.00000  Uiso   1.00
C279   C     0.16714   0.88340   0.24980   0.00000  Uiso   1.00
C280   C     0.19268   0.59506   0.21513   0.00000  Uiso   1.00
C281   C     0.18687   0.90685   0.29167   0.00000  Uiso   1.00
C282   C     0.19450   0.54887   0.21451   0.00000  Uiso   1.00
C283   C     0.18909   0.95303   0.29177   0.00000  Uiso   1.00
C284   C     0.16976   0.52441   0.24826   0.00000  Uiso   1.00
C285   C     0.17020   0.97594   0.24919   0.00000  Uiso   1.00
C286   C     0.27114   0.51152   0.19811   0.00000  Uiso   1.00
C287   C     0.20480   0.77299   0.05874   0.00000  Uiso   1.00
C288   C     0.26151   0.99368   0.33521   0.00000  Uiso   1.00
C289   C     0.23607   0.84733   0.13207   0.00000  Uiso   1.00
C290   C     0.05249   0.68614   0.36812   0.00000  Uiso   1.00
C291   C     0.09750   0.65276   0.11527   0.00000  Uiso   1.00
C292   C     0.28386   0.80173   0.39063   0.00000  Uiso   1.00
C293   C     0.13833   0.71842   0.44272   0.00000  Uiso   1.00
C294   C     0.20325   0.77414   0.10908   0.00000  Uiso   1.00
C295   C     0.13708   0.71967   0.39196   0.00000  Uiso   1.00
C296   C     0.12997   0.72598   0.09997   0.00000  Uiso   1.00
C297   C     0.19651   0.78018   0.39931   0.00000  Uiso   1.00
C298   C     0.12817   0.72735   0.04919   0.00000  Uiso   1.00
Cu299  Cu    0.16667   0.74999   0.29821   0.00000  Uiso   1.00
Cu300  Cu    0.16667   0.75000   0.20178   0.00000  Uiso   1.00
H301   H     0.23634   0.79024   0.04499   0.00000  Uiso   1.00
H302   H     0.20175   0.88938   0.32408   0.00000  Uiso   1.00
H303   H     0.22104   0.54530   0.14814   0.00000  Uiso   1.00
H304   H     0.29679   0.53938   0.21315   0.00000  Uiso   1.00
H305   H     0.28850   0.99584   0.16835   0.00000  Uiso   1.00
H306   H     0.26841   0.98617   0.22643   0.00000  Uiso   1.00
H307   H     0.20551   0.95879   0.36613   0.00000  Uiso   1.00
H308   H     0.27429   0.51050   0.37025   0.00000  Uiso   1.00
H309   H     0.26295   0.51847   0.30611   0.00000  Uiso   1.00
H310   H     0.28848   0.96659   0.33059   0.00000  Uiso   1.00
H311   H     0.27777   0.79015   0.13677   0.00000  Uiso   1.00
H312   H     0.11739   0.69194   0.45797   0.00000  Uiso   1.00
H313   H     0.24869   0.85740   0.09714   0.00000  Uiso   1.00
H314   H     0.26085   0.86485   0.16184   0.00000  Uiso   1.00
H315   H     0.19557   0.85733   0.13242   0.00000  Uiso   1.00
H316   H     0.12276   0.65675   0.36754   0.00000  Uiso   1.00
H317   H     0.04562   0.66606   0.40008   0.00000  Uiso   1.00
H318   H     0.03057   0.67069   0.33535   0.00000  Uiso   1.00
H319   H     0.03798   0.71992   0.37241   0.00000  Uiso   1.00
H320   H     0.05547   0.71001   0.10950   0.00000  Uiso   1.00
H321   H     0.08611   0.64262   0.07702   0.00000  Uiso   1.00
H322   H     0.07184   0.63528   0.13803   0.00000  Uiso   1.00
H323   H     0.32622   0.74310   0.19452   0.00000  Uiso   1.00
H324   H     0.13781   0.64275   0.12712   0.00000  Uiso   1.00
H325   H     0.22188   0.84268   0.38647   0.00000  Uiso   1.00
H326   H     0.29704   0.80972   0.42922   0.00000  Uiso   1.00
H327   H     0.30625   0.82266   0.36781   0.00000  Uiso   1.00
H328   H     0.29176   0.76647   0.38404   0.00000  Uiso   1.00
H329   H     0.09655   0.71017   0.02755   0.00000  Uiso   1.00
H330   H     0.21658   0.80808   0.47001   0.00000  Uiso   1.00
H331   H     0.00712   0.75858   0.30496   0.00000  Uiso   1.00
H332   H     0.12345   0.52787   0.30675   0.00000  Uiso   1.00
H333   H     0.13446   0.96966   0.17491   0.00000  Uiso   1.00
H334   H     0.12120   0.60830   0.30726   0.00000  Uiso   1.00
H335   H     0.13191   0.88889   0.17535   0.00000  Uiso   1.00
H336   H     0.21201   0.61402   0.18963   0.00000  Uiso   1.00
N337   N     0.16667   0.75001   0.12934   0.00000  Uiso   1.00
N338   N     0.16667   0.74999   0.37065   0.00000  Uiso   1.00
N339   N     0.22058   0.52749   0.17963   0.00000  Uiso   1.00
N340   N     0.20962   0.97601   0.33490   0.00000  Uiso   1.00
N341   N     0.24069   0.80006   0.13886   0.00000  Uiso   1.00
N342   N     0.10690   0.68758   0.36317   0.00000  Uiso   1.00
N343   N     0.09266   0.70004   0.12051   0.00000  Uiso   1.00
N344   N     0.22942   0.81039   0.37857   0.00000  Uiso   1.00
O345   O     0.16667   0.68572   0.29071   0.00000  Uiso   1.00
O346   O     0.16666   0.81427   0.20928   0.00000  Uiso   1.00
O347   O     0.16667   0.68573   0.20928   0.00000  Uiso   1.00
O348   O     0.16666   0.81427   0.29072   0.00000  Uiso   1.00
O349   O     0.09161   0.74999   0.28132   0.00000  Uiso   1.00
O350   O     0.24172   0.75000   0.21868   0.00000  Uiso   1.00
O351   O     0.09161   0.75000   0.19988   0.00000  Uiso   1.00
O352   O     0.24172   0.75000   0.30011   0.00000  Uiso   1.00
C353   C     0.49996   0.66502   0.24989   0.00000  Uiso   1.00
C354   C     0.52820   0.78191   0.44966   0.00000  Uiso   1.00
C355   C     0.49977   0.75024   0.02735   0.00000  Uiso   1.00
C356   C     0.49974   0.75031   0.47278   0.00000  Uiso   1.00
C357   C     0.40133   0.74974   0.23764   0.00000  Uiso   1.00
C358   C     0.59867   0.75067   0.26231   0.00000  Uiso   1.00
C359   C     0.34603   0.74842   0.23086   0.00000  Uiso   1.00
C360   C     0.65393   0.75275   0.26883   0.00000  Uiso   1.00
C361   C     0.47687   0.54637   0.28145   0.00000  Uiso   1.00
C362   C     0.48320   0.95237   0.20750   0.00000  Uiso   1.00
C363   C     0.47587   0.59222   0.28203   0.00000  Uiso   1.00
C364   C     0.49994   0.83503   0.24994   0.00000  Uiso   1.00
C365   C     0.48179   0.90641   0.20776   0.00000  Uiso   1.00
C366   C     0.50078   0.61679   0.24926   0.00000  Uiso   1.00
C367   C     0.50047   0.88340   0.24980   0.00000  Uiso   1.00
C368   C     0.52601   0.59506   0.21513   0.00000  Uiso   1.00
C369   C     0.52020   0.90685   0.29167   0.00000  Uiso   1.00
C370   C     0.52783   0.54887   0.21451   0.00000  Uiso   1.00
C371   C     0.52242   0.95303   0.29177   0.00000  Uiso   1.00
C372   C     0.50310   0.52441   0.24826   0.00000  Uiso   1.00
C373   C     0.50354   0.97594   0.24919   0.00000  Uiso   1.00
C374   C     0.60448   0.51152   0.19811   0.00000  Uiso   1.00
C375   C     0.53814   0.77299   0.05874   0.00000  Uiso   1.00
C376   C     0.59485   0.99368   0.33521   0.00000  Uiso   1.00
C377   C     0.56940   0.84733   0.13207   0.00000  Uiso   1.00
C378   C     0.38582   0.68614   0.36812   0.00000  Uiso   1.00
C379   C     0.43084   0.65276   0.11527   0.00000  Uiso   1.00
C380   C     0.61719   0.80173   0.39063   0.00000  Uiso   1.00
C381   C     0.47167   0.71842   0.44272   0.00000  Uiso   1.00
C382   C     0.53659   0.77414   0.10908   0.00000  Uiso   1.00
C383   C     0.47042   0.71967   0.39196   0.00000  Uiso   1.00
C384   C     0.46330   0.72598   0.09997   0.00000  Uiso   1.00
C385   C     0.52984   0.78018   0.39931   0.00000  Uiso   1.00
C386   C     0.46151   0.72735   0.04919   0.00000  Uiso   1.00
Cu387  Cu    0.50000   0.74999   0.29821   0.00000  Uiso   1.00
Cu388  Cu    0.50000   0.75000   0.20178   0.00000  Uiso   1.00
H389   H     0.56968   0.79024   0.04499   0.00000  Uiso   1.00
H390   H     0.53508   0.88938   0.32408   0.00000  Uiso   1.00
H391   H     0.55438   0.54530   0.14814   0.00000  Uiso   1.00
H392   H     0.63012   0.53938   0.21315   0.00000  Uiso   1.00
H393   H     0.62183   0.99584   0.16835   0.00000  Uiso   1.00
H394   H     0.60175   0.98617   0.22643   0.00000  Uiso   1.00
H395   H     0.53884   0.95879   0.36613   0.00000  Uiso   1.00
H396   H     0.60762   0.51050   0.37025   0.00000  Uiso   1.00
H397   H     0.59628   0.51847   0.30611   0.00000  Uiso   1.00
H398   H     0.62181   0.96659   0.33059   0.00000  Uiso   1.00
H399   H     0.61110   0.79015   0.13677   0.00000  Uiso   1.00
H400   H     0.45073   0.69194   0.45797   0.00000  Uiso   1.00
H401   H     0.58202   0.85740   0.09714   0.00000  Uiso   1.00
H402   H     0.59418   0.86485   0.16184   0.00000  Uiso   1.00
H403   H     0.52891   0.85733   0.13242   0.00000  Uiso   1.00
H404   H     0.45609   0.65675   0.36754   0.00000  Uiso   1.00
H405   H     0.37895   0.66606   0.40008   0.00000  Uiso   1.00
H406   H     0.36390   0.67069   0.33535   0.00000  Uiso   1.00
H407   H     0.37131   0.71992   0.37241   0.00000  Uiso   1.00
H408   H     0.38880   0.71001   0.10950   0.00000  Uiso   1.00
H409   H     0.41944   0.64262   0.07702   0.00000  Uiso   1.00
H410   H     0.40517   0.63528   0.13803   0.00000  Uiso   1.00
H411   H     0.65956   0.74310   0.19452   0.00000  Uiso   1.00
H412   H     0.47114   0.64275   0.12712   0.00000  Uiso   1.00
H413   H     0.55521   0.84268   0.38647   0.00000  Uiso   1.00
H414   H     0.63037   0.80972   0.42922   0.00000  Uiso   1.00
H415   H     0.63959   0.82266   0.36781   0.00000  Uiso   1.00
H416   H     0.62509   0.76647   0.38404   0.00000  Uiso   1.00
H417   H     0.42988   0.71017   0.02755   0.00000  Uiso   1.00
H418   H     0.54992   0.80808   0.47001   0.00000  Uiso   1.00
H419   H     0.34045   0.75858   0.30496   0.00000  Uiso   1.00
H420   H     0.45678   0.52787   0.30675   0.00000  Uiso   1.00
H421   H     0.46779   0.96966   0.17491   0.00000  Uiso   1.00
H422   H     0.45454   0.60830   0.30726   0.00000  Uiso   1.00
H423   H     0.46525   0.88889   0.17535   0.00000  Uiso   1.00
H424   H     0.54534   0.61402   0.18963   0.00000  Uiso   1.00
N425   N     0.50000   0.75001   0.12934   0.00000  Uiso   1.00
N426   N     0.50000   0.74999   0.37065   0.00000  Uiso   1.00
N427   N     0.55392   0.52749   0.17963   0.00000  Uiso   1.00
N428   N     0.54295   0.97601   0.33490   0.00000  Uiso   1.00
N429   N     0.57402   0.80006   0.13886   0.00000  Uiso   1.00
N430   N     0.44023   0.68758   0.36317   0.00000  Uiso   1.00
N431   N     0.42599   0.70004   0.12051   0.00000  Uiso   1.00
N432   N     0.56276   0.81039   0.37857   0.00000  Uiso   1.00
O433   O     0.50000   0.68572   0.29071   0.00000  Uiso   1.00
O434   O     0.50000   0.81427   0.20928   0.00000  Uiso   1.00
O435   O     0.50000   0.68573   0.20928   0.00000  Uiso   1.00
O436   O     0.50000   0.81427   0.29072   0.00000  Uiso   1.00
O437   O     0.42495   0.74999   0.28132   0.00000  Uiso   1.00
O438   O     0.57505   0.75000   0.21868   0.00000  Uiso   1.00
O439   O     0.42495   0.75000   0.19988   0.00000  Uiso   1.00
O440   O     0.57505   0.75000   0.30011   0.00000  Uiso   1.00
C441   C     0.83330   0.66502   0.24989   0.00000  Uiso   1.00
C442   C     0.86153   0.78191   0.44966   0.00000  Uiso   1.00
C443   C     0.83310   0.75024   0.02735   0.00000  Uiso   1.00
C444   C     0.83307   0.75031   0.47278   0.00000  Uiso   1.00
C445   C     0.73466   0.74974   0.23764   0.00000  Uiso   1.00
C446   C     0.93200   0.75067   0.26231   0.00000  Uiso   1.00
C447   C     0.67936   0.74842   0.23086   0.00000  Uiso   1.00
C448   C     0.98726   0.75275   0.26883   0.00000  Uiso   1.00
C449   C     0.81021   0.54637   0.28145   0.00000  Uiso   1.00
C450   C     0.81654   0.95237   0.20750   0.00000  Uiso   1.00
C451   C     0.80920   0.59222   0.28203   0.00000  Uiso   1.00
C452   C     0.83327   0.83503   0.24994   0.00000  Uiso   1.00
C453   C     0.81512   0.90641   0.20776   0.00000  Uiso   1.00
C454   C     0.83411   0.61679   0.24926   0.00000  Uiso   1.00
C455   C     0.83381   0.88340   0.24980   0.00000  Uiso   1.00
C456   C     0.85935   0.59506   0.21513   0.00000  Uiso   1.00
C457   C     0.85354   0.90685   0.29167   0.00000  Uiso   1.00
C458   C     0.86117   0.54887   0.21451   0.00000  Uiso   1.00
C459   C     0.85576   0.95303   0.29177   0.00000  Uiso   1.00
C460   C     0.83643   0.52441   0.24826   0.00000  Uiso   1.00
C461   C     0.83687   0.97594   0.24919   0.00000  Uiso   1.00
C462   C     0.93781   0.51152   0.19811   0.00000  Uiso   1.00
C463   C     0.87147   0.77299   0.05874   0.00000  Uiso   1.00
C464   C     0.92818   0.99368   0.33521   0.00000  Uiso   1.00
C465   C     0.90273   0.84733   0.13207   0.00000  Uiso   1.00
C466   C     0.71916   0.68614   0.36812   0.00000  Uiso   1.00
C467   C     0.76417   0.65276   0.11527   0.00000  Uiso   1.00
C468   C     0.95052   0.80173   0.39063   0.00000  Uiso   1.00
C469   C     0.80500   0.71842   0.44272   0.00000  Uiso   1.00
C470   C     0.86992   0.77414   0.10908   0.00000  Uiso   1.00
C471   C     0.80375   0.71967   0.39196   0.00000  Uiso   1.00
C472   C     0.79663   0.72598   0.09997   0.00000  Uiso   1.00
C473   C     0.86317   0.78018   0.39931   0.00000  Uiso   1.00
C474   C     0.79484   0.72735   0.04919   0.00000  Uiso   1.00
Cu475  Cu    0.83333   0.74999   0.29821   0.00000  Uiso   1.00
Cu476  Cu    0.83333   0.75000   0.20178   0.00000  Uiso   1.00
H477   H     0.90301   0.79024   0.04499   0.00000  Uiso   1.00
H478   H     0.86842   0.88938   0.32408   0.00000  Uiso   1.00
H479   H     0.88771   0.54530   0.14814   0.00000  Uiso   1.00
H480   H     0.96346   0.53938   0.21315   0.00000  Uiso   1.00
H481   H     0.95517   0.99584   0.16835   0.00000  Uiso   1.00
H482   H     0.93508   0.98617   0.22643   0.00000  Uiso   1.00
H483   H     0.87217   0.95879   0.36613   0.00000  Uiso   1.00
H484   H     0.94095   0.51050   0.37025   0.00000  Uiso   1.00
H485   H     0.92962   0.51847   0.30611   0.00000  Uiso   1.00
H486   H     0.95514   0.96659   0.33059   0.00000  Uiso   1.00
H487   H     0.94444   0.79015   0.13677   0.00000  Uiso   1.00
H488   H     0.78406   0.69194   0.45797   0.00000  Uiso   1.00
H489   H     0.91536   0.85740   0.09714   0.00000  Uiso   1.00
H490   H     0.92751   0.86485   0.16184   0.00000  Uiso   1.00
H491   H     0.86224   0.85733   0.13242   0.00000  Uiso   1.00
H492   H     0.78943   0.65675   0.36754   0.00000  Uiso   1.00
H493   H     0.71228   0.66606   0.40008   0.00000  Uiso   1.00
H494   H     0.69724   0.67069   0.33535   0.00000  Uiso   1.00
H495   H     0.70464   0.71992   0.37241   0.00000  Uiso   1.00
H496   H     0.72214   0.71001   0.10950   0.00000  Uiso   1.00
H497   H     0.75278   0.64262   0.07702   0.00000  Uiso   1.00
H498   H     0.73850   0.63528   0.13803   0.00000  Uiso   1.00
H499   H     0.99289   0.74310   0.19452   0.00000  Uiso   1.00
H500   H     0.80448   0.64275   0.12712   0.00000  Uiso   1.00
H501   H     0.88855   0.84268   0.38647   0.00000  Uiso   1.00
H502   H     0.96371   0.80972   0.42922   0.00000  Uiso   1.00
H503   H     0.97292   0.82266   0.36781   0.00000  Uiso   1.00
H504   H     0.95843   0.76647   0.38404   0.00000  Uiso   1.00
H505   H     0.76322   0.71017   0.02755   0.00000  Uiso   1.00
H506   H     0.88325   0.80808   0.47001   0.00000  Uiso   1.00
H507   H     0.67379   0.75858   0.30496   0.00000  Uiso   1.00
H508   H     0.79012   0.52787   0.30675   0.00000  Uiso   1.00
H509   H     0.80112   0.96966   0.17491   0.00000  Uiso   1.00
H510   H     0.78787   0.60830   0.30726   0.00000  Uiso   1.00
H511   H     0.79858   0.88889   0.17535   0.00000  Uiso   1.00
H512   H     0.87867   0.61402   0.18963   0.00000  Uiso   1.00
N513   N     0.83333   0.75001   0.12934   0.00000  Uiso   1.00
N514   N     0.83333   0.74999   0.37065   0.00000  Uiso   1.00
N515   N     0.88725   0.52749   0.17963   0.00000  Uiso   1.00
N516   N     0.87628   0.97601   0.33490   0.00000  Uiso   1.00
N517   N     0.90735   0.80006   0.13886   0.00000  Uiso   1.00
N518   N     0.77357   0.68758   0.36317   0.00000  Uiso   1.00
N519   N     0.75932   0.70004   0.12051   0.00000  Uiso   1.00
N520   N     0.89609   0.81039   0.37857   0.00000  Uiso   1.00
O521   O     0.83334   0.68572   0.29071   0.00000  Uiso   1.00
O522   O     0.83333   0.81427   0.20928   0.00000  Uiso   1.00
O523   O     0.83334   0.68573   0.20928   0.00000  Uiso   1.00
O524   O     0.83333   0.81427   0.29072   0.00000  Uiso   1.00
O525   O     0.75828   0.74999   0.28132   0.00000  Uiso   1.00
O526   O     0.90839   0.75000   0.21868   0.00000  Uiso   1.00
O527   O     0.75828   0.75000   0.19988   0.00000  Uiso   1.00
O528   O     0.90839   0.75000   0.30011   0.00000  Uiso   1.00
C529   C     0.16663   0.16502   0.74989   0.00000  Uiso   1.00
C530   C     0.19487   0.28191   0.94966   0.00000  Uiso   1.00
C531   C     0.16644   0.25024   0.52735   0.00000  Uiso   1.00
C532   C     0.16641   0.25031   0.97278   0.00000  Uiso   1.00
C533   C     0.06799   0.24974   0.73764   0.00000  Uiso   1.00
C534   C     0.26533   0.25067   0.76231   0.00000  Uiso   1.00
C535   C     0.01270   0.24842   0.73086   0.00000  Uiso   1.00
C536   C     0.32059   0.25275   0.76883   0.00000  Uiso   1.00
C537   C     0.14354   0.04637   0.78145   0.00000  Uiso   1.00
C538   C     0.14987   0.45237   0.70750   0.00000  Uiso   1.00
C539   C     0.14254   0.09222   0.78203   0.00000  Uiso   1.00
C540   C     0.16661   0.33503   0.74994   0.00000  Uiso   1.00
C541   C     0.14845   0.40641   0.70776   0.00000  Uiso   1.00
C542   C     0.16745   0.11679   0.74926   0.00000  Uiso   1.00
C543   C     0.16714   0.38340   0.74980   0.00000  Uiso   1.00
C544   C     0.19268   0.09506   0.71513   0.00000  Uiso   1.00
C545   C     0.18687   0.40685   0.79167   0.00000  Uiso   1.00
C546   C     0.19450   0.04887   0.71451   0.00000  Uiso   1.00
C547   C     0.18909   0.45303   0.79177   0.00000  Uiso   1.00
C548   C     0.16976   0.02441   0.74826   0.00000  Uiso   1.00
C549   C     0.17020   0.47594   0.74919   0.00000  Uiso   1.00
C550   C     0.27114   0.01152   0.69811   0.00000  Uiso   1.00
C551   C     0.20480   0.27299   0.55874   0.00000  Uiso   1.00
C552   C     0.26151   0.49368   0.83521   0.00000  Uiso   1.00
C553   C     0.23607   0.34733   0.63207   0.00000  Uiso   1.00
C554   C     0.05249   0.18614   0.86812   0.00000  Uiso   1.00
C555   C     0.09750   0.15276   0.61527   0.00000  Uiso   1.00
C556   C     0.28386   0.30173   0.89063   0.00000  Uiso   1.00
C557   C     0.13833   0.21842   0.94272   0.00000  Uiso   1.00
C558   C     0.20325   0.27414   0.60908   0.00000  Uiso   1.00
C559   C     0.13708   0.21967   0.89196   0.00000  Uiso   1.00
C560   C     0.12997   0.22598   0.59997   0.00000  Uiso   1.00
C561   C     0.19651   0.28018   0.89931   0.00000  Uiso   1.00
C562   C     0.12817   0.22735   0.54919   0.00000  Uiso   1.00
Cu563  Cu    0.16667   0.24999   0.79821   0.00000  Uiso   1.00
Cu564  Cu    0.16667   0.25000   0.70178   0.00000  Uiso   1.00
H565   H     0.23634   0.29024   0.54499   0.00000  Uiso   1.00
H566   H     0.20175   0.38938   0.82408   0.00000  Uiso   1.00
H567   H     0.22104   0.04530   0.64814   0.00000  Uiso   1.00
H568   H     0.29679   0.03938   0.71315   0.00000  Uiso   1.00
H569   H     0.28850   0.49584   0.66835   0.00000  Uiso   1.00
H570   H     0.26841   0.48617   0.72643   0.00000  Uiso   1.00
H571   H     0.20551   0.45879   0.86613   0.00000  Uiso   1.00
H572   H     0.27429   0.01050   0.87025   0.00000  Uiso   1.00
H573   H     0.26295   0.01847   0.80611   0.00000  Uiso   1.00
H574   H     0.28848   0.46659   0.83059   0.00000  Uiso   1.00
H575   H     0.27777   0.29015   0.63677   0.00000  Uiso   1.00
H576   H     0.11739   0.19194   0.95797   0.00000  Uiso   1.00
H577   H     0.24869   0.35740   0.59714   0.00000  Uiso   1.00
H578   H     0.26085   0.36485   0.66184   0.00000  Uiso   1.00
H579   H     0.19557   0.35733   0.63242   0.00000  Uiso   1.00
H580   H     0.12276   0.15675   0.86754   0.00000  Uiso   1.00
H581   H     0.04562   0.16606   0.90008   0.00000  Uiso   1.00
H582   H     0.03057   0.17069   0.83535   0.00000  Uiso   1.00
H583   H     0.03798   0.21992   0.87241   0.00000  Uiso   1.00
H584   H     0.05547   0.21001   0.60950   0.00000  Uiso   1.00
H585   H     0.08611   0.14262   0.57702   0.00000  Uiso   1.00
H586   H     0.07184   0.13528   0.63803   0.00000  Uiso   1.00
H587   H     0.32622   0.24310   0.69452   0.00000  Uiso   1.00
H588   H     0.13781   0.14275   0.62712   0.00000  Uiso   1.00
H589   H     0.22188   0.34268   0.88647   0.00000  Uiso   1.00
H590   H     0.29704   0.30972   0.92922   0.00000  Uiso   1.00
H591   H     0.30625   0.32266   0.86781   0.00000  Uiso   1.00
H592   H     0.29176   0.26647   0.88404   0.00000  Uiso   1.00
H593   H     0.09655   0.21017   0.52755   0.00000  Uiso   1.00
H594   H     0.21658   0.30808   0.97001   0.00000  Uiso   1.00
H595   H     0.00712   0.25858   0.80496   0.00000  Uiso   1.00
H596   H     0.12345   0.02787   0.80675   0.00000  Uiso   1.00
H597   H     0.13446   0.46966   0.67491   0.00000  Uiso   1.00
H598   H     0.12120   0.10830   0.80726   0.00000  Uiso   1.00
H599   H     0.13191   0.38889   0.67535   0.00000  Uiso   1.00
H600   H     0.21201   0.11402   0.68963   0.00000  Uiso   1.00
N601   N     0.16667   0.25001   0.62934   0.00000  Uiso   1.00
N602   N     0.16667   0.24999   0.87065   0.00000  Uiso   1.00
N603   N     0.22058   0.02749   0.67963   0.00000  Uiso   1.00
N604   N     0.20962   0.47601   0.83490   0.00000  Uiso   1.00
N605   N     0.24069   0.30006   0.63886   0.00000  Uiso   1.00
N606   N     0.10690   0.18758   0.86317   0.00000  Uiso   1.00
N607   N     0.09266   0.20004   0.62051   0.00000  Uiso   1.00
N608   N     0.22942   0.31039   0.87857   0.00000  Uiso   1.00
O609   O     0.16667   0.18572   0.79071   0.00000  Uiso   1.00
O610   O     0.16666   0.31427   0.70928   0.00000  Uiso   1.00
O611   O     0.16667   0.18573   0.70928   0.00000  Uiso   1.00
O612   O     0.16666   0.31427   0.79072   0.00000  Uiso   1.00
O613   O     0.09161   0.24999   0.78132   0.00000  Uiso   1.00
O614   O     0.24172   0.25000   0.71868   0.00000  Uiso   1.00
O615   O     0.09161   0.25000   0.69988   0.00000  Uiso   1.00
O616   O     0.24172   0.25000   0.80011   0.00000  Uiso   1.00
C617   C     0.49996   0.16502   0.74989   0.00000  Uiso   1.00
C618   C     0.52820   0.28191   0.94966   0.00000  Uiso   1.00
C619   C     0.49977   0.25024   0.52735   0.00000  Uiso   1.00
C620   C     0.49974   0.25031   0.97278   0.00000  Uiso   1.00
C621   C     0.40133   0.24974   0.73764   0.00000  Uiso   1.00
C622   C     0.59867   0.25067   0.76231   0.00000  Uiso   1.00
C623   C     0.34603   0.24842   0.73086   0.00000  Uiso   1.00
C624   C     0.65393   0.25275   0.76883   0.00000  Uiso   1.00
C625   C     0.47687   0.04637   0.78145   0.00000  Uiso   1.00
C626   C     0.48320   0.45237   0.70750   0.00000  Uiso   1.00
C627   C     0.47587   0.09222   0.78203   0.00000  Uiso   1.00
C628   C     0.49994   0.33503   0.74994   0.00000  Uiso   1.00
C629   C     0.48179   0.40641   0.70776   0.00000  Uiso   1.00
C630   C     0.50078   0.11679   0.74926   0.00000  Uiso   1.00
C631   C     0.50047   0.38340   0.74980   0.00000  Uiso   1.00
C632   C     0.52601   0.09506   0.71513   0.00000  Uiso   1.00
C633   C     0.52020   0.40685   0.79167   0.00000  Uiso   1.00
C634   C     0.52783   0.04887   0.71451   0.00000  Uiso   1.00
C635   C     0.52242   0.45303   0.79177   0.00000  Uiso   1.00
C636   C     0.50310   0.02441   0.74826   0.00000  Uiso   1.00
C637   C     0.50354   0.47594   0.74919   0.00000  Uiso   1.00
C638   C     0.60448   0.01152   0.69811   0.00000  Uiso   1.00
C639   C     0.53814   0.27299   0.55874   0.00000  Uiso   1.00
C640   C     0.59485   0.49368   0.83521   0.00000  Uiso   1.00
C641   C     0.56940   0.34733   0.63207   0.00000  Uiso   1.00
C642   C     0.38582   0.18614   0.86812   0.00000  Uiso   1.00
C643   C     0.43084   0.15276   0.61527   0.00000  Uiso   1.00
C644   C     0.61719   0.30173   0.89063   0.00000  Uiso   1.00
C645   C     0.47167   0.21842   0.94272   0.00000  Uiso   1.00
C646   C     0.53659   0.27414   0.60908   0.00000  Uiso   1.00
C647   C     0.47042   0.21967   0.89196   0.00000  Uiso   1.00
C648   C     0.46330   0.22598   0.59997   0.00000  Uiso   1.00
C649   C     0.52984   0.28018   0.89931   0.00000  Uiso   1.00
C650   C     0.46151   0.22735   0.54919   0.00000  Uiso   1.00
Cu651  Cu    0.50000   0.24999   0.79821   0.00000  Uiso   1.00
Cu652  Cu    0.50000   0.25000   0.70178   0.00000  Uiso   1.00
H653   H     0.56968   0.29024   0.54499   0.00000  Uiso   1.00
H654   H     0.53508   0.38938   0.82408   0.00000  Uiso   1.00
H655   H     0.55438   0.04530   0.64814   0.00000  Uiso   1.00
H656   H     0.63012   0.03938   0.71315   0.00000  Uiso   1.00
H657   H     0.62183   0.49584   0.66835   0.00000  Uiso   1.00
H658   H     0.60175   0.48617   0.72643   0.00000  Uiso   1.00
H659   H     0.53884   0.45879   0.86613   0.00000  Uiso   1.00
H660   H     0.60762   0.01050   0.87025   0.00000  Uiso   1.00
H661   H     0.59628   0.01847   0.80611   0.00000  Uiso   1.00
H662   H     0.62181   0.46659   0.83059   0.00000  Uiso   1.00
H663   H     0.61110   0.29015   0.63677   0.00000  Uiso   1.00
H664   H     0.45073   0.19194   0.95797   0.00000  Uiso   1.00
H665   H     0.58202   0.35740   0.59714   0.00000  Uiso   1.00
H666   H     0.59418   0.36485   0.66184   0.00000  Uiso   1.00
H667   H     0.52891   0.35733   0.63242   0.00000  Uiso   1.00
H668   H     0.45609   0.15675   0.86754   0.00000  Uiso   1.00
H669   H     0.37895   0.16606   0.90008   0.00000  Uiso   1.00
H670   H     0.36390   0.17069   0.83535   0.00000  Uiso   1.00
H671   H     0.37131   0.21992   0.87241   0.00000  Uiso   1.00
H672   H     0.38880   0.21001   0.60950   0.00000  Uiso   1.00
H673   H     0.41944   0.14262   0.57702   0.00000  Uiso   1.00
H674   H     0.40517   0.13528   0.63803   0.00000  Uiso   1.00
H675   H     0.65956   0.24310   0.69452   0.00000  Uiso   1.00
H676   H     0.47114   0.14275   0.62712   0.00000  Uiso   1.00
H677   H     0.55521   0.34268   0.88647   0.00000  Uiso   1.00
H678   H     0.63037   0.30972   0.92922   0.00000  Uiso   1.00
H679   H     0.63959   0.32266   0.86781   0.00000  Uiso   1.00
H680   H     0.62509   0.26647   0.88404   0.00000  Uiso   1.00
H681   H     0.42988   0.21017   0.52755   0.00000  Uiso   1.00
H682   H     0.54992   0.30808   0.97001   0.00000  Uiso   1.00
H683   H     0.34045   0.25858   0.80496   0.00000  Uiso   1.00
H684   H     0.45678   0.02787   0.80675   0.00000  Uiso   1.00
H685   H     0.46779   0.46966   0.67491   0.00000  Uiso   1.00
H686   H     0.45454   0.10830   0.80726   0.00000  Uiso   1.00
H687   H     0.46525   0.38889   0.67535   0.00000  Uiso   1.00
H688   H     0.54534   0.11402   0.68963   0.00000  Uiso   1.00
N689   N     0.50000   0.25001   0.62934   0.00000  Uiso   1.00
N690   N     0.50000   0.24999   0.87065   0.00000  Uiso   1.00
N691   N     0.55392   0.02749   0.67963   0.00000  Uiso   1.00
N692   N     0.54295   0.47601   0.83490   0.00000  Uiso   1.00
N693   N     0.57402   0.30006   0.63886   0.00000  Uiso   1.00
N694   N     0.44023   0.18758   0.86317   0.00000  Uiso   1.00
N695   N     0.42599   0.20004   0.62051   0.00000  Uiso   1.00
N696   N     0.56276   0.31039   0.87857   0.00000  Uiso   1.00
O697   O     0.50000   0.18572   0.79071   0.00000  Uiso   1.00
O698   O     0.50000   0.31427   0.70928   0.00000  Uiso   1.00
O699   O     0.50000   0.18573   0.70928   0.00000  Uiso   1.00
O700   O     0.50000   0.31427   0.79072   0.00000  Uiso   1.00
O701   O     0.42495   0.24999   0.78132   0.00000  Uiso   1.00
O702   O     0.57505   0.25000   0.71868   0.00000  Uiso   1.00
O703   O     0.42495   0.25000   0.69988   0.00000  Uiso   1.00
O704   O     0.57505   0.25000   0.80011   0.00000  Uiso   1.00
C705   C     0.83330   0.16502   0.74989   0.00000  Uiso   1.00
C706   C     0.86153   0.28191   0.94966   0.00000  Uiso   1.00
C707   C     0.83310   0.25024   0.52735   0.00000  Uiso   1.00
C708   C     0.83307   0.25031   0.97278   0.00000  Uiso   1.00
C709   C     0.73466   0.24974   0.73764   0.00000  Uiso   1.00
C710   C     0.93200   0.25067   0.76231   0.00000  Uiso   1.00
C711   C     0.67936   0.24842   0.73086   0.00000  Uiso   1.00
C712   C     0.98726   0.25275   0.76883   0.00000  Uiso   1.00
C713   C     0.81021   0.04637   0.78145   0.00000  Uiso   1.00
C714   C     0.81654   0.45237   0.70750   0.00000  Uiso   1.00
C715   C     0.80920   0.09222   0.78203   0.00000  Uiso   1.00
C716   C     0.83327   0.33503   0.74994   0.00000  Uiso   1.00
C717   C     0.81512   0.40641   0.70776   0.00000  Uiso   1.00
C718   C     0.83411   0.11679   0.74926   0.00000  Uiso   1.00
C719   C     0.83381   0.38340   0.74980   0.00000  Uiso   1.00
C720   C     0.85935   0.09506   0.71513   0.00000  Uiso   1.00
C721   C     0.85354   0.40685   0.79167   0.00000  Uiso   1.00
C722   C     0.86117   0.04887   0.71451   0.00000  Uiso   1.00
C723   C     0.85576   0.45303   0.79177   0.00000  Uiso   1.00
C724   C     0.83643   0.02441   0.74826   0.00000  Uiso   1.00
C725   C     0.83687   0.47594   0.74919   0.00000  Uiso   1.00
C726   C     0.93781   0.01152   0.69811   0.00000  Uiso   1.00
C727   C     0.87147   0.27299   0.55874   0.00000  Uiso   1.00
C728   C     0.92818   0.49368   0.83521   0.00000  Uiso   1.00
C729   C     0.90273   0.34733   0.63207   0.00000  Uiso   1.00
C730   C     0.71916   0.18614   0.86812   0.00000  Uiso   1.00
C731   C     0.76417   0.15276   0.61527   0.00000  Uiso   1.00
C732   C     0.95052   0.30173   0.89063   0.00000  Uiso   1.00
C733   C     0.80500   0.21842   0.94272   0.00000  Uiso   1.00
C734   C     0.86992   0.27414   0.60908   0.00000  Uiso   1.00
C735   C     0.80375   0.21967   0.89196   0.00000  Uiso   1.00
C736   C     0.79663   0.22598   0.59997   0.00000  Uiso   1.00
C737   C     0.86317   0.28018   0.89931   0.00000  Uiso   1.00
C738   C     0.79484   0.22735   0.54919   0.00000  Uiso   1.00
Cu739  Cu    0.83333   0.24999   0.79821   0.00000  Uiso   1.00
Cu740  Cu    0.83333   0.25000   0.70178   0.00000  Uiso   1.00
H741   H     0.90301   0.29024   0.54499   0.00000  Uiso   1.00
H742   H     0.86842   0.38938   0.82408   0.00000  Uiso   1.00
H743   H     0.88771   0.04530   0.64814   0.00000  Uiso   1.00
H744   H     0.96346   0.03938   0.71315   0.00000  Uiso   1.00
H745   H     0.95517   0.49584   0.66835   0.00000  Uiso   1.00
H746   H     0.93508   0.48617   0.72643   0.00000  Uiso   1.00
H747   H     0.87217   0.45879   0.86613   0.00000  Uiso   1.00
H748   H     0.94095   0.01050   0.87025   0.00000  Uiso   1.00
H749   H     0.92962   0.01847   0.80611   0.00000  Uiso   1.00
H750   H     0.95514   0.46659   0.83059   0.00000  Uiso   1.00
H751   H     0.94444   0.29015   0.63677   0.00000  Uiso   1.00
H752   H     0.78406   0.19194   0.95797   0.00000  Uiso   1.00
H753   H     0.91536   0.35740   0.59714   0.00000  Uiso   1.00
H754   H     0.92751   0.36485   0.66184   0.00000  Uiso   1.00
H755   H     0.86224   0.35733   0.63242   0.00000  Uiso   1.00
H756   H     0.78943   0.15675   0.86754   0.00000  Uiso   1.00
H757   H     0.71228   0.16606   0.90008   0.00000  Uiso   1.00
H758   H     0.69724   0.17069   0.83535   0.00000  Uiso   1.00
H759   H     0.70464   0.21992   0.87241   0.00000  Uiso   1.00
H760   H     0.72214   0.21001   0.60950   0.00000  Uiso   1.00
H761   H     0.75278   0.14262   0.57702   0.00000  Uiso   1.00
H762   H     0.73850   0.13528   0.63803   0.00000  Uiso   1.00
H763   H     0.99289   0.24310   0.69452   0.00000  Uiso   1.00
H764   H     0.80448   0.14275   0.62712   0.00000  Uiso   1.00
H765   H     0.88855   0.34268   0.88647   0.00000  Uiso   1.00
H766   H     0.96371   0.30972   0.92922   0.00000  Uiso   1.00
H767   H     0.97292   0.32266   0.86781   0.00000  Uiso   1.00
H768   H     0.95843   0.26647   0.88404   0.00000  Uiso   1.00
H769   H     0.76322   0.21017   0.52755   0.00000  Uiso   1.00
H770   H     0.88325   0.30808   0.97001   0.00000  Uiso   1.00
H771   H     0.67379   0.25858   0.80496   0.00000  Uiso   1.00
H772   H     0.79012   0.02787   0.80675   0.00000  Uiso   1.00
H773   H     0.80112   0.46966   0.67491   0.00000  Uiso   1.00
H774   H     0.78787   0.10830   0.80726   0.00000  Uiso   1.00
H775   H     0.79858   0.38889   0.67535   0.00000  Uiso   1.00
H776   H     0.87867   0.11402   0.68963   0.00000  Uiso   1.00
N777   N     0.83333   0.25001   0.62934   0.00000  Uiso   1.00
N778   N     0.83333   0.24999   0.87065   0.00000  Uiso   1.00
N779   N     0.88725   0.02749   0.67963   0.00000  Uiso   1.00
N780   N     0.87628   0.47601   0.83490   0.00000  Uiso   1.00
N781   N     0.90735   0.30006   0.63886   0.00000  Uiso   1.00
N782   N     0.77357   0.18758   0.86317   0.00000  Uiso   1.00
N783   N     0.75932   0.20004   0.62051   0.00000  Uiso   1.00
N784   N     0.89609   0.31039   0.87857   0.00000  Uiso   1.00
O785   O     0.83334   0.18572   0.79071   0.00000  Uiso   1.00
O786   O     0.83333   0.31427   0.70928   0.00000  Uiso   1.00
O787   O     0.83334   0.18573   0.70928   0.00000  Uiso   1.00
O788   O     0.83333   0.31427   0.79072   0.00000  Uiso   1.00
O789   O     0.75828   0.24999   0.78132   0.00000  Uiso   1.00
O790   O     0.90839   0.25000   0.71868   0.00000  Uiso   1.00
O791   O     0.75828   0.25000   0.69988   0.00000  Uiso   1.00
O792   O     0.90839   0.25000   0.80011   0.00000  Uiso   1.00
C793   C     0.16663   0.66502   0.74989   0.00000  Uiso   1.00
C794   C     0.19487   0.78191   0.94966   0.00000  Uiso   1.00
C795   C     0.16644   0.75024   0.52735   0.00000  Uiso   1.00
C796   C     0.16641   0.75031   0.97278   0.00000  Uiso   1.00
C797   C     0.06799   0.74974   0.73764   0.00000  Uiso   1.00
C798   C     0.26533   0.75067   0.76231   0.00000  Uiso   1.00
C799   C     0.01270   0.74842   0.73086   0.00000  Uiso   1.00
C800   C     0.32059   0.75275   0.76883   0.00000  Uiso   1.00
C801   C     0.14354   0.54637   0.78145   0.00000  Uiso   1.00
C802   C     0.14987   0.95237   0.70750   0.00000  Uiso   1.00
C803   C     0.14254   0.59222   0.78203   0.00000  Uiso   1.00
C804   C     0.16661   0.83503   0.74994   0.00000  Uiso   1.00
C805   C     0.14845   0.90641   0.70776   0.00000  Uiso   1.00
C806   C     0.16745   0.61679   0.74926   0.00000  Uiso   1.00
C807   C     0.16714   0.88340   0.74980   0.00000  Uiso   1.00
C808   C     0.19268   0.59506   0.71513   0.00000  Uiso   1.00
C809   C     0.18687   0.90685   0.79167   0.00000  Uiso   1.00
C810   C     0.19450   0.54887   0.71451   0.00000  Uiso   1.00
C811   C     0.18909   0.95303   0.79177   0.00000  Uiso   1.00
C812   C     0.16976   0.52441   0.74826   0.00000  Uiso   1.00
C813   C     0.17020   0.97594   0.74919   0.00000  Uiso   1.00
C814   C     0.27114   0.51152   0.69811   0.00000  Uiso   1.00
C815   C     0.20480   0.77299   0.55874   0.00000  Uiso   1.00
C816   C     0.26151   0.99368   0.83521   0.00000  Uiso   1.00
C817   C     0.23607   0.84733   0.63207   0.00000  Uiso   1.00
C818   C     0.05249   0.68614   0.86812   0.00000  Uiso   1.00
C819   C     0.09750   0.65276   0.61527   0.00000  Uiso   1.00
C820   C     0.28386   0.80173   0.89063   0.00000  Uiso   1.00
C821   C     0.13833   0.71842   0.94272   0.00000  Uiso   1.00
C822   C     0.20325   0.77414   0.60908   0.00000  Uiso   1.00
C823   C     0.13708   0.71967   0.89196   0.00000  Uiso   1.00
C824   C     0.12997   0.72598   0.59997   0.00000  Uiso   1.00
C825   C     0.19651   0.78018   0.89931   0.00000  Uiso   1.00
C826   C     0.12817   0.72735   0.54919   0.00000  Uiso   1.00
Cu827  Cu    0.16667   0.74999   0.79821   0.00000  Uiso   1.00
Cu828  Cu    0.16667   0.75000   0.70178   0.00000  Uiso   1.00
H829   H     0.23634   0.79024   0.54499   0.00000  Uiso   1.00
H830   H     0.20175   0.88938   0.82408   0.00000  Uiso   1.00
H831   H     0.22104   0.54530   0.64814   0.00000  Uiso   1.00
H832   H     0.29679   0.53938   0.71315   0.00000  Uiso   1.00
H833   H     0.28850   0.99584   0.66835   0.00000  Uiso   1.00
H834   H     0.26841   0.98617   0.72643   0.00000  Uiso   1.00
H835   H     0.20551   0.95879   0.86613   0.00000  Uiso   1.00
H836   H     0.27429   0.51050   0.87025   0.00000  Uiso   1.00
H837   H     0.26295   0.51847   0.80611   0.00000  Uiso   1.00
H838   H     0.28848   0.96659   0.83059   0.00000  Uiso   1.00
H839   H     0.27777   0.79015   0.63677   0.00000  Uiso   1.00
H840   H     0.11739   0.69194   0.95797   0.00000  Uiso   1.00
H841   H     0.24869   0.85740   0.59714   0.00000  Uiso   1.00
H842   H     0.26085   0.86485   0.66184   0.00000  Uiso   1.00
H843   H     0.19557   0.85733   0.63242   0.00000  Uiso   1.00
H844   H     0.12276   0.65675   0.86754   0.00000  Uiso   1.00
H845   H     0.04562   0.66606   0.90008   0.00000  Uiso   1.00
H846   H     0.03057   0.67069   0.83535   0.00000  Uiso   1.00
H847   H     0.03798   0.71992   0.87241   0.00000  Uiso   1.00
H848   H     0.05547   0.71001   0.60950   0.00000  Uiso   1.00
H849   H     0.08611   0.64262   0.57702   0.00000  Uiso   1.00
H850   H     0.07184   0.63528   0.63803   0.00000  Uiso   1.00
H851   H     0.32622   0.74310   0.69452   0.00000  Uiso   1.00
H852   H     0.13781   0.64275   0.62712   0.00000  Uiso   1.00
H853   H     0.22188   0.84268   0.88647   0.00000  Uiso   1.00
H854   H     0.29704   0.80972   0.92922   0.00000  Uiso   1.00
H855   H     0.30625   0.82266   0.86781   0.00000  Uiso   1.00
H856   H     0.29176   0.76647   0.88404   0.00000  Uiso   1.00
H857   H     0.09655   0.71017   0.52755   0.00000  Uiso   1.00
H858   H     0.21658   0.80808   0.97001   0.00000  Uiso   1.00
H859   H     0.00712   0.75858   0.80496   0.00000  Uiso   1.00
H860   H     0.12345   0.52787   0.80675   0.00000  Uiso   1.00
H861   H     0.13446   0.96966   0.67491   0.00000  Uiso   1.00
H862   H     0.12120   0.60830   0.80726   0.00000  Uiso   1.00
H863   H     0.13191   0.88889   0.67535   0.00000  Uiso   1.00
H864   H     0.21201   0.61402   0.68963   0.00000  Uiso   1.00
N865   N     0.16667   0.75001   0.62934   0.00000  Uiso   1.00
N866   N     0.16667   0.74999   0.87065   0.00000  Uiso   1.00
N867   N     0.22058   0.52749   0.67963   0.00000  Uiso   1.00
N868   N     0.20962   0.97601   0.83490   0.00000  Uiso   1.00
N869   N     0.24069   0.80006   0.63886   0.00000  Uiso   1.00
N870   N     0.10690   0.68758   0.86317   0.00000  Uiso   1.00
N871   N     0.09266   0.70004   0.62051   0.00000  Uiso   1.00
N872   N     0.22942   0.81039   0.87857   0.00000  Uiso   1.00
O873   O     0.16667   0.68572   0.79071   0.00000  Uiso   1.00
O874   O     0.16666   0.81427   0.70928   0.00000  Uiso   1.00
O875   O     0.16667   0.68573   0.70928   0.00000  Uiso   1.00
O876   O     0.16666   0.81427   0.79072   0.00000  Uiso   1.00
O877   O     0.09161   0.74999   0.78132   0.00000  Uiso   1.00
O878   O     0.24172   0.75000   0.71868   0.00000  Uiso   1.00
O879   O     0.09161   0.75000   0.69988   0.00000  Uiso   1.00
O880   O     0.24172   0.75000   0.80011   0.00000  Uiso   1.00
C881   C     0.49996   0.66502   0.74989   0.00000  Uiso   1.00
C882   C     0.52820   0.78191   0.94966   0.00000  Uiso   1.00
C883   C     0.49977   0.75024   0.52735   0.00000  Uiso   1.00
C884   C     0.49974   0.75031   0.97278   0.00000  Uiso   1.00
C885   C     0.40133   0.74974   0.73764   0.00000  Uiso   1.00
C886   C     0.59867   0.75067   0.76231   0.00000  Uiso   1.00
C887   C     0.34603   0.74842   0.73086   0.00000  Uiso   1.00
C888   C     0.65393   0.75275   0.76883   0.00000  Uiso   1.00
C889   C     0.47687   0.54637   0.78145   0.00000  Uiso   1.00
C890   C     0.48320   0.95237   0.70750   0.00000  Uiso   1.00
C891   C     0.47587   0.59222   0.78203   0.00000  Uiso   1.00
C892   C     0.49994   0.83503   0.74994   0.00000  Uiso   1.00
C893   C     0.48179   0.90641   0.70776   0.00000  Uiso   1.00
C894   C     0.50078   0.61679   0.74926   0.00000  Uiso   1.00
C895   C     0.50047   0.88340   0.74980   0.00000  Uiso   1.00
C896   C     0.52601   0.59506   0.71513   0.00000  Uiso   1.00
C897   C     0.52020   0.90685   0.79167   0.00000  Uiso   1.00
C898   C     0.52783   0.54887   0.71451   0.00000  Uiso   1.00
C899   C     0.52242   0.95303   0.79177   0.00000  Uiso   1.00
C900   C     0.50310   0.52441   0.74826   0.00000  Uiso   1.00
C901   C     0.50354   0.97594   0.74919   0.00000  Uiso   1.00
C902   C     0.60448   0.51152   0.69811   0.00000  Uiso   1.00
C903   C     0.53814   0.77299   0.55874   0.00000  Uiso   1.00
C904   C     0.59485   0.99368   0.83521   0.00000  Uiso   1.00
C905   C     0.56940   0.84733   0.63207   0.00000  Uiso   1.00
C906   C     0.38582   0.68614   0.86812   0.00000  Uiso   1.00
C907   C     0.43084   0.65276   0.61527   0.00000  Uiso   1.00
C908   C     0.61719   0.80173   0.89063   0.00000  Uiso   1.00
C909   C     0.47167   0.71842   0.94272   0.00000  Uiso   1.00
C910   C     0.53659   0.77414   0.60908   0.00000  Uiso   1.00
C911   C     0.47042   0.71967   0.89196   0.00000  Uiso   1.00
C912   C     0.46330   0.72598   0.59997   0.00000  Uiso   1.00
C913   C     0.52984   0.78018   0.89931   0.00000  Uiso   1.00
C914   C     0.46151   0.72735   0.54919   0.00000  Uiso   1.00
Cu915  Cu    0.50000   0.74999   0.79821   0.00000  Uiso   1.00
Cu916  Cu    0.50000   0.75000   0.70178   0.00000  Uiso   1.00
H917   H     0.56968   0.79024   0.54499   0.00000  Uiso   1.00
H918   H     0.53508   0.88938   0.82408   0.00000  Uiso   1.00
H919   H     0.55438   0.54530   0.64814   0.00000  Uiso   1.00
H920   H     0.63012   0.53938   0.71315   0.00000  Uiso   1.00
H921   H     0.62183   0.99584   0.66835   0.00000  Uiso   1.00
H922   H     0.60175   0.98617   0.72643   0.00000  Uiso   1.00
H923   H     0.53884   0.95879   0.86613   0.00000  Uiso   1.00
H924   H     0.60762   0.51050   0.87025   0.00000  Uiso   1.00
H925   H     0.59628   0.51847   0.80611   0.00000  Uiso   1.00
H926   H     0.62181   0.96659   0.83059   0.00000  Uiso   1.00
H927   H     0.61110   0.79015   0.63677   0.00000  Uiso   1.00
H928   H     0.45073   0.69194   0.95797   0.00000  Uiso   1.00
H929   H     0.58202   0.85740   0.59714   0.00000  Uiso   1.00
H930   H     0.59418   0.86485   0.66184   0.00000  Uiso   1.00
H931   H     0.52891   0.85733   0.63242   0.00000  Uiso   1.00
H932   H     0.45609   0.65675   0.86754   0.00000  Uiso   1.00
H933   H     0.37895   0.66606   0.90008   0.00000  Uiso   1.00
H934   H     0.36390   0.67069   0.83535   0.00000  Uiso   1.00
H935   H     0.37131   0.71992   0.87241   0.00000  Uiso   1.00
H936   H     0.38880   0.71001   0.60950   0.00000  Uiso   1.00
H937   H     0.41944   0.64262   0.57702   0.00000  Uiso   1.00
H938   H     0.40517   0.63528   0.63803   0.00000  Uiso   1.00
H939   H     0.65956   0.74310   0.69452   0.00000  Uiso   1.00
H940   H     0.47114   0.64275   0.62712   0.00000  Uiso   1.00
H941   H     0.55521   0.84268   0.88647   0.00000  Uiso   1.00
H942   H     0.63037   0.80972   0.92922   0.00000  Uiso   1.00
H943   H     0.63959   0.82266   0.86781   0.00000  Uiso   1.00
H944   H     0.62509   0.76647   0.88404   0.00000  Uiso   1.00
H945   H     0.42988   0.71017   0.52755   0.00000  Uiso   1.00
H946   H     0.54992   0.80808   0.97001   0.00000  Uiso   1.00
H947   H     0.34045   0.75858   0.80496   0.00000  Uiso   1.00
H948   H     0.45678   0.52787   0.80675   0.00000  Uiso   1.00
H949   H     0.46779   0.96966   0.67491   0.00000  Uiso   1.00
H950   H     0.45454   0.60830   0.80726   0.00000  Uiso   1.00
H951   H     0.46525   0.88889   0.67535   0.00000  Uiso   1.00
H952   H     0.54534   0.61402   0.68963   0.00000  Uiso   1.00
N953   N     0.50000   0.75001   0.62934   0.00000  Uiso   1.00
N954   N     0.50000   0.74999   0.87065   0.00000  Uiso   1.00
N955   N     0.55392   0.52749   0.67963   0.00000  Uiso   1.00
N956   N     0.54295   0.97601   0.83490   0.00000  Uiso   1.00
N957   N     0.57402   0.80006   0.63886   0.00000  Uiso   1.00
N958   N     0.44023   0.68758   0.86317   0.00000  Uiso   1.00
N959   N     0.42599   0.70004   0.62051   0.00000  Uiso   1.00
N960   N     0.56276   0.81039   0.87857   0.00000  Uiso   1.00
O961   O     0.50000   0.68572   0.79071   0.00000  Uiso   1.00
O962   O     0.50000   0.81427   0.70928   0.00000  Uiso   1.00
O963   O     0.50000   0.68573   0.70928   0.00000  Uiso   1.00
O964   O     0.50000   0.81427   0.79072   0.00000  Uiso   1.00
O965   O     0.42495   0.74999   0.78132   0.00000  Uiso   1.00
O966   O     0.57505   0.75000   0.71868   0.00000  Uiso   1.00
O967   O     0.42495   0.75000   0.69988   0.00000  Uiso   1.00
O968   O     0.57505   0.75000   0.80011   0.00000  Uiso   1.00
C969   C     0.83330   0.66502   0.74989   0.00000  Uiso   1.00
C970   C     0.86153   0.78191   0.94966   0.00000  Uiso   1.00
C971   C     0.83310   0.75024   0.52735   0.00000  Uiso   1.00
C972   C     0.83307   0.75031   0.97278   0.00000  Uiso   1.00
C973   C     0.73466   0.74974   0.73764   0.00000  Uiso   1.00
C974   C     0.93200   0.75067   0.76231   0.00000  Uiso   1.00
C975   C     0.67936   0.74842   0.73086   0.00000  Uiso   1.00
C976   C     0.98726   0.75275   0.76883   0.00000  Uiso   1.00
C977   C     0.81021   0.54637   0.78145   0.00000  Uiso   1.00
C978   C     0.81654   0.95237   0.70750   0.00000  Uiso   1.00
C979   C     0.80920   0.59222   0.78203   0.00000  Uiso   1.00
C980   C     0.83327   0.83503   0.74994   0.00000  Uiso   1.00
C981   C     0.81512   0.90641   0.70776   0.00000  Uiso   1.00
C982   C     0.83411   0.61679   0.74926   0.00000  Uiso   1.00
C983   C     0.83381   0.88340   0.74980   0.00000  Uiso   1.00
C984   C     0.85935   0.59506   0.71513   0.00000  Uiso   1.00
C985   C     0.85354   0.90685   0.79167   0.00000  Uiso   1.00
C986   C     0.86117   0.54887   0.71451   0.00000  Uiso   1.00
C987   C     0.85576   0.95303   0.79177   0.00000  Uiso   1.00
C988   C     0.83643   0.52441   0.74826   0.00000  Uiso   1.00
C989   C     0.83687   0.97594   0.74919   0.00000  Uiso   1.00
C990   C     0.93781   0.51152   0.69811   0.00000  Uiso   1.00
C991   C     0.87147   0.77299   0.55874   0.00000  Uiso   1.00
C992   C     0.92818   0.99368   0.83521   0.00000  Uiso   1.00
C993   C     0.90273   0.84733   0.63207   0.00000  Uiso   1.00
C994   C     0.71916   0.68614   0.86812   0.00000  Uiso   1.00
C995   C     0.76417   0.65276   0.61527   0.00000  Uiso   1.00
C996   C     0.95052   0.80173   0.89063   0.00000  Uiso   1.00
C997   C     0.80500   0.71842   0.94272   0.00000  Uiso   1.00
C998   C     0.86992   0.77414   0.60908   0.00000  Uiso   1.00
C999   C     0.80375   0.71967   0.89196   0.00000  Uiso   1.00
C1000  C     0.79663   0.72598   0.59997   0.00000  Uiso   1.00
C1001  C     0.86317   0.78018   0.89931   0.00000  Uiso   1.00
C1002  C     0.79484   0.72735   0.54919   0.00000  Uiso   1.00
Cu1003 Cu    0.83333   0.74999   0.79821   0.00000  Uiso   1.00
Cu1004 Cu    0.83333   0.75000   0.70178   0.00000  Uiso   1.00
H1005  H     0.90301   0.79024   0.54499   0.00000  Uiso   1.00
H1006  H     0.86842   0.88938   0.82408   0.00000  Uiso   1.00
H1007  H     0.88771   0.54530   0.64814   0.00000  Uiso   1.00
H1008  H     0.96346   0.53938   0.71315   0.00000  Uiso   1.00
H1009  H     0.95517   0.99584   0.66835   0.00000  Uiso   1.00
H1010  H     0.93508   0.98617   0.72643   0.00000  Uiso   1.00
H1011  H     0.87217   0.95879   0.86613   0.00000  Uiso   1.00
H1012  H     0.94095   0.51050   0.87025   0.00000  Uiso   1.00
H1013  H     0.92962   0.51847   0.80611   0.00000  Uiso   1.00
H1014  H     0.95514   0.96659   0.83059   0.00000  Uiso   1.00
H1015  H     0.94444   0.79015   0.63677   0.00000  Uiso   1.00
H1016  H     0.78406   0.69194   0.95797   0.00000  Uiso   1.00
H1017  H     0.91536   0.85740   0.59714   0.00000  Uiso   1.00
H1018  H     0.92751   0.86485   0.66184   0.00000  Uiso   1.00
H1019  H     0.86224   0.85733   0.63242   0.00000  Uiso   1.00
H1020  H     0.78943   0.65675   0.86754   0.00000  Uiso   1.00
H1021  H     0.71228   0.66606   0.90008   0.00000  Uiso   1.00
H1022  H     0.69724   0.67069   0.83535   0.00000  Uiso   1.00
H1023  H     0.70464   0.71992   0.87241   0.00000  Uiso   1.00
H1024  H     0.72214   0.71001   0.60950   0.00000  Uiso   1.00
H1025  H     0.75278   0.64262   0.57702   0.00000  Uiso   1.00
H1026  H     0.73850   0.63528   0.63803   0.00000  Uiso   1.00
H1027  H     0.99289   0.74310   0.69452   0.00000  Uiso   1.00
H1028  H     0.80448   0.64275   0.62712   0.00000  Uiso   1.00
H1029  H     0.88855   0.84268   0.88647   0.00000  Uiso   1.00
H1030  H     0.96371   0.80972   0.92922   0.00000  Uiso   1.00
H1031  H     0.97292   0.82266   0.86781   0.00000  Uiso   1.00
H1032  H     0.95843   0.76647   0.88404   0.00000  Uiso   1.00
H1033  H     0.76322   0.71017   0.52755   0.00000  Uiso   1.00
H1034  H     0.88325   0.80808   0.97001   0.00000  Uiso   1.00
H1035  H     0.67379   0.75858   0.80496   0.00000  Uiso   1.00
H1036  H     0.79012   0.52787   0.80675   0.00000  Uiso   1.00
H1037  H     0.80112   0.96966   0.67491   0.00000  Uiso   1.00
H1038  H     0.78787   0.60830   0.80726   0.00000  Uiso   1.00
H1039  H     0.79858   0.88889   0.67535   0.00000  Uiso   1.00
H1040  H     0.87867   0.61402   0.68963   0.00000  Uiso   1.00
N1041  N     0.83333   0.75001   0.62934   0.00000  Uiso   1.00
N1042  N     0.83333   0.74999   0.87065   0.00000  Uiso   1.00
N1043  N     0.88725   0.52749   0.67963   0.00000  Uiso   1.00
N1044  N     0.87628   0.97601   0.83490   0.00000  Uiso   1.00
N1045  N     0.90735   0.80006   0.63886   0.00000  Uiso   1.00
N1046  N     0.77357   0.68758   0.86317   0.00000  Uiso   1.00
N1047  N     0.75932   0.70004   0.62051   0.00000  Uiso   1.00
N1048  N     0.89609   0.81039   0.87857   0.00000  Uiso   1.00
O1049  O     0.83334   0.68572   0.79071   0.00000  Uiso   1.00
O1050  O     0.83333   0.81427   0.70928   0.00000  Uiso   1.00
O1051  O     0.83334   0.68573   0.70928   0.00000  Uiso   1.00
O1052  O     0.83333   0.81427   0.79072   0.00000  Uiso   1.00
O1053  O     0.75828   0.74999   0.78132   0.00000  Uiso   1.00
O1054  O     0.90839   0.75000   0.71868   0.00000  Uiso   1.00
O1055  O     0.75828   0.75000   0.69988   0.00000  Uiso   1.00
O1056  O     0.90839   0.75000   0.80011   0.00000  Uiso   1.00
loop_
_geom_bond_atom_site_label_1
_geom_bond_atom_site_label_2
_geom_bond_distance
_geom_bond_site_symmetry_2
_ccdc_geom_bond_type
C1     O81     1.301   .     A
C1     O83     1.295   .     A
C1     C14     1.459   .     S
C2     C4      1.407   .     A
C2     C33     1.413   .     A
C2     H66     1.080   .     S
C3     C23     1.408   .     A
C3     C34     1.409   .     A
C3     C532    1.524   1_554 S
C4     C29     1.406   .     A
C4     C531    1.524   .     S
C5     O85     1.291   .     A
C5     C7      1.433   .     S
C5     O87     1.292   .     A
C6     O88     1.293   .     A
C6     C8      1.432   .     S
C6     O86     1.290   .     A
C7     C184    1.333   1_455 S
C7     H235    1.086   1_455 S
C8     C95     1.333   .     S
C8     H155    1.084   .     S
C9     C20     1.401   .     A
C9     C11     1.387   .     A
C9     H68     1.084   .     S
C10    C21     1.401   .     A
C10    C13     1.389   .     A
C10    H69     1.083   .     S
C11    H70     1.078   .     S
C11    C14     1.397   .     A
C12    O84     1.300   .     A
C12    C15     1.462   .     S
C12    O82     1.298   .     A
C13    H71     1.083   .     S
C13    C15     1.400   .     A
C14    C16     1.402   .     A
C15    C17     1.400   .     A
C16    H72     1.084   .     S
C16    C18     1.399   .     A
C17    C19     1.396   .     A
C17    H38     1.079   .     S
C18    N75     1.425   .     S
C18    C20     1.413   .     A
C19    N76     1.426   .     S
C19    C21     1.412   .     A
C20    C285    1.466   1_545 S
C21    C284    1.466   .     S
C22    N75     1.447   .     S
C22    H40     1.112   .     S
C22    H305    1.110   1_545 S
C22    H306    1.109   1_545 S
C23    C30     1.412   .     A
C23    H37     1.080   .     S
C24    N76     1.447   .     S
C24    H46     1.112   .     S
C24    H308    1.110   .     S
C24    H309    1.109   .     S
C25    N77     1.447   .     S
C25    H50     1.110   .     S
C25    H51     1.109   .     S
C25    H49     1.111   .     S
C26    H55     1.110   .     S
C26    N78     1.448   .     S
C26    H54     1.110   .     S
C26    H53     1.111   .     S
C27    N79     1.447   .     S
C27    H60     1.111   .     S
C27    H57     1.111   .     S
C27    H58     1.110   .     S
C28    H64     1.111   .     S
C28    N80     1.448   .     S
C28    H63     1.110   .     S
C28    H62     1.111   .     S
C29    H48     1.079   .     S
C29    C31     1.414   .     A
C30    N77     1.419   .     S
C30    N73     1.372   .     A
C31    N74     1.373   .     A
C31    N78     1.417   .     S
C32    N73     1.371   .     A
C32    C34     1.413   .     A
C32    N79     1.419   .     S
C33    N80     1.417   .     S
C33    N74     1.373   .     A
C34    H65     1.080   .     S
Cu35   N74     2.023   .     S
Cu35   Cu36    2.693   .     S
Cu35   O81     1.955   .     S
Cu35   O88     1.957   .     S
Cu35   O84     1.954   .     S
Cu35   O85     1.957   .     S
Cu36   O83     1.954   .     S
Cu36   O82     1.955   .     S
Cu36   O87     1.957   .     S
Cu36   O86     1.957   .     S
Cu36   N73     2.023   .     S
H39    N75     1.032   .     S
H41    C286    1.110   .     S
H42    C286    1.109   .     S
H43    N76     1.032   .     S
H44    C288    1.110   1_545 S
H45    C288    1.109   1_545 S
H47    N77     1.031   .     S
H52    N78     1.029   .     S
H56    N79     1.032   .     S
H59    C95     1.086   .     S
H61    N80     1.030   .     S
H67    C184    1.084   1_455 S
C89    O169    1.301   .     A
C89    O171    1.295   .     A
C89    C102    1.459   .     S
C90    C92     1.407   .     A
C90    C121    1.413   .     A
C90    H154    1.080   .     S
C91    C111    1.408   .     A
C91    C122    1.409   .     A
C91    C620    1.524   1_554 S
C92    C117    1.406   .     A
C92    C619    1.524   .     S
C93    O173    1.291   .     A
C93    C95     1.433   .     S
C93    O175    1.292   .     A
C94    O176    1.293   .     A
C94    C96     1.432   .     S
C94    O174    1.290   .     A
C96    C183    1.333   .     S
C96    H243    1.084   .     S
C97    C108    1.401   .     A
C97    C99     1.387   .     A
C97    H156    1.084   .     S
C98    C109    1.401   .     A
C98    C101    1.389   .     A
C98    H157    1.083   .     S
C99    H158    1.078   .     S
C99    C102    1.397   .     A
C100   O172    1.300   .     A
C100   C103    1.462   .     S
C100   O170    1.298   .     A
C101   H159    1.083   .     S
C101   C103    1.400   .     A
C102   C104    1.402   .     A
C103   C105    1.400   .     A
C104   H160    1.084   .     S
C104   C106    1.399   .     A
C105   C107    1.396   .     A
C105   H126    1.079   .     S
C106   N163    1.425   .     S
C106   C108    1.413   .     A
C107   N164    1.426   .     S
C107   C109    1.412   .     A
C108   C373    1.466   1_545 S
C109   C372    1.466   .     S
C110   N163    1.447   .     S
C110   H128    1.112   .     S
C110   H393    1.110   1_545 S
C110   H394    1.109   1_545 S
C111   C118    1.412   .     A
C111   H125    1.080   .     S
C112   N164    1.447   .     S
C112   H134    1.112   .     S
C112   H396    1.110   .     S
C112   H397    1.109   .     S
C113   N165    1.447   .     S
C113   H138    1.110   .     S
C113   H139    1.109   .     S
C113   H137    1.111   .     S
C114   H143    1.110   .     S
C114   N166    1.448   .     S
C114   H142    1.110   .     S
C114   H141    1.111   .     S
C115   N167    1.447   .     S
C115   H148    1.111   .     S
C115   H145    1.111   .     S
C115   H146    1.110   .     S
C116   H152    1.111   .     S
C116   N168    1.448   .     S
C116   H151    1.110   .     S
C116   H150    1.111   .     S
C117   H136    1.079   .     S
C117   C119    1.414   .     A
C118   N165    1.419   .     S
C118   N161    1.372   .     A
C119   N162    1.373   .     A
C119   N166    1.417   .     S
C120   N161    1.371   .     A
C120   C122    1.413   .     A
C120   N167    1.419   .     S
C121   N168    1.417   .     S
C121   N162    1.373   .     A
C122   H153    1.080   .     S
Cu123  N162    2.023   .     S
Cu123  Cu124   2.693   .     S
Cu123  O169    1.955   .     S
Cu123  O176    1.957   .     S
Cu123  O172    1.954   .     S
Cu123  O173    1.957   .     S
Cu124  O171    1.954   .     S
Cu124  O170    1.955   .     S
Cu124  O175    1.957   .     S
Cu124  O174    1.957   .     S
Cu124  N161    2.023   .     S
H127   N163    1.032   .     S
H129   C374    1.110   .     S
H130   C374    1.109   .     S
H131   N164    1.032   .     S
H132   C376    1.110   1_545 S
H133   C376    1.109   1_545 S
H135   N165    1.031   .     S
H140   N166    1.029   .     S
H144   N167    1.032   .     S
H147   C183    1.086   .     S
H149   N168    1.030   .     S
C177   O257    1.301   .     A
C177   O259    1.295   .     A
C177   C190    1.459   .     S
C178   C180    1.407   .     A
C178   C209    1.413   .     A
C178   H242    1.080   .     S
C179   C199    1.408   .     A
C179   C210    1.409   .     A
C179   C708    1.524   1_554 S
C180   C205    1.406   .     A
C180   C707    1.524   .     S
C181   O261    1.291   .     A
C181   C183    1.433   .     S
C181   O263    1.292   .     A
C182   O264    1.293   .     A
C182   C184    1.432   .     S
C182   O262    1.290   .     A
C184   C7      1.333   1_655 S
C184   H67     1.084   1_655 S
C185   C196    1.401   .     A
C185   C187    1.387   .     A
C185   H244    1.084   .     S
C186   C197    1.401   .     A
C186   C189    1.389   .     A
C186   H245    1.083   .     S
C187   H246    1.078   .     S
C187   C190    1.397   .     A
C188   O260    1.300   .     A
C188   C191    1.462   .     S
C188   O258    1.298   .     A
C189   H247    1.083   .     S
C189   C191    1.400   .     A
C190   C192    1.402   .     A
C191   C193    1.400   .     A
C192   H248    1.084   .     S
C192   C194    1.399   .     A
C193   C195    1.396   .     A
C193   H214    1.079   .     S
C194   N251    1.425   .     S
C194   C196    1.413   .     A
C195   N252    1.426   .     S
C195   C197    1.412   .     A
C196   C461    1.466   1_545 S
C197   C460    1.466   .     S
C198   N251    1.447   .     S
C198   H216    1.112   .     S
C198   H481    1.110   1_545 S
C198   H482    1.109   1_545 S
C199   C206    1.412   .     A
C199   H213    1.080   .     S
C200   N252    1.447   .     S
C200   H222    1.112   .     S
C200   H484    1.110   .     S
C200   H485    1.109   .     S
C201   N253    1.447   .     S
C201   H226    1.110   .     S
C201   H227    1.109   .     S
C201   H225    1.111   .     S
C202   H231    1.110   .     S
C202   N254    1.448   .     S
C202   H230    1.110   .     S
C202   H229    1.111   .     S
C203   N255    1.447   .     S
C203   H236    1.111   .     S
C203   H233    1.111   .     S
C203   H234    1.110   .     S
C204   H240    1.111   .     S
C204   N256    1.448   .     S
C204   H239    1.110   .     S
C204   H238    1.111   .     S
C205   H224    1.079   .     S
C205   C207    1.414   .     A
C206   N253    1.419   .     S
C206   N249    1.372   .     A
C207   N250    1.373   .     A
C207   N254    1.417   .     S
C208   N249    1.371   .     A
C208   C210    1.413   .     A
C208   N255    1.419   .     S
C209   N256    1.417   .     S
C209   N250    1.373   .     A
C210   H241    1.080   .     S
Cu211  N250    2.023   .     S
Cu211  Cu212   2.693   .     S
Cu211  O257    1.955   .     S
Cu211  O264    1.957   .     S
Cu211  O260    1.954   .     S
Cu211  O261    1.957   .     S
Cu212  O259    1.954   .     S
Cu212  O258    1.955   .     S
Cu212  O263    1.957   .     S
Cu212  O262    1.957   .     S
Cu212  N249    2.023   .     S
H215   N251    1.032   .     S
H217   C462    1.110   .     S
H218   C462    1.109   .     S
H219   N252    1.032   .     S
H220   C464    1.110   1_545 S
H221   C464    1.109   1_545 S
H223   N253    1.031   .     S
H228   N254    1.029   .     S
H232   N255    1.032   .     S
H235   C7      1.086   1_655 S
H237   N256    1.030   .     S
C265   O345    1.301   .     A
C265   O347    1.295   .     A
C265   C278    1.459   .     S
C266   C268    1.407   .     A
C266   C297    1.413   .     A
C266   H330    1.080   .     S
C267   C287    1.408   .     A
C267   C298    1.409   .     A
C267   C796    1.524   1_554 S
C268   C293    1.406   .     A
C268   C795    1.524   .     S
C269   O349    1.291   .     A
C269   C271    1.433   .     S
C269   O351    1.292   .     A
C270   O352    1.293   .     A
C270   C272    1.432   .     S
C270   O350    1.290   .     A
C271   C448    1.333   1_455 S
C271   H499    1.086   1_455 S
C272   C359    1.333   .     S
C272   H419    1.084   .     S
C273   C284    1.401   .     A
C273   C275    1.387   .     A
C273   H332    1.084   .     S
C274   C285    1.401   .     A
C274   C277    1.389   .     A
C274   H333    1.083   .     S
C275   H334    1.078   .     S
C275   C278    1.397   .     A
C276   O348    1.300   .     A
C276   C279    1.462   .     S
C276   O346    1.298   .     A
C277   H335    1.083   .     S
C277   C279    1.400   .     A
C278   C280    1.402   .     A
C279   C281    1.400   .     A
C280   H336    1.084   .     S
C280   C282    1.399   .     A
C281   C283    1.396   .     A
C281   H302    1.079   .     S
C282   N339    1.425   .     S
C282   C284    1.413   .     A
C283   N340    1.426   .     S
C283   C285    1.412   .     A
C285   C20     1.466   1_565 S
C286   N339    1.447   .     S
C286   H304    1.112   .     S
C287   C294    1.412   .     A
C287   H301    1.080   .     S
C288   N340    1.447   .     S
C288   H310    1.112   .     S
C288   H44     1.110   1_565 S
C288   H45     1.109   1_565 S
C289   N341    1.447   .     S
C289   H314    1.110   .     S
C289   H315    1.109   .     S
C289   H313    1.111   .     S
C290   H319    1.110   .     S
C290   N342    1.448   .     S
C290   H318    1.110   .     S
C290   H317    1.111   .     S
C291   N343    1.447   .     S
C291   H324    1.111   .     S
C291   H321    1.111   .     S
C291   H322    1.110   .     S
C292   H328    1.111   .     S
C292   N344    1.448   .     S
C292   H327    1.110   .     S
C292   H326    1.111   .     S
C293   H312    1.079   .     S
C293   C295    1.414   .     A
C294   N341    1.419   .     S
C294   N337    1.372   .     A
C295   N338    1.373   .     A
C295   N342    1.417   .     S
C296   N337    1.371   .     A
C296   C298    1.413   .     A
C296   N343    1.419   .     S
C297   N344    1.417   .     S
C297   N338    1.373   .     A
C298   H329    1.080   .     S
Cu299  N338    2.023   .     S
Cu299  Cu300   2.693   .     S
Cu299  O345    1.955   .     S
Cu299  O352    1.957   .     S
Cu299  O348    1.954   .     S
Cu299  O349    1.957   .     S
Cu300  O347    1.954   .     S
Cu300  O346    1.955   .     S
Cu300  O351    1.957   .     S
Cu300  O350    1.957   .     S
Cu300  N337    2.023   .     S
H303   N339    1.032   .     S
H305   C22     1.110   1_565 S
H306   C22     1.109   1_565 S
H307   N340    1.032   .     S
H311   N341    1.031   .     S
H316   N342    1.029   .     S
H320   N343    1.032   .     S
H323   C359    1.086   .     S
H325   N344    1.030   .     S
H331   C448    1.084   1_455 S
C353   O433    1.301   .     A
C353   O435    1.295   .     A
C353   C366    1.459   .     S
C354   C356    1.407   .     A
C354   C385    1.413   .     A
C354   H418    1.080   .     S
C355   C375    1.408   .     A
C355   C386    1.409   .     A
C355   C884    1.524   1_554 S
C356   C381    1.406   .     A
C356   C883    1.524   .     S
C357   O437    1.291   .     A
C357   C359    1.433   .     S
C357   O439    1.292   .     A
C358   O440    1.293   .     A
C358   C360    1.432   .     S
C358   O438    1.290   .     A
C360   C447    1.333   .     S
C360   H507    1.084   .     S
C361   C372    1.401   .     A
C361   C363    1.387   .     A
C361   H420    1.084   .     S
C362   C373    1.401   .     A
C362   C365    1.389   .     A
C362   H421    1.083   .     S
C363   H422    1.078   .     S
C363   C366    1.397   .     A
C364   O436    1.300   .     A
C364   C367    1.462   .     S
C364   O434    1.298   .     A
C365   H423    1.083   .     S
C365   C367    1.400   .     A
C366   C368    1.402   .     A
C367   C369    1.400   .     A
C368   H424    1.084   .     S
C368   C370    1.399   .     A
C369   C371    1.396   .     A
C369   H390    1.079   .     S
C370   N427    1.425   .     S
C370   C372    1.413   .     A
C371   N428    1.426   .     S
C371   C373    1.412   .     A
C373   C108    1.466   1_565 S
C374   N427    1.447   .     S
C374   H392    1.112   .     S
C375   C382    1.412   .     A
C375   H389    1.080   .     S
C376   N428    1.447   .     S
C376   H398    1.112   .     S
C376   H132    1.110   1_565 S
C376   H133    1.109   1_565 S
C377   N429    1.447   .     S
C377   H402    1.110   .     S
C377   H403    1.109   .     S
C377   H401    1.111   .     S
C378   H407    1.110   .     S
C378   N430    1.448   .     S
C378   H406    1.110   .     S
C378   H405    1.111   .     S
C379   N431    1.447   .     S
C379   H412    1.111   .     S
C379   H409    1.111   .     S
C379   H410    1.110   .     S
C380   H416    1.111   .     S
C380   N432    1.448   .     S
C380   H415    1.110   .     S
C380   H414    1.111   .     S
C381   H400    1.079   .     S
C381   C383    1.414   .     A
C382   N429    1.419   .     S
C382   N425    1.372   .     A
C383   N426    1.373   .     A
C383   N430    1.417   .     S
C384   N425    1.371   .     A
C384   C386    1.413   .     A
C384   N431    1.419   .     S
C385   N432    1.417   .     S
C385   N426    1.373   .     A
C386   H417    1.080   .     S
Cu387  N426    2.023   .     S
Cu387  Cu388   2.693   .     S
Cu387  O433    1.955   .     S
Cu387  O440    1.957   .     S
Cu387  O436    1.954   .     S
Cu387  O437    1.957   .     S
Cu388  O435    1.954   .     S
Cu388  O434    1.955   .     S
Cu388  O439    1.957   .     S
Cu388  O438    1.957   .     S
Cu388  N425    2.023   .     S
H391   N427    1.032   .     S
H393   C110    1.110   1_565 S
H394   C110    1.109   1_565 S
H395   N428    1.032   .     S
H399   N429    1.031   .     S
H404   N430    1.029   .     S
H408   N431    1.032   .     S
H411   C447    1.086   .     S
H413   N432    1.030   .     S
C441   O521    1.301   .     A
C441   O523    1.295   .     A
C441   C454    1.459   .     S
C442   C444    1.407   .     A
C442   C473    1.413   .     A
C442   H506    1.080   .     S
C443   C463    1.408   .     A
C443   C474    1.409   .     A
C443   C972    1.524   1_554 S
C444   C469    1.406   .     A
C444   C971    1.524   .     S
C445   O525    1.291   .     A
C445   C447    1.433   .     S
C445   O527    1.292   .     A
C446   O528    1.293   .     A
C446   C448    1.432   .     S
C446   O526    1.290   .     A
C448   C271    1.333   1_655 S
C448   H331    1.084   1_655 S
C449   C460    1.401   .     A
C449   C451    1.387   .     A
C449   H508    1.084   .     S
C450   C461    1.401   .     A
C450   C453    1.389   .     A
C450   H509    1.083   .     S
C451   H510    1.078   .     S
C451   C454    1.397   .     A
C452   O524    1.300   .     A
C452   C455    1.462   .     S
C452   O522    1.298   .     A
C453   H511    1.083   .     S
C453   C455    1.400   .     A
C454   C456    1.402   .     A
C455   C457    1.400   .     A
C456   H512    1.084   .     S
C456   C458    1.399   .     A
C457   C459    1.396   .     A
C457   H478    1.079   .     S
C458   N515    1.425   .     S
C458   C460    1.413   .     A
C459   N516    1.426   .     S
C459   C461    1.412   .     A
C461   C196    1.466   1_565 S
C462   N515    1.447   .     S
C462   H480    1.112   .     S
C463   C470    1.412   .     A
C463   H477    1.080   .     S
C464   N516    1.447   .     S
C464   H486    1.112   .     S
C464   H220    1.110   1_565 S
C464   H221    1.109   1_565 S
C465   N517    1.447   .     S
C465   H490    1.110   .     S
C465   H491    1.109   .     S
C465   H489    1.111   .     S
C466   H495    1.110   .     S
C466   N518    1.448   .     S
C466   H494    1.110   .     S
C466   H493    1.111   .     S
C467   N519    1.447   .     S
C467   H500    1.111   .     S
C467   H497    1.111   .     S
C467   H498    1.110   .     S
C468   H504    1.111   .     S
C468   N520    1.448   .     S
C468   H503    1.110   .     S
C468   H502    1.111   .     S
C469   H488    1.079   .     S
C469   C471    1.414   .     A
C470   N517    1.419   .     S
C470   N513    1.372   .     A
C471   N514    1.373   .     A
C471   N518    1.417   .     S
C472   N513    1.371   .     A
C472   C474    1.413   .     A
C472   N519    1.419   .     S
C473   N520    1.417   .     S
C473   N514    1.373   .     A
C474   H505    1.080   .     S
Cu475  N514    2.023   .     S
Cu475  Cu476   2.693   .     S
Cu475  O521    1.955   .     S
Cu475  O528    1.957   .     S
Cu475  O524    1.954   .     S
Cu475  O525    1.957   .     S
Cu476  O523    1.954   .     S
Cu476  O522    1.955   .     S
Cu476  O527    1.957   .     S
Cu476  O526    1.957   .     S
Cu476  N513    2.023   .     S
H479   N515    1.032   .     S
H481   C198    1.110   1_565 S
H482   C198    1.109   1_565 S
H483   N516    1.032   .     S
H487   N517    1.031   .     S
H492   N518    1.029   .     S
H496   N519    1.032   .     S
H499   C271    1.086   1_655 S
H501   N520    1.030   .     S
C529   O609    1.301   .     A
C529   O611    1.295   .     A
C529   C542    1.459   .     S
C530   C532    1.407   .     A
C530   C561    1.413   .     A
C530   H594    1.080   .     S
C531   C551    1.408   .     A
C531   C562    1.409   .     A
C532   C557    1.406   .     A
C532   C3      1.524   1_556 S
C533   O613    1.291   .     A
C533   C535    1.433   .     S
C533   O615    1.292   .     A
C534   O616    1.293   .     A
C534   C536    1.432   .     S
C534   O614    1.290   .     A
C535   C712    1.333   1_455 S
C535   H763    1.086   1_455 S
C536   C623    1.333   .     S
C536   H683    1.084   .     S
C537   C548    1.401   .     A
C537   C539    1.387   .     A
C537   H596    1.084   .     S
C538   C549    1.401   .     A
C538   C541    1.389   .     A
C538   H597    1.083   .     S
C539   H598    1.078   .     S
C539   C542    1.397   .     A
C540   O612    1.300   .     A
C540   C543    1.462   .     S
C540   O610    1.298   .     A
C541   H599    1.083   .     S
C541   C543    1.400   .     A
C542   C544    1.402   .     A
C543   C545    1.400   .     A
C544   H600    1.084   .     S
C544   C546    1.399   .     A
C545   C547    1.396   .     A
C545   H566    1.079   .     S
C546   N603    1.425   .     S
C546   C548    1.413   .     A
C547   N604    1.426   .     S
C547   C549    1.412   .     A
C548   C813    1.466   1_545 S
C549   C812    1.466   .     S
C550   N603    1.447   .     S
C550   H568    1.112   .     S
C550   H833    1.110   1_545 S
C550   H834    1.109   1_545 S
C551   C558    1.412   .     A
C551   H565    1.080   .     S
C552   N604    1.447   .     S
C552   H574    1.112   .     S
C552   H836    1.110   .     S
C552   H837    1.109   .     S
C553   N605    1.447   .     S
C553   H578    1.110   .     S
C553   H579    1.109   .     S
C553   H577    1.111   .     S
C554   H583    1.110   .     S
C554   N606    1.448   .     S
C554   H582    1.110   .     S
C554   H581    1.111   .     S
C555   N607    1.447   .     S
C555   H588    1.111   .     S
C555   H585    1.111   .     S
C555   H586    1.110   .     S
C556   H592    1.111   .     S
C556   N608    1.448   .     S
C556   H591    1.110   .     S
C556   H590    1.111   .     S
C557   H576    1.079   .     S
C557   C559    1.414   .     A
C558   N605    1.419   .     S
C558   N601    1.372   .     A
C559   N602    1.373   .     A
C559   N606    1.417   .     S
C560   N601    1.371   .     A
C560   C562    1.413   .     A
C560   N607    1.419   .     S
C561   N608    1.417   .     S
C561   N602    1.373   .     A
C562   H593    1.080   .     S
Cu563  N602    2.023   .     S
Cu563  Cu564   2.693   .     S
Cu563  O609    1.955   .     S
Cu563  O616    1.957   .     S
Cu563  O612    1.954   .     S
Cu563  O613    1.957   .     S
Cu564  O611    1.954   .     S
Cu564  O610    1.955   .     S
Cu564  O615    1.957   .     S
Cu564  O614    1.957   .     S
Cu564  N601    2.023   .     S
H567   N603    1.032   .     S
H569   C814    1.110   .     S
H570   C814    1.109   .     S
H571   N604    1.032   .     S
H572   C816    1.110   1_545 S
H573   C816    1.109   1_545 S
H575   N605    1.031   .     S
H580   N606    1.029   .     S
H584   N607    1.032   .     S
H587   C623    1.086   .     S
H589   N608    1.030   .     S
H595   C712    1.084   1_455 S
C617   O697    1.301   .     A
C617   O699    1.295   .     A
C617   C630    1.459   .     S
C618   C620    1.407   .     A
C618   C649    1.413   .     A
C618   H682    1.080   .     S
C619   C639    1.408   .     A
C619   C650    1.409   .     A
C620   C645    1.406   .     A
C620   C91     1.524   1_556 S
C621   O701    1.291   .     A
C621   C623    1.433   .     S
C621   O703    1.292   .     A
C622   O704    1.293   .     A
C622   C624    1.432   .     S
C622   O702    1.290   .     A
C624   C711    1.333   .     S
C624   H771    1.084   .     S
C625   C636    1.401   .     A
C625   C627    1.387   .     A
C625   H684    1.084   .     S
C626   C637    1.401   .     A
C626   C629    1.389   .     A
C626   H685    1.083   .     S
C627   H686    1.078   .     S
C627   C630    1.397   .     A
C628   O700    1.300   .     A
C628   C631    1.462   .     S
C628   O698    1.298   .     A
C629   H687    1.083   .     S
C629   C631    1.400   .     A
C630   C632    1.402   .     A
C631   C633    1.400   .     A
C632   H688    1.084   .     S
C632   C634    1.399   .     A
C633   C635    1.396   .     A
C633   H654    1.079   .     S
C634   N691    1.425   .     S
C634   C636    1.413   .     A
C635   N692    1.426   .     S
C635   C637    1.412   .     A
C636   C901    1.466   1_545 S
C637   C900    1.466   .     S
C638   N691    1.447   .     S
C638   H656    1.112   .     S
C638   H921    1.110   1_545 S
C638   H922    1.109   1_545 S
C639   C646    1.412   .     A
C639   H653    1.080   .     S
C640   N692    1.447   .     S
C640   H662    1.112   .     S
C640   H924    1.110   .     S
C640   H925    1.109   .     S
C641   N693    1.447   .     S
C641   H666    1.110   .     S
C641   H667    1.109   .     S
C641   H665    1.111   .     S
C642   H671    1.110   .     S
C642   N694    1.448   .     S
C642   H670    1.110   .     S
C642   H669    1.111   .     S
C643   N695    1.447   .     S
C643   H676    1.111   .     S
C643   H673    1.111   .     S
C643   H674    1.110   .     S
C644   H680    1.111   .     S
C644   N696    1.448   .     S
C644   H679    1.110   .     S
C644   H678    1.111   .     S
C645   H664    1.079   .     S
C645   C647    1.414   .     A
C646   N693    1.419   .     S
C646   N689    1.372   .     A
C647   N690    1.373   .     A
C647   N694    1.417   .     S
C648   N689    1.371   .     A
C648   C650    1.413   .     A
C648   N695    1.419   .     S
C649   N696    1.417   .     S
C649   N690    1.373   .     A
C650   H681    1.080   .     S
Cu651  N690    2.023   .     S
Cu651  Cu652   2.693   .     S
Cu651  O697    1.955   .     S
Cu651  O704    1.957   .     S
Cu651  O700    1.954   .     S
Cu651  O701    1.957   .     S
Cu652  O699    1.954   .     S
Cu652  O698    1.955   .     S
Cu652  O703    1.957   .     S
Cu652  O702    1.957   .     S
Cu652  N689    2.023   .     S
H655   N691    1.032   .     S
H657   C902    1.110   .     S
H658   C902    1.109   .     S
H659   N692    1.032   .     S
H660   C904    1.110   1_545 S
H661   C904    1.109   1_545 S
H663   N693    1.031   .     S
H668   N694    1.029   .     S
H672   N695    1.032   .     S
H675   C711    1.086   .     S
H677   N696    1.030   .     S
C705   O785    1.301   .     A
C705   O787    1.295   .     A
C705   C718    1.459   .     S
C706   C708    1.407   .     A
C706   C737    1.413   .     A
C706   H770    1.080   .     S
C707   C727    1.408   .     A
C707   C738    1.409   .     A
C708   C733    1.406   .     A
C708   C179    1.524   1_556 S
C709   O789    1.291   .     A
C709   C711    1.433   .     S
C709   O791    1.292   .     A
C710   O792    1.293   .     A
C710   C712    1.432   .     S
C710   O790    1.290   .     A
C712   C535    1.333   1_655 S
C712   H595    1.084   1_655 S
C713   C724    1.401   .     A
C713   C715    1.387   .     A
C713   H772    1.084   .     S
C714   C725    1.401   .     A
C714   C717    1.389   .     A
C714   H773    1.083   .     S
C715   H774    1.078   .     S
C715   C718    1.397   .     A
C716   O788    1.300   .     A
C716   C719    1.462   .     S
C716   O786    1.298   .     A
C717   H775    1.083   .     S
C717   C719    1.400   .     A
C718   C720    1.402   .     A
C719   C721    1.400   .     A
C720   H776    1.084   .     S
C720   C722    1.399   .     A
C721   C723    1.396   .     A
C721   H742    1.079   .     S
C722   N779    1.425   .     S
C722   C724    1.413   .     A
C723   N780    1.426   .     S
C723   C725    1.412   .     A
C724   C989    1.466   1_545 S
C725   C988    1.466   .     S
C726   N779    1.447   .     S
C726   H744    1.112   .     S
C726   H1009   1.110   1_545 S
C726   H1010   1.109   1_545 S
C727   C734    1.412   .     A
C727   H741    1.080   .     S
C728   N780    1.447   .     S
C728   H750    1.112   .     S
C728   H1012   1.110   .     S
C728   H1013   1.109   .     S
C729   N781    1.447   .     S
C729   H754    1.110   .     S
C729   H755    1.109   .     S
C729   H753    1.111   .     S
C730   H759    1.110   .     S
C730   N782    1.448   .     S
C730   H758    1.110   .     S
C730   H757    1.111   .     S
C731   N783    1.447   .     S
C731   H764    1.111   .     S
C731   H761    1.111   .     S
C731   H762    1.110   .     S
C732   H768    1.111   .     S
C732   N784    1.448   .     S
C732   H767    1.110   .     S
C732   H766    1.111   .     S
C733   H752    1.079   .     S
C733   C735    1.414   .     A
C734   N781    1.419   .     S
C734   N777    1.372   .     A
C735   N778    1.373   .     A
C735   N782    1.417   .     S
C736   N777    1.371   .     A
C736   C738    1.413   .     A
C736   N783    1.419   .     S
C737   N784    1.417   .     S
C737   N778    1.373   .     A
C738   H769    1.080   .     S
Cu739  N778    2.023   .     S
Cu739  Cu740   2.693   .     S
Cu739  O785    1.955   .     S
Cu739  O792    1.957   .     S
Cu739  O788    1.954   .     S
Cu739  O789    1.957   .     S
Cu740  O787    1.954   .     S
Cu740  O786    1.955   .     S
Cu740  O791    1.957   .     S
Cu740  O790    1.957   .     S
Cu740  N777    2.023   .     S
H743   N779    1.032   .     S
H745   C990    1.110   .     S
H746   C990    1.109   .     S
H747   N780    1.032   .     S
H748   C992    1.110   1_545 S
H749   C992    1.109   1_545 S
H751   N781    1.031   .     S
H756   N782    1.029   .     S
H760   N783    1.032   .     S
H763   C535    1.086   1_655 S
H765   N784    1.030   .     S
C793   O873    1.301   .     A
C793   O875    1.295   .     A
C793   C806    1.459   .     S
C794   C796    1.407   .     A
C794   C825    1.413   .     A
C794   H858    1.080   .     S
C795   C815    1.408   .     A
C795   C826    1.409   .     A
C796   C821    1.406   .     A
C796   C267    1.524   1_556 S
C797   O877    1.291   .     A
C797   C799    1.433   .     S
C797   O879    1.292   .     A
C798   O880    1.293   .     A
C798   C800    1.432   .     S
C798   O878    1.290   .     A
C799   C976    1.333   1_455 S
C799   H1027   1.086   1_455 S
C800   C887    1.333   .     S
C800   H947    1.084   .     S
C801   C812    1.401   .     A
C801   C803    1.387   .     A
C801   H860    1.084   .     S
C802   C813    1.401   .     A
C802   C805    1.389   .     A
C802   H861    1.083   .     S
C803   H862    1.078   .     S
C803   C806    1.397   .     A
C804   O876    1.300   .     A
C804   C807    1.462   .     S
C804   O874    1.298   .     A
C805   H863    1.083   .     S
C805   C807    1.400   .     A
C806   C808    1.402   .     A
C807   C809    1.400   .     A
C808   H864    1.084   .     S
C808   C810    1.399   .     A
C809   C811    1.396   .     A
C809   H830    1.079   .     S
C810   N867    1.425   .     S
C810   C812    1.413   .     A
C811   N868    1.426   .     S
C811   C813    1.412   .     A
C813   C548    1.466   1_565 S
C814   N867    1.447   .     S
C814   H832    1.112   .     S
C815   C822    1.412   .     A
C815   H829    1.080   .     S
C816   N868    1.447   .     S
C816   H838    1.112   .     S
C816   H572    1.110   1_565 S
C816   H573    1.109   1_565 S
C817   N869    1.447   .     S
C817   H842    1.110   .     S
C817   H843    1.109   .     S
C817   H841    1.111   .     S
C818   H847    1.110   .     S
C818   N870    1.448   .     S
C818   H846    1.110   .     S
C818   H845    1.111   .     S
C819   N871    1.447   .     S
C819   H852    1.111   .     S
C819   H849    1.111   .     S
C819   H850    1.110   .     S
C820   H856    1.111   .     S
C820   N872    1.448   .     S
C820   H855    1.110   .     S
C820   H854    1.111   .     S
C821   H840    1.079   .     S
C821   C823    1.414   .     A
C822   N869    1.419   .     S
C822   N865    1.372   .     A
C823   N866    1.373   .     A
C823   N870    1.417   .     S
C824   N865    1.371   .     A
C824   C826    1.413   .     A
C824   N871    1.419   .     S
C825   N872    1.417   .     S
C825   N866    1.373   .     A
C826   H857    1.080   .     S
Cu827  N866    2.023   .     S
Cu827  Cu828   2.693   .     S
Cu827  O873    1.955   .     S
Cu827  O880    1.957   .     S
Cu827  O876    1.954   .     S
Cu827  O877    1.957   .     S
Cu828  O875    1.954   .     S
Cu828  O874    1.955   .     S
Cu828  O879    1.957   .     S
Cu828  O878    1.957   .     S
Cu828  N865    2.023   .     S
H831   N867    1.032   .     S
H833   C550    1.110   1_565 S
H834   C550    1.109   1_565 S
H835   N868    1.032   .     S
H839   N869    1.031   .     S
H844   N870    1.029   .     S
H848   N871    1.032   .     S
H851   C887    1.086   .     S
H853   N872    1.030   .     S
H859   C976    1.084   1_455 S
C881   O961    1.301   .     A
C881   O963    1.295   .     A
C881   C894    1.459   .     S
C882   C884    1.407   .     A
C882   C913    1.413   .     A
C882   H946    1.080   .     S
C883   C903    1.408   .     A
C883   C914    1.409   .     A
C884   C909    1.406   .     A
C884   C355    1.524   1_556 S
C885   O965    1.291   .     A
C885   C887    1.433   .     S
C885   O967    1.292   .     A
C886   O968    1.293   .     A
C886   C888    1.432   .     S
C886   O966    1.290   .     A
C888   C975    1.333   .     S
C888   H1035   1.084   .     S
C889   C900    1.401   .     A
C889   C891    1.387   .     A
C889   H948    1.084   .     S
C890   C901    1.401   .     A
C890   C893    1.389   .     A
C890   H949    1.083   .     S
C891   H950    1.078   .     S
C891   C894    1.397   .     A
C892   O964    1.300   .     A
C892   C895    1.462   .     S
C892   O962    1.298   .     A
C893   H951    1.083   .     S
C893   C895    1.400   .     A
C894   C896    1.402   .     A
C895   C897    1.400   .     A
C896   H952    1.084   .     S
C896   C898    1.399   .     A
C897   C899    1.396   .     A
C897   H918    1.079   .     S
C898   N955    1.425   .     S
C898   C900    1.413   .     A
C899   N956    1.426   .     S
C899   C901    1.412   .     A
C901   C636    1.466   1_565 S
C902   N955    1.447   .     S
C902   H920    1.112   .     S
C903   C910    1.412   .     A
C903   H917    1.080   .     S
C904   N956    1.447   .     S
C904   H926    1.112   .     S
C904   H660    1.110   1_565 S
C904   H661    1.109   1_565 S
C905   N957    1.447   .     S
C905   H930    1.110   .     S
C905   H931    1.109   .     S
C905   H929    1.111   .     S
C906   H935    1.110   .     S
C906   N958    1.448   .     S
C906   H934    1.110   .     S
C906   H933    1.111   .     S
C907   N959    1.447   .     S
C907   H940    1.111   .     S
C907   H937    1.111   .     S
C907   H938    1.110   .     S
C908   H944    1.111   .     S
C908   N960    1.448   .     S
C908   H943    1.110   .     S
C908   H942    1.111   .     S
C909   H928    1.079   .     S
C909   C911    1.414   .     A
C910   N957    1.419   .     S
C910   N953    1.372   .     A
C911   N954    1.373   .     A
C911   N958    1.417   .     S
C912   N953    1.371   .     A
C912   C914    1.413   .     A
C912   N959    1.419   .     S
C913   N960    1.417   .     S
C913   N954    1.373   .     A
C914   H945    1.080   .     S
Cu915  N954    2.023   .     S
Cu915  Cu916   2.693   .     S
Cu915  O961    1.955   .     S
Cu915  O968    1.957   .     S
Cu915  O964    1.954   .     S
Cu915  O965    1.957   .     S
Cu916  O963    1.954   .     S
Cu916  O962    1.955   .     S
Cu916  O967    1.957   .     S
Cu916  O966    1.957   .     S
Cu916  N953    2.023   .     S
H919   N955    1.032   .     S
H921   C638    1.110   1_565 S
H922   C638    1.109   1_565 S
H923   N956    1.032   .     S
H927   N957    1.031   .     S
H932   N958    1.029   .     S
H936   N959    1.032   .     S
H939   C975    1.086   .     S
H941   N960    1.030   .     S
C969   O1049   1.301   .     A
C969   O1051   1.295   .     A
C969   C982    1.459   .     S
C970   C972    1.407   .     A
C970   C1001   1.413   .     A
C970   H1034   1.080   .     S
C971   C991    1.408   .     A
C971   C1002   1.409   .     A
C972   C997    1.406   .     A
C972   C443    1.524   1_556 S
C973   O1053   1.291   .     A
C973   C975    1.433   .     S
C973   O1055   1.292   .     A
C974   O1056   1.293   .     A
C974   C976    1.432   .     S
C974   O1054   1.290   .     A
C976   C799    1.333   1_655 S
C976   H859    1.084   1_655 S
C977   C988    1.401   .     A
C977   C979    1.387   .     A
C977   H1036   1.084   .     S
C978   C989    1.401   .     A
C978   C981    1.389   .     A
C978   H1037   1.083   .     S
C979   H1038   1.078   .     S
C979   C982    1.397   .     A
C980   O1052   1.300   .     A
C980   C983    1.462   .     S
C980   O1050   1.298   .     A
C981   H1039   1.083   .     S
C981   C983    1.400   .     A
C982   C984    1.402   .     A
C983   C985    1.400   .     A
C984   H1040   1.084   .     S
C984   C986    1.399   .     A
C985   C987    1.396   .     A
C985   H1006   1.079   .     S
C986   N1043   1.425   .     S
C986   C988    1.413   .     A
C987   N1044   1.426   .     S
C987   C989    1.412   .     A
C989   C724    1.466   1_565 S
C990   N1043   1.447   .     S
C990   H1008   1.112   .     S
C991   C998    1.412   .     A
C991   H1005   1.080   .     S
C992   N1044   1.447   .     S
C992   H1014   1.112   .     S
C992   H748    1.110   1_565 S
C992   H749    1.109   1_565 S
C993   N1045   1.447   .     S
C993   H1018   1.110   .     S
C993   H1019   1.109   .     S
C993   H1017   1.111   .     S
C994   H1023   1.110   .     S
C994   N1046   1.448   .     S
C994   H1022   1.110   .     S
C994   H1021   1.111   .     S
C995   N1047   1.447   .     S
C995   H1028   1.111   .     S
C995   H1025   1.111   .     S
C995   H1026   1.110   .     S
C996   H1032   1.111   .     S
C996   N1048   1.448   .     S
C996   H1031   1.110   .     S
C996   H1030   1.111   .     S
C997   H1016   1.079   .     S
C997   C999    1.414   .     A
C998   N1045   1.419   .     S
C998   N1041   1.372   .     A
C999   N1042   1.373   .     A
C999   N1046   1.417   .     S
C1000  N1041   1.371   .     A
C1000  C1002   1.413   .     A
C1000  N1047   1.419   .     S
C1001  N1048   1.417   .     S
C1001  N1042   1.373   .     A
C1002  H1033   1.080   .     S
Cu1003 N1042   2.023   .     S
Cu1003 Cu1004  2.693   .     S
Cu1003 O1049   1.955   .     S
Cu1003 O1056   1.957   .     S
Cu1003 O1052   1.954   .     S
Cu1003 O1053   1.957   .     S
Cu1004 O1051   1.954   .     S
Cu1004 O1050   1.955   .     S
Cu1004 O1055   1.957   .     S
Cu1004 O1054   1.957   .     S
Cu1004 N1041   2.023   .     S
H1007  N1043   1.032   .     S
H1009  C726    1.110   1_565 S
H1010  C726    1.109   1_565 S
H1011  N1044   1.032   .     S
H1015  N1045   1.031   .     S
H1020  N1046   1.029   .     S
H1024  N1047   1.032   .     S
H1027  C799    1.086   1_655 S
H1029  N1048   1.030   .     S
