data_str_m2_o1_o17_pcu_sym.165
_audit_creation_date              2020-01-03
_audit_creation_method            'Materials Studio'
_symmetry_space_group_name_H-M    'P1'
_symmetry_Int_Tables_number       1
_symmetry_cell_setting            triclinic
loop_
_symmetry_equiv_pos_as_xyz
  x,y,z
_cell_length_a                    32.6624
_cell_length_b                    28.8987
_cell_length_c                    30.0829
_cell_angle_alpha                 89.2409
_cell_angle_beta                  89.5713
_cell_angle_gamma                 89.1317
loop_
_atom_site_label
_atom_site_type_symbol
_atom_site_fract_x
_atom_site_fract_y
_atom_site_fract_z
_atom_site_U_iso_or_equiv
_atom_site_adp_type
_atom_site_occupancy
C1     C     0.08747   0.16708   0.25360   0.00000  Uiso   1.00
C2     C     0.24589   0.16670   0.24645   0.00000  Uiso   1.00
C3     C     0.09174   0.15285   0.02349   0.00000  Uiso   1.00
C4     C     0.24072   0.16616   0.47703   0.00000  Uiso   1.00
C5     C     0.02104   0.12662   0.25829   0.00000  Uiso   1.00
C6     C     0.31189   0.21010   0.24341   0.00000  Uiso   1.00
C7     C     0.31353   0.12608   0.24593   0.00000  Uiso   1.00
C8     C     0.02032   0.21057   0.25313   0.00000  Uiso   1.00
C9     C     0.29093   0.16759   0.24347   0.00000  Uiso   1.00
C10    C     0.04245   0.16833   0.25677   0.00000  Uiso   1.00
C11    C     0.14542   0.02596   0.21852   0.00000  Uiso   1.00
C12    C     0.18468   0.30805   0.28372   0.00000  Uiso   1.00
C13    C     0.18849   0.02432   0.28100   0.00000  Uiso   1.00
C14    C     0.14869   0.30960   0.21622   0.00000  Uiso   1.00
C15    C     0.16637   0.16685   0.16460   0.00000  Uiso   1.00
C16    C     0.16632   0.16646   0.33537   0.00000  Uiso   1.00
C17    C     0.20345   0.16773   0.40611   0.00000  Uiso   1.00
C18    C     0.12856   0.16177   0.09414   0.00000  Uiso   1.00
C19    C     0.16611   0.16558   0.38366   0.00000  Uiso   1.00
C20    C     0.16596   0.16679   0.11627   0.00000  Uiso   1.00
C21    C     0.12885   0.16216   0.40681   0.00000  Uiso   1.00
C22    C     0.20314   0.16790   0.09279   0.00000  Uiso   1.00
C23    C     0.12901   0.15518   0.45324   0.00000  Uiso   1.00
C24    C     0.20348   0.16103   0.04663   0.00000  Uiso   1.00
C25    C     0.16625   0.15974   0.47649   0.00000  Uiso   1.00
C26    C     0.16600   0.15978   0.02353   0.00000  Uiso   1.00
C27    C     0.20372   0.16552   0.45297   0.00000  Uiso   1.00
C28    C     0.12838   0.15867   0.04726   0.00000  Uiso   1.00
C29    C     0.09314   0.14511   0.47761   0.00000  Uiso   1.00
C30    C     0.24021   0.15622   0.02247   0.00000  Uiso   1.00
Cu31   Cu    0.16667   0.21355   0.25000   0.00000  Uiso   1.00
Cu32   Cu    0.16667   0.11978   0.25000   0.00000  Uiso   1.00
N33    N     0.16667   0.28402   0.25000   0.00000  Uiso   1.00
N34    N     0.16667   0.04931   0.25000   0.00000  Uiso   1.00
O35    O     0.10655   0.20625   0.25000   0.00000  Uiso   1.00
O36    O     0.22679   0.12709   0.25001   0.00000  Uiso   1.00
O37    O     0.22679   0.20625   0.25001   0.00000  Uiso   1.00
O38    O     0.10655   0.12709   0.25000   0.00000  Uiso   1.00
O39    O     0.16666   0.20627   0.18513   0.00000  Uiso   1.00
O40    O     0.16668   0.12707   0.31487   0.00000  Uiso   1.00
O41    O     0.16668   0.20627   0.31487   0.00000  Uiso   1.00
O42    O     0.16666   0.12707   0.18513   0.00000  Uiso   1.00
O43    O     0.23871   0.17821   0.38238   0.00000  Uiso   1.00
C44    C     0.25774   0.13703   0.36773   0.00000  Uiso   1.00
H45    H     0.24336   0.12594   0.33665   0.00000  Uiso   1.00
H46    H     0.25719   0.10856   0.39310   0.00000  Uiso   1.00
H47    H     0.29031   0.14425   0.35995   0.00000  Uiso   1.00
O48    O     0.09281   0.15556   0.11859   0.00000  Uiso   1.00
C49    C     0.07740   0.19880   0.13315   0.00000  Uiso   1.00
H50    H     0.08367   0.22798   0.10966   0.00000  Uiso   1.00
H51    H     0.08982   0.20692   0.16611   0.00000  Uiso   1.00
H52    H     0.04369   0.19642   0.13710   0.00000  Uiso   1.00
I53    I     0.07484   0.18568   0.37274   0.00000  Uiso   1.00
I54    I     0.25635   0.19102   0.12646   0.00000  Uiso   1.00
I55    I     0.04532   0.10325   0.45217   0.00000  Uiso   1.00
I56    I     0.28837   0.11149   0.04542   0.00000  Uiso   1.00
O57    O     0.05432   0.15357   0.04518   0.00000  Uiso   1.00
C58    C     0.03430   0.19590   0.03442   0.00000  Uiso   1.00
H59    H     0.02378   0.19591   0.49951   0.00000  Uiso   1.00
H60    H     0.05419   0.22632   0.03947   0.00000  Uiso   1.00
H61    H     0.00713   0.20020   0.05635   0.00000  Uiso   1.00
O62    O     0.27807   0.17201   0.45609   0.00000  Uiso   1.00
C63    C     0.28664   0.21977   0.45580   0.00000  Uiso   1.00
H64    H     0.29021   0.23280   0.49018   0.00000  Uiso   1.00
H65    H     0.26252   0.24050   0.43830   0.00000  Uiso   1.00
H66    H     0.31584   0.22526   0.43755   0.00000  Uiso   1.00
I67    I     0.04326   0.06896   0.29625   0.00000  Uiso   1.00
I68    I     0.28504   0.27292   0.21742   0.00000  Uiso   1.00
I69    I     0.29381   0.06680   0.21174   0.00000  Uiso   1.00
I70    I     0.04541   0.27502   0.27336   0.00000  Uiso   1.00
O71    O     0.12462   0.05186   0.18648   0.00000  Uiso   1.00
C72    C     0.08358   0.03791   0.18231   0.00000  Uiso   1.00
H73    H     0.06429   0.06915   0.17574   0.00000  Uiso   1.00
H74    H     0.07108   0.02067   0.21256   0.00000  Uiso   1.00
H75    H     0.08056   0.01486   0.15336   0.00000  Uiso   1.00
O76    O     0.20093   0.28394   0.31956   0.00000  Uiso   1.00
C77    C     0.17656   0.29308   0.35765   0.00000  Uiso   1.00
H78    H     0.18728   0.27025   0.38525   0.00000  Uiso   1.00
H79    H     0.14370   0.28542   0.35189   0.00000  Uiso   1.00
H80    H     0.17954   0.32931   0.36886   0.00000  Uiso   1.00
O81    O     0.21174   0.04858   0.31110   0.00000  Uiso   1.00
C82    C     0.25129   0.02865   0.31692   0.00000  Uiso   1.00
H83    H     0.27412   0.05653   0.31765   0.00000  Uiso   1.00
H84    H     0.26119   0.00509   0.28992   0.00000  Uiso   1.00
H85    H     0.25284   0.01009   0.34939   0.00000  Uiso   1.00
O86    O     0.13279   0.28703   0.18023   0.00000  Uiso   1.00
C87    C     0.15821   0.29528   0.14273   0.00000  Uiso   1.00
H88    H     0.14888   0.27212   0.11565   0.00000  Uiso   1.00
H89    H     0.19104   0.28742   0.14991   0.00000  Uiso   1.00
H90    H     0.15479   0.33134   0.12999   0.00000  Uiso   1.00
C91    C     0.42080   0.16708   0.25360   0.00000  Uiso   1.00
C92    C     0.57923   0.16670   0.24645   0.00000  Uiso   1.00
C93    C     0.42507   0.15285   0.02349   0.00000  Uiso   1.00
C94    C     0.57405   0.16616   0.47703   0.00000  Uiso   1.00
C95    C     0.35437   0.12662   0.25829   0.00000  Uiso   1.00
C96    C     0.64523   0.21010   0.24341   0.00000  Uiso   1.00
C97    C     0.64687   0.12608   0.24593   0.00000  Uiso   1.00
C98    C     0.35365   0.21057   0.25313   0.00000  Uiso   1.00
C99    C     0.62427   0.16759   0.24347   0.00000  Uiso   1.00
C100   C     0.37579   0.16833   0.25677   0.00000  Uiso   1.00
C101   C     0.47875   0.02596   0.21852   0.00000  Uiso   1.00
C102   C     0.51801   0.30805   0.28372   0.00000  Uiso   1.00
C103   C     0.52182   0.02432   0.28100   0.00000  Uiso   1.00
C104   C     0.48202   0.30960   0.21622   0.00000  Uiso   1.00
C105   C     0.49970   0.16685   0.16460   0.00000  Uiso   1.00
C106   C     0.49965   0.16646   0.33537   0.00000  Uiso   1.00
C107   C     0.53678   0.16773   0.40611   0.00000  Uiso   1.00
C108   C     0.46189   0.16177   0.09414   0.00000  Uiso   1.00
C109   C     0.49945   0.16558   0.38366   0.00000  Uiso   1.00
C110   C     0.49929   0.16679   0.11627   0.00000  Uiso   1.00
C111   C     0.46219   0.16216   0.40681   0.00000  Uiso   1.00
C112   C     0.53648   0.16790   0.09279   0.00000  Uiso   1.00
C113   C     0.46234   0.15518   0.45324   0.00000  Uiso   1.00
C114   C     0.53682   0.16103   0.04663   0.00000  Uiso   1.00
C115   C     0.49958   0.15974   0.47649   0.00000  Uiso   1.00
C116   C     0.49933   0.15978   0.02353   0.00000  Uiso   1.00
C117   C     0.53706   0.16552   0.45297   0.00000  Uiso   1.00
C118   C     0.46171   0.15867   0.04726   0.00000  Uiso   1.00
C119   C     0.42647   0.14511   0.47761   0.00000  Uiso   1.00
C120   C     0.57354   0.15622   0.02247   0.00000  Uiso   1.00
Cu121  Cu    0.50000   0.21355   0.25000   0.00000  Uiso   1.00
Cu122  Cu    0.50000   0.11978   0.25000   0.00000  Uiso   1.00
N123   N     0.50000   0.28402   0.25000   0.00000  Uiso   1.00
N124   N     0.50000   0.04931   0.25000   0.00000  Uiso   1.00
O125   O     0.43988   0.20625   0.25000   0.00000  Uiso   1.00
O126   O     0.56012   0.12709   0.25001   0.00000  Uiso   1.00
O127   O     0.56012   0.20625   0.25001   0.00000  Uiso   1.00
O128   O     0.43988   0.12709   0.25000   0.00000  Uiso   1.00
O129   O     0.49999   0.20627   0.18513   0.00000  Uiso   1.00
O130   O     0.50001   0.12707   0.31487   0.00000  Uiso   1.00
O131   O     0.50001   0.20627   0.31487   0.00000  Uiso   1.00
O132   O     0.49999   0.12707   0.18513   0.00000  Uiso   1.00
O133   O     0.57205   0.17821   0.38238   0.00000  Uiso   1.00
C134   C     0.59108   0.13703   0.36773   0.00000  Uiso   1.00
H135   H     0.57669   0.12594   0.33665   0.00000  Uiso   1.00
H136   H     0.59053   0.10856   0.39310   0.00000  Uiso   1.00
H137   H     0.62364   0.14425   0.35995   0.00000  Uiso   1.00
O138   O     0.42615   0.15556   0.11859   0.00000  Uiso   1.00
C139   C     0.41073   0.19880   0.13315   0.00000  Uiso   1.00
H140   H     0.41700   0.22798   0.10966   0.00000  Uiso   1.00
H141   H     0.42315   0.20692   0.16611   0.00000  Uiso   1.00
H142   H     0.37702   0.19642   0.13710   0.00000  Uiso   1.00
I143   I     0.40817   0.18568   0.37274   0.00000  Uiso   1.00
I144   I     0.58969   0.19102   0.12646   0.00000  Uiso   1.00
I145   I     0.37866   0.10325   0.45217   0.00000  Uiso   1.00
I146   I     0.62171   0.11149   0.04542   0.00000  Uiso   1.00
O147   O     0.38765   0.15357   0.04518   0.00000  Uiso   1.00
C148   C     0.36764   0.19590   0.03442   0.00000  Uiso   1.00
H149   H     0.35711   0.19591   0.49951   0.00000  Uiso   1.00
H150   H     0.38752   0.22632   0.03947   0.00000  Uiso   1.00
H151   H     0.34046   0.20020   0.05635   0.00000  Uiso   1.00
O152   O     0.61141   0.17201   0.45609   0.00000  Uiso   1.00
C153   C     0.61997   0.21977   0.45580   0.00000  Uiso   1.00
H154   H     0.62354   0.23280   0.49018   0.00000  Uiso   1.00
H155   H     0.59586   0.24050   0.43830   0.00000  Uiso   1.00
H156   H     0.64917   0.22526   0.43755   0.00000  Uiso   1.00
I157   I     0.37659   0.06896   0.29625   0.00000  Uiso   1.00
I158   I     0.61838   0.27292   0.21742   0.00000  Uiso   1.00
I159   I     0.62714   0.06680   0.21174   0.00000  Uiso   1.00
I160   I     0.37874   0.27502   0.27336   0.00000  Uiso   1.00
O161   O     0.45796   0.05186   0.18648   0.00000  Uiso   1.00
C162   C     0.41692   0.03791   0.18231   0.00000  Uiso   1.00
H163   H     0.39762   0.06915   0.17574   0.00000  Uiso   1.00
H164   H     0.40442   0.02067   0.21256   0.00000  Uiso   1.00
H165   H     0.41389   0.01486   0.15336   0.00000  Uiso   1.00
O166   O     0.53426   0.28394   0.31956   0.00000  Uiso   1.00
C167   C     0.50989   0.29308   0.35765   0.00000  Uiso   1.00
H168   H     0.52062   0.27025   0.38525   0.00000  Uiso   1.00
H169   H     0.47703   0.28542   0.35189   0.00000  Uiso   1.00
H170   H     0.51287   0.32931   0.36886   0.00000  Uiso   1.00
O171   O     0.54508   0.04858   0.31110   0.00000  Uiso   1.00
C172   C     0.58462   0.02865   0.31692   0.00000  Uiso   1.00
H173   H     0.60746   0.05653   0.31765   0.00000  Uiso   1.00
H174   H     0.59453   0.00509   0.28992   0.00000  Uiso   1.00
H175   H     0.58618   0.01009   0.34939   0.00000  Uiso   1.00
O176   O     0.46612   0.28703   0.18023   0.00000  Uiso   1.00
C177   C     0.49155   0.29528   0.14273   0.00000  Uiso   1.00
H178   H     0.48221   0.27212   0.11565   0.00000  Uiso   1.00
H179   H     0.52437   0.28742   0.14991   0.00000  Uiso   1.00
H180   H     0.48812   0.33134   0.12999   0.00000  Uiso   1.00
C181   C     0.75413   0.16708   0.25360   0.00000  Uiso   1.00
C182   C     0.91256   0.16670   0.24645   0.00000  Uiso   1.00
C183   C     0.75841   0.15285   0.02349   0.00000  Uiso   1.00
C184   C     0.90739   0.16616   0.47703   0.00000  Uiso   1.00
C185   C     0.68770   0.12662   0.25829   0.00000  Uiso   1.00
C186   C     0.97856   0.21010   0.24341   0.00000  Uiso   1.00
C187   C     0.98020   0.12608   0.24593   0.00000  Uiso   1.00
C188   C     0.68698   0.21057   0.25313   0.00000  Uiso   1.00
C189   C     0.95760   0.16759   0.24347   0.00000  Uiso   1.00
C190   C     0.70912   0.16833   0.25677   0.00000  Uiso   1.00
C191   C     0.81209   0.02596   0.21852   0.00000  Uiso   1.00
C192   C     0.85135   0.30805   0.28372   0.00000  Uiso   1.00
C193   C     0.85515   0.02432   0.28100   0.00000  Uiso   1.00
C194   C     0.81536   0.30960   0.21622   0.00000  Uiso   1.00
C195   C     0.83304   0.16685   0.16460   0.00000  Uiso   1.00
C196   C     0.83299   0.16646   0.33537   0.00000  Uiso   1.00
C197   C     0.87011   0.16773   0.40611   0.00000  Uiso   1.00
C198   C     0.79523   0.16177   0.09414   0.00000  Uiso   1.00
C199   C     0.83278   0.16558   0.38366   0.00000  Uiso   1.00
C200   C     0.83263   0.16679   0.11627   0.00000  Uiso   1.00
C201   C     0.79552   0.16216   0.40681   0.00000  Uiso   1.00
C202   C     0.86981   0.16790   0.09279   0.00000  Uiso   1.00
C203   C     0.79568   0.15518   0.45324   0.00000  Uiso   1.00
C204   C     0.87015   0.16103   0.04663   0.00000  Uiso   1.00
C205   C     0.83292   0.15974   0.47649   0.00000  Uiso   1.00
C206   C     0.83266   0.15978   0.02353   0.00000  Uiso   1.00
C207   C     0.87039   0.16552   0.45297   0.00000  Uiso   1.00
C208   C     0.79504   0.15867   0.04726   0.00000  Uiso   1.00
C209   C     0.75980   0.14511   0.47761   0.00000  Uiso   1.00
C210   C     0.90687   0.15622   0.02247   0.00000  Uiso   1.00
Cu211  Cu    0.83333   0.21355   0.25000   0.00000  Uiso   1.00
Cu212  Cu    0.83333   0.11978   0.25000   0.00000  Uiso   1.00
N213   N     0.83333   0.28402   0.25000   0.00000  Uiso   1.00
N214   N     0.83333   0.04931   0.25000   0.00000  Uiso   1.00
O215   O     0.77321   0.20625   0.25000   0.00000  Uiso   1.00
O216   O     0.89345   0.12709   0.25001   0.00000  Uiso   1.00
O217   O     0.89345   0.20625   0.25001   0.00000  Uiso   1.00
O218   O     0.77321   0.12709   0.25000   0.00000  Uiso   1.00
O219   O     0.83332   0.20627   0.18513   0.00000  Uiso   1.00
O220   O     0.83334   0.12707   0.31487   0.00000  Uiso   1.00
O221   O     0.83334   0.20627   0.31487   0.00000  Uiso   1.00
O222   O     0.83332   0.12707   0.18513   0.00000  Uiso   1.00
O223   O     0.90538   0.17821   0.38238   0.00000  Uiso   1.00
C224   C     0.92441   0.13703   0.36773   0.00000  Uiso   1.00
H225   H     0.91003   0.12594   0.33665   0.00000  Uiso   1.00
H226   H     0.92386   0.10856   0.39310   0.00000  Uiso   1.00
H227   H     0.95697   0.14425   0.35995   0.00000  Uiso   1.00
O228   O     0.75948   0.15556   0.11859   0.00000  Uiso   1.00
C229   C     0.74406   0.19880   0.13315   0.00000  Uiso   1.00
H230   H     0.75033   0.22798   0.10966   0.00000  Uiso   1.00
H231   H     0.75649   0.20692   0.16611   0.00000  Uiso   1.00
H232   H     0.71036   0.19642   0.13710   0.00000  Uiso   1.00
I233   I     0.74151   0.18568   0.37274   0.00000  Uiso   1.00
I234   I     0.92302   0.19102   0.12646   0.00000  Uiso   1.00
I235   I     0.71199   0.10325   0.45217   0.00000  Uiso   1.00
I236   I     0.95504   0.11149   0.04542   0.00000  Uiso   1.00
O237   O     0.72098   0.15357   0.04518   0.00000  Uiso   1.00
C238   C     0.70097   0.19590   0.03442   0.00000  Uiso   1.00
H239   H     0.69045   0.19591   0.49951   0.00000  Uiso   1.00
H240   H     0.72086   0.22632   0.03947   0.00000  Uiso   1.00
H241   H     0.67380   0.20020   0.05635   0.00000  Uiso   1.00
O242   O     0.94474   0.17201   0.45609   0.00000  Uiso   1.00
C243   C     0.95331   0.21977   0.45580   0.00000  Uiso   1.00
H244   H     0.95687   0.23280   0.49018   0.00000  Uiso   1.00
H245   H     0.92919   0.24050   0.43830   0.00000  Uiso   1.00
H246   H     0.98251   0.22526   0.43755   0.00000  Uiso   1.00
I247   I     0.70993   0.06896   0.29625   0.00000  Uiso   1.00
I248   I     0.95171   0.27292   0.21742   0.00000  Uiso   1.00
I249   I     0.96048   0.06680   0.21174   0.00000  Uiso   1.00
I250   I     0.71208   0.27502   0.27336   0.00000  Uiso   1.00
O251   O     0.79129   0.05186   0.18648   0.00000  Uiso   1.00
C252   C     0.75025   0.03791   0.18231   0.00000  Uiso   1.00
H253   H     0.73095   0.06915   0.17574   0.00000  Uiso   1.00
H254   H     0.73775   0.02067   0.21256   0.00000  Uiso   1.00
H255   H     0.74723   0.01486   0.15336   0.00000  Uiso   1.00
O256   O     0.86759   0.28394   0.31956   0.00000  Uiso   1.00
C257   C     0.84323   0.29308   0.35765   0.00000  Uiso   1.00
H258   H     0.85395   0.27025   0.38525   0.00000  Uiso   1.00
H259   H     0.81037   0.28542   0.35189   0.00000  Uiso   1.00
H260   H     0.84621   0.32931   0.36886   0.00000  Uiso   1.00
O261   O     0.87841   0.04858   0.31110   0.00000  Uiso   1.00
C262   C     0.91796   0.02865   0.31692   0.00000  Uiso   1.00
H263   H     0.94079   0.05653   0.31765   0.00000  Uiso   1.00
H264   H     0.92786   0.00509   0.28992   0.00000  Uiso   1.00
H265   H     0.91951   0.01009   0.34939   0.00000  Uiso   1.00
O266   O     0.79945   0.28703   0.18023   0.00000  Uiso   1.00
C267   C     0.82488   0.29528   0.14273   0.00000  Uiso   1.00
H268   H     0.81555   0.27212   0.11565   0.00000  Uiso   1.00
H269   H     0.85771   0.28742   0.14991   0.00000  Uiso   1.00
H270   H     0.82145   0.33134   0.12999   0.00000  Uiso   1.00
C271   C     0.08747   0.50042   0.25360   0.00000  Uiso   1.00
C272   C     0.24589   0.50004   0.24645   0.00000  Uiso   1.00
C273   C     0.09174   0.48618   0.02349   0.00000  Uiso   1.00
C274   C     0.24072   0.49950   0.47703   0.00000  Uiso   1.00
C275   C     0.02104   0.45995   0.25829   0.00000  Uiso   1.00
C276   C     0.31189   0.54343   0.24341   0.00000  Uiso   1.00
C277   C     0.31353   0.45941   0.24593   0.00000  Uiso   1.00
C278   C     0.02032   0.54390   0.25313   0.00000  Uiso   1.00
C279   C     0.29093   0.50092   0.24347   0.00000  Uiso   1.00
C280   C     0.04245   0.50166   0.25677   0.00000  Uiso   1.00
C281   C     0.14542   0.35930   0.21852   0.00000  Uiso   1.00
C282   C     0.18468   0.64139   0.28372   0.00000  Uiso   1.00
C283   C     0.18849   0.35766   0.28100   0.00000  Uiso   1.00
C284   C     0.14869   0.64294   0.21622   0.00000  Uiso   1.00
C285   C     0.16637   0.50018   0.16460   0.00000  Uiso   1.00
C286   C     0.16632   0.49979   0.33537   0.00000  Uiso   1.00
C287   C     0.20345   0.50106   0.40611   0.00000  Uiso   1.00
C288   C     0.12856   0.49510   0.09414   0.00000  Uiso   1.00
C289   C     0.16611   0.49891   0.38366   0.00000  Uiso   1.00
C290   C     0.16596   0.50013   0.11627   0.00000  Uiso   1.00
C291   C     0.12885   0.49549   0.40681   0.00000  Uiso   1.00
C292   C     0.20314   0.50123   0.09279   0.00000  Uiso   1.00
C293   C     0.12901   0.48851   0.45324   0.00000  Uiso   1.00
C294   C     0.20348   0.49437   0.04663   0.00000  Uiso   1.00
C295   C     0.16625   0.49308   0.47649   0.00000  Uiso   1.00
C296   C     0.16600   0.49312   0.02353   0.00000  Uiso   1.00
C297   C     0.20372   0.49886   0.45297   0.00000  Uiso   1.00
C298   C     0.12838   0.49200   0.04726   0.00000  Uiso   1.00
C299   C     0.09314   0.47845   0.47761   0.00000  Uiso   1.00
C300   C     0.24021   0.48955   0.02247   0.00000  Uiso   1.00
Cu301  Cu    0.16667   0.54689   0.25000   0.00000  Uiso   1.00
Cu302  Cu    0.16667   0.45311   0.25000   0.00000  Uiso   1.00
N303   N     0.16667   0.61736   0.25000   0.00000  Uiso   1.00
N304   N     0.16667   0.38264   0.25000   0.00000  Uiso   1.00
O305   O     0.10655   0.53958   0.25000   0.00000  Uiso   1.00
O306   O     0.22679   0.46042   0.25001   0.00000  Uiso   1.00
O307   O     0.22679   0.53958   0.25001   0.00000  Uiso   1.00
O308   O     0.10655   0.46042   0.25000   0.00000  Uiso   1.00
O309   O     0.16666   0.53960   0.18513   0.00000  Uiso   1.00
O310   O     0.16668   0.46040   0.31487   0.00000  Uiso   1.00
O311   O     0.16668   0.53960   0.31487   0.00000  Uiso   1.00
O312   O     0.16666   0.46040   0.18513   0.00000  Uiso   1.00
O313   O     0.23871   0.51154   0.38238   0.00000  Uiso   1.00
C314   C     0.25774   0.47037   0.36773   0.00000  Uiso   1.00
H315   H     0.24336   0.45928   0.33665   0.00000  Uiso   1.00
H316   H     0.25719   0.44189   0.39310   0.00000  Uiso   1.00
H317   H     0.29031   0.47759   0.35995   0.00000  Uiso   1.00
O318   O     0.09281   0.48889   0.11859   0.00000  Uiso   1.00
C319   C     0.07740   0.53213   0.13315   0.00000  Uiso   1.00
H320   H     0.08367   0.56131   0.10966   0.00000  Uiso   1.00
H321   H     0.08982   0.54026   0.16611   0.00000  Uiso   1.00
H322   H     0.04369   0.52976   0.13710   0.00000  Uiso   1.00
I323   I     0.07484   0.51901   0.37274   0.00000  Uiso   1.00
I324   I     0.25635   0.52435   0.12646   0.00000  Uiso   1.00
I325   I     0.04532   0.43658   0.45217   0.00000  Uiso   1.00
I326   I     0.28837   0.44482   0.04542   0.00000  Uiso   1.00
O327   O     0.05432   0.48691   0.04518   0.00000  Uiso   1.00
C328   C     0.03430   0.52924   0.03442   0.00000  Uiso   1.00
H329   H     0.02378   0.52924   0.49951   0.00000  Uiso   1.00
H330   H     0.05419   0.55965   0.03947   0.00000  Uiso   1.00
H331   H     0.00713   0.53353   0.05635   0.00000  Uiso   1.00
O332   O     0.27807   0.50534   0.45609   0.00000  Uiso   1.00
C333   C     0.28664   0.55310   0.45580   0.00000  Uiso   1.00
H334   H     0.29021   0.56613   0.49018   0.00000  Uiso   1.00
H335   H     0.26252   0.57383   0.43830   0.00000  Uiso   1.00
H336   H     0.31584   0.55860   0.43755   0.00000  Uiso   1.00
I337   I     0.04326   0.40229   0.29625   0.00000  Uiso   1.00
I338   I     0.28504   0.60625   0.21742   0.00000  Uiso   1.00
I339   I     0.29381   0.40013   0.21174   0.00000  Uiso   1.00
I340   I     0.04541   0.60835   0.27336   0.00000  Uiso   1.00
O341   O     0.12462   0.38519   0.18648   0.00000  Uiso   1.00
C342   C     0.08358   0.37125   0.18231   0.00000  Uiso   1.00
H343   H     0.06429   0.40248   0.17574   0.00000  Uiso   1.00
H344   H     0.07108   0.35400   0.21256   0.00000  Uiso   1.00
H345   H     0.08056   0.34820   0.15336   0.00000  Uiso   1.00
O346   O     0.20093   0.61728   0.31956   0.00000  Uiso   1.00
C347   C     0.17656   0.62641   0.35765   0.00000  Uiso   1.00
H348   H     0.18728   0.60358   0.38525   0.00000  Uiso   1.00
H349   H     0.14370   0.61876   0.35189   0.00000  Uiso   1.00
H350   H     0.17954   0.66265   0.36886   0.00000  Uiso   1.00
O351   O     0.21174   0.38191   0.31110   0.00000  Uiso   1.00
C352   C     0.25129   0.36199   0.31692   0.00000  Uiso   1.00
H353   H     0.27412   0.38987   0.31765   0.00000  Uiso   1.00
H354   H     0.26119   0.33842   0.28992   0.00000  Uiso   1.00
H355   H     0.25284   0.34342   0.34939   0.00000  Uiso   1.00
O356   O     0.13279   0.62037   0.18023   0.00000  Uiso   1.00
C357   C     0.15821   0.62862   0.14273   0.00000  Uiso   1.00
H358   H     0.14888   0.60545   0.11565   0.00000  Uiso   1.00
H359   H     0.19104   0.62075   0.14991   0.00000  Uiso   1.00
H360   H     0.15479   0.66467   0.12999   0.00000  Uiso   1.00
C361   C     0.42080   0.50042   0.25360   0.00000  Uiso   1.00
C362   C     0.57923   0.50004   0.24645   0.00000  Uiso   1.00
C363   C     0.42507   0.48618   0.02349   0.00000  Uiso   1.00
C364   C     0.57405   0.49950   0.47703   0.00000  Uiso   1.00
C365   C     0.35437   0.45995   0.25829   0.00000  Uiso   1.00
C366   C     0.64523   0.54343   0.24341   0.00000  Uiso   1.00
C367   C     0.64687   0.45941   0.24593   0.00000  Uiso   1.00
C368   C     0.35365   0.54390   0.25313   0.00000  Uiso   1.00
C369   C     0.62427   0.50092   0.24347   0.00000  Uiso   1.00
C370   C     0.37579   0.50166   0.25677   0.00000  Uiso   1.00
C371   C     0.47875   0.35930   0.21852   0.00000  Uiso   1.00
C372   C     0.51801   0.64139   0.28372   0.00000  Uiso   1.00
C373   C     0.52182   0.35766   0.28100   0.00000  Uiso   1.00
C374   C     0.48202   0.64294   0.21622   0.00000  Uiso   1.00
C375   C     0.49970   0.50018   0.16460   0.00000  Uiso   1.00
C376   C     0.49965   0.49979   0.33537   0.00000  Uiso   1.00
C377   C     0.53678   0.50106   0.40611   0.00000  Uiso   1.00
C378   C     0.46189   0.49510   0.09414   0.00000  Uiso   1.00
C379   C     0.49945   0.49891   0.38366   0.00000  Uiso   1.00
C380   C     0.49929   0.50013   0.11627   0.00000  Uiso   1.00
C381   C     0.46219   0.49549   0.40681   0.00000  Uiso   1.00
C382   C     0.53648   0.50123   0.09279   0.00000  Uiso   1.00
C383   C     0.46234   0.48851   0.45324   0.00000  Uiso   1.00
C384   C     0.53682   0.49437   0.04663   0.00000  Uiso   1.00
C385   C     0.49958   0.49308   0.47649   0.00000  Uiso   1.00
C386   C     0.49933   0.49312   0.02353   0.00000  Uiso   1.00
C387   C     0.53706   0.49886   0.45297   0.00000  Uiso   1.00
C388   C     0.46171   0.49200   0.04726   0.00000  Uiso   1.00
C389   C     0.42647   0.47845   0.47761   0.00000  Uiso   1.00
C390   C     0.57354   0.48955   0.02247   0.00000  Uiso   1.00
Cu391  Cu    0.50000   0.54689   0.25000   0.00000  Uiso   1.00
Cu392  Cu    0.50000   0.45311   0.25000   0.00000  Uiso   1.00
N393   N     0.50000   0.61736   0.25000   0.00000  Uiso   1.00
N394   N     0.50000   0.38264   0.25000   0.00000  Uiso   1.00
O395   O     0.43988   0.53958   0.25000   0.00000  Uiso   1.00
O396   O     0.56012   0.46042   0.25001   0.00000  Uiso   1.00
O397   O     0.56012   0.53958   0.25001   0.00000  Uiso   1.00
O398   O     0.43988   0.46042   0.25000   0.00000  Uiso   1.00
O399   O     0.49999   0.53960   0.18513   0.00000  Uiso   1.00
O400   O     0.50001   0.46040   0.31487   0.00000  Uiso   1.00
O401   O     0.50001   0.53960   0.31487   0.00000  Uiso   1.00
O402   O     0.49999   0.46040   0.18513   0.00000  Uiso   1.00
O403   O     0.57205   0.51154   0.38238   0.00000  Uiso   1.00
C404   C     0.59108   0.47037   0.36773   0.00000  Uiso   1.00
H405   H     0.57669   0.45928   0.33665   0.00000  Uiso   1.00
H406   H     0.59053   0.44189   0.39310   0.00000  Uiso   1.00
H407   H     0.62364   0.47759   0.35995   0.00000  Uiso   1.00
O408   O     0.42615   0.48889   0.11859   0.00000  Uiso   1.00
C409   C     0.41073   0.53213   0.13315   0.00000  Uiso   1.00
H410   H     0.41700   0.56131   0.10966   0.00000  Uiso   1.00
H411   H     0.42315   0.54026   0.16611   0.00000  Uiso   1.00
H412   H     0.37702   0.52976   0.13710   0.00000  Uiso   1.00
I413   I     0.40817   0.51901   0.37274   0.00000  Uiso   1.00
I414   I     0.58969   0.52435   0.12646   0.00000  Uiso   1.00
I415   I     0.37866   0.43658   0.45217   0.00000  Uiso   1.00
I416   I     0.62171   0.44482   0.04542   0.00000  Uiso   1.00
O417   O     0.38765   0.48691   0.04518   0.00000  Uiso   1.00
C418   C     0.36764   0.52924   0.03442   0.00000  Uiso   1.00
H419   H     0.35711   0.52924   0.49951   0.00000  Uiso   1.00
H420   H     0.38752   0.55965   0.03947   0.00000  Uiso   1.00
H421   H     0.34046   0.53353   0.05635   0.00000  Uiso   1.00
O422   O     0.61141   0.50534   0.45609   0.00000  Uiso   1.00
C423   C     0.61997   0.55310   0.45580   0.00000  Uiso   1.00
H424   H     0.62354   0.56613   0.49018   0.00000  Uiso   1.00
H425   H     0.59586   0.57383   0.43830   0.00000  Uiso   1.00
H426   H     0.64917   0.55860   0.43755   0.00000  Uiso   1.00
I427   I     0.37659   0.40229   0.29625   0.00000  Uiso   1.00
I428   I     0.61838   0.60625   0.21742   0.00000  Uiso   1.00
I429   I     0.62714   0.40013   0.21174   0.00000  Uiso   1.00
I430   I     0.37874   0.60835   0.27336   0.00000  Uiso   1.00
O431   O     0.45796   0.38519   0.18648   0.00000  Uiso   1.00
C432   C     0.41692   0.37125   0.18231   0.00000  Uiso   1.00
H433   H     0.39762   0.40248   0.17574   0.00000  Uiso   1.00
H434   H     0.40442   0.35400   0.21256   0.00000  Uiso   1.00
H435   H     0.41389   0.34820   0.15336   0.00000  Uiso   1.00
O436   O     0.53426   0.61728   0.31956   0.00000  Uiso   1.00
C437   C     0.50989   0.62641   0.35765   0.00000  Uiso   1.00
H438   H     0.52062   0.60358   0.38525   0.00000  Uiso   1.00
H439   H     0.47703   0.61876   0.35189   0.00000  Uiso   1.00
H440   H     0.51287   0.66265   0.36886   0.00000  Uiso   1.00
O441   O     0.54508   0.38191   0.31110   0.00000  Uiso   1.00
C442   C     0.58462   0.36199   0.31692   0.00000  Uiso   1.00
H443   H     0.60746   0.38987   0.31765   0.00000  Uiso   1.00
H444   H     0.59453   0.33842   0.28992   0.00000  Uiso   1.00
H445   H     0.58618   0.34342   0.34939   0.00000  Uiso   1.00
O446   O     0.46612   0.62037   0.18023   0.00000  Uiso   1.00
C447   C     0.49155   0.62862   0.14273   0.00000  Uiso   1.00
H448   H     0.48221   0.60545   0.11565   0.00000  Uiso   1.00
H449   H     0.52437   0.62075   0.14991   0.00000  Uiso   1.00
H450   H     0.48812   0.66467   0.12999   0.00000  Uiso   1.00
C451   C     0.75413   0.50042   0.25360   0.00000  Uiso   1.00
C452   C     0.91256   0.50004   0.24645   0.00000  Uiso   1.00
C453   C     0.75841   0.48618   0.02349   0.00000  Uiso   1.00
C454   C     0.90739   0.49950   0.47703   0.00000  Uiso   1.00
C455   C     0.68770   0.45995   0.25829   0.00000  Uiso   1.00
C456   C     0.97856   0.54343   0.24341   0.00000  Uiso   1.00
C457   C     0.98020   0.45941   0.24593   0.00000  Uiso   1.00
C458   C     0.68698   0.54390   0.25313   0.00000  Uiso   1.00
C459   C     0.95760   0.50092   0.24347   0.00000  Uiso   1.00
C460   C     0.70912   0.50166   0.25677   0.00000  Uiso   1.00
C461   C     0.81209   0.35930   0.21852   0.00000  Uiso   1.00
C462   C     0.85135   0.64139   0.28372   0.00000  Uiso   1.00
C463   C     0.85515   0.35766   0.28100   0.00000  Uiso   1.00
C464   C     0.81536   0.64294   0.21622   0.00000  Uiso   1.00
C465   C     0.83304   0.50018   0.16460   0.00000  Uiso   1.00
C466   C     0.83299   0.49979   0.33537   0.00000  Uiso   1.00
C467   C     0.87011   0.50106   0.40611   0.00000  Uiso   1.00
C468   C     0.79523   0.49510   0.09414   0.00000  Uiso   1.00
C469   C     0.83278   0.49891   0.38366   0.00000  Uiso   1.00
C470   C     0.83263   0.50013   0.11627   0.00000  Uiso   1.00
C471   C     0.79552   0.49549   0.40681   0.00000  Uiso   1.00
C472   C     0.86981   0.50123   0.09279   0.00000  Uiso   1.00
C473   C     0.79568   0.48851   0.45324   0.00000  Uiso   1.00
C474   C     0.87015   0.49437   0.04663   0.00000  Uiso   1.00
C475   C     0.83292   0.49308   0.47649   0.00000  Uiso   1.00
C476   C     0.83266   0.49312   0.02353   0.00000  Uiso   1.00
C477   C     0.87039   0.49886   0.45297   0.00000  Uiso   1.00
C478   C     0.79504   0.49200   0.04726   0.00000  Uiso   1.00
C479   C     0.75980   0.47845   0.47761   0.00000  Uiso   1.00
C480   C     0.90687   0.48955   0.02247   0.00000  Uiso   1.00
Cu481  Cu    0.83333   0.54689   0.25000   0.00000  Uiso   1.00
Cu482  Cu    0.83333   0.45311   0.25000   0.00000  Uiso   1.00
N483   N     0.83333   0.61736   0.25000   0.00000  Uiso   1.00
N484   N     0.83333   0.38264   0.25000   0.00000  Uiso   1.00
O485   O     0.77321   0.53958   0.25000   0.00000  Uiso   1.00
O486   O     0.89345   0.46042   0.25001   0.00000  Uiso   1.00
O487   O     0.89345   0.53958   0.25001   0.00000  Uiso   1.00
O488   O     0.77321   0.46042   0.25000   0.00000  Uiso   1.00
O489   O     0.83332   0.53960   0.18513   0.00000  Uiso   1.00
O490   O     0.83334   0.46040   0.31487   0.00000  Uiso   1.00
O491   O     0.83334   0.53960   0.31487   0.00000  Uiso   1.00
O492   O     0.83332   0.46040   0.18513   0.00000  Uiso   1.00
O493   O     0.90538   0.51154   0.38238   0.00000  Uiso   1.00
C494   C     0.92441   0.47037   0.36773   0.00000  Uiso   1.00
H495   H     0.91003   0.45928   0.33665   0.00000  Uiso   1.00
H496   H     0.92386   0.44189   0.39310   0.00000  Uiso   1.00
H497   H     0.95697   0.47759   0.35995   0.00000  Uiso   1.00
O498   O     0.75948   0.48889   0.11859   0.00000  Uiso   1.00
C499   C     0.74406   0.53213   0.13315   0.00000  Uiso   1.00
H500   H     0.75033   0.56131   0.10966   0.00000  Uiso   1.00
H501   H     0.75649   0.54026   0.16611   0.00000  Uiso   1.00
H502   H     0.71036   0.52976   0.13710   0.00000  Uiso   1.00
I503   I     0.74151   0.51901   0.37274   0.00000  Uiso   1.00
I504   I     0.92302   0.52435   0.12646   0.00000  Uiso   1.00
I505   I     0.71199   0.43658   0.45217   0.00000  Uiso   1.00
I506   I     0.95504   0.44482   0.04542   0.00000  Uiso   1.00
O507   O     0.72098   0.48691   0.04518   0.00000  Uiso   1.00
C508   C     0.70097   0.52924   0.03442   0.00000  Uiso   1.00
H509   H     0.69045   0.52924   0.49951   0.00000  Uiso   1.00
H510   H     0.72086   0.55965   0.03947   0.00000  Uiso   1.00
H511   H     0.67380   0.53353   0.05635   0.00000  Uiso   1.00
O512   O     0.94474   0.50534   0.45609   0.00000  Uiso   1.00
C513   C     0.95331   0.55310   0.45580   0.00000  Uiso   1.00
H514   H     0.95687   0.56613   0.49018   0.00000  Uiso   1.00
H515   H     0.92919   0.57383   0.43830   0.00000  Uiso   1.00
H516   H     0.98251   0.55860   0.43755   0.00000  Uiso   1.00
I517   I     0.70993   0.40229   0.29625   0.00000  Uiso   1.00
I518   I     0.95171   0.60625   0.21742   0.00000  Uiso   1.00
I519   I     0.96048   0.40013   0.21174   0.00000  Uiso   1.00
I520   I     0.71208   0.60835   0.27336   0.00000  Uiso   1.00
O521   O     0.79129   0.38519   0.18648   0.00000  Uiso   1.00
C522   C     0.75025   0.37125   0.18231   0.00000  Uiso   1.00
H523   H     0.73095   0.40248   0.17574   0.00000  Uiso   1.00
H524   H     0.73775   0.35400   0.21256   0.00000  Uiso   1.00
H525   H     0.74723   0.34820   0.15336   0.00000  Uiso   1.00
O526   O     0.86759   0.61728   0.31956   0.00000  Uiso   1.00
C527   C     0.84323   0.62641   0.35765   0.00000  Uiso   1.00
H528   H     0.85395   0.60358   0.38525   0.00000  Uiso   1.00
H529   H     0.81037   0.61876   0.35189   0.00000  Uiso   1.00
H530   H     0.84621   0.66265   0.36886   0.00000  Uiso   1.00
O531   O     0.87841   0.38191   0.31110   0.00000  Uiso   1.00
C532   C     0.91796   0.36199   0.31692   0.00000  Uiso   1.00
H533   H     0.94079   0.38987   0.31765   0.00000  Uiso   1.00
H534   H     0.92786   0.33842   0.28992   0.00000  Uiso   1.00
H535   H     0.91951   0.34342   0.34939   0.00000  Uiso   1.00
O536   O     0.79945   0.62037   0.18023   0.00000  Uiso   1.00
C537   C     0.82488   0.62862   0.14273   0.00000  Uiso   1.00
H538   H     0.81555   0.60545   0.11565   0.00000  Uiso   1.00
H539   H     0.85771   0.62075   0.14991   0.00000  Uiso   1.00
H540   H     0.82145   0.66467   0.12999   0.00000  Uiso   1.00
C541   C     0.08747   0.83375   0.25360   0.00000  Uiso   1.00
C542   C     0.24589   0.83337   0.24645   0.00000  Uiso   1.00
C543   C     0.09174   0.81951   0.02349   0.00000  Uiso   1.00
C544   C     0.24072   0.83283   0.47703   0.00000  Uiso   1.00
C545   C     0.02104   0.79328   0.25829   0.00000  Uiso   1.00
C546   C     0.31189   0.87677   0.24341   0.00000  Uiso   1.00
C547   C     0.31353   0.79275   0.24593   0.00000  Uiso   1.00
C548   C     0.02032   0.87724   0.25313   0.00000  Uiso   1.00
C549   C     0.29093   0.83425   0.24347   0.00000  Uiso   1.00
C550   C     0.04245   0.83500   0.25677   0.00000  Uiso   1.00
C551   C     0.14542   0.69263   0.21852   0.00000  Uiso   1.00
C552   C     0.18468   0.97472   0.28372   0.00000  Uiso   1.00
C553   C     0.18849   0.69099   0.28100   0.00000  Uiso   1.00
C554   C     0.14869   0.97627   0.21622   0.00000  Uiso   1.00
C555   C     0.16637   0.83352   0.16460   0.00000  Uiso   1.00
C556   C     0.16632   0.83312   0.33537   0.00000  Uiso   1.00
C557   C     0.20345   0.83440   0.40611   0.00000  Uiso   1.00
C558   C     0.12856   0.82844   0.09414   0.00000  Uiso   1.00
C559   C     0.16611   0.83225   0.38366   0.00000  Uiso   1.00
C560   C     0.16596   0.83346   0.11627   0.00000  Uiso   1.00
C561   C     0.12885   0.82883   0.40681   0.00000  Uiso   1.00
C562   C     0.20314   0.83457   0.09279   0.00000  Uiso   1.00
C563   C     0.12901   0.82184   0.45324   0.00000  Uiso   1.00
C564   C     0.20348   0.82770   0.04663   0.00000  Uiso   1.00
C565   C     0.16625   0.82641   0.47649   0.00000  Uiso   1.00
C566   C     0.16600   0.82645   0.02353   0.00000  Uiso   1.00
C567   C     0.20372   0.83219   0.45297   0.00000  Uiso   1.00
C568   C     0.12838   0.82533   0.04726   0.00000  Uiso   1.00
C569   C     0.09314   0.81178   0.47761   0.00000  Uiso   1.00
C570   C     0.24021   0.82289   0.02247   0.00000  Uiso   1.00
Cu571  Cu    0.16667   0.88022   0.25000   0.00000  Uiso   1.00
Cu572  Cu    0.16667   0.78645   0.25000   0.00000  Uiso   1.00
N573   N     0.16667   0.95069   0.25000   0.00000  Uiso   1.00
N574   N     0.16667   0.71598   0.25000   0.00000  Uiso   1.00
O575   O     0.10655   0.87291   0.25000   0.00000  Uiso   1.00
O576   O     0.22679   0.79375   0.25001   0.00000  Uiso   1.00
O577   O     0.22679   0.87291   0.25001   0.00000  Uiso   1.00
O578   O     0.10655   0.79375   0.25000   0.00000  Uiso   1.00
O579   O     0.16666   0.87293   0.18513   0.00000  Uiso   1.00
O580   O     0.16668   0.79373   0.31487   0.00000  Uiso   1.00
O581   O     0.16668   0.87293   0.31487   0.00000  Uiso   1.00
O582   O     0.16666   0.79373   0.18513   0.00000  Uiso   1.00
O583   O     0.23871   0.84487   0.38238   0.00000  Uiso   1.00
C584   C     0.25774   0.80370   0.36773   0.00000  Uiso   1.00
H585   H     0.24336   0.79261   0.33665   0.00000  Uiso   1.00
H586   H     0.25719   0.77523   0.39310   0.00000  Uiso   1.00
H587   H     0.29031   0.81092   0.35995   0.00000  Uiso   1.00
O588   O     0.09281   0.82222   0.11859   0.00000  Uiso   1.00
C589   C     0.07740   0.86546   0.13315   0.00000  Uiso   1.00
H590   H     0.08367   0.89464   0.10966   0.00000  Uiso   1.00
H591   H     0.08982   0.87359   0.16611   0.00000  Uiso   1.00
H592   H     0.04369   0.86309   0.13710   0.00000  Uiso   1.00
I593   I     0.07484   0.85235   0.37274   0.00000  Uiso   1.00
I594   I     0.25635   0.85769   0.12646   0.00000  Uiso   1.00
I595   I     0.04532   0.76991   0.45217   0.00000  Uiso   1.00
I596   I     0.28837   0.77815   0.04542   0.00000  Uiso   1.00
O597   O     0.05432   0.82024   0.04518   0.00000  Uiso   1.00
C598   C     0.03430   0.86257   0.03442   0.00000  Uiso   1.00
H599   H     0.02378   0.86257   0.49951   0.00000  Uiso   1.00
H600   H     0.05419   0.89299   0.03947   0.00000  Uiso   1.00
H601   H     0.00713   0.86687   0.05635   0.00000  Uiso   1.00
O602   O     0.27807   0.83868   0.45609   0.00000  Uiso   1.00
C603   C     0.28664   0.88643   0.45580   0.00000  Uiso   1.00
H604   H     0.29021   0.89946   0.49018   0.00000  Uiso   1.00
H605   H     0.26252   0.90717   0.43830   0.00000  Uiso   1.00
H606   H     0.31584   0.89193   0.43755   0.00000  Uiso   1.00
I607   I     0.04326   0.73563   0.29625   0.00000  Uiso   1.00
I608   I     0.28504   0.93958   0.21742   0.00000  Uiso   1.00
I609   I     0.29381   0.73347   0.21174   0.00000  Uiso   1.00
I610   I     0.04541   0.94168   0.27336   0.00000  Uiso   1.00
O611   O     0.12462   0.71853   0.18648   0.00000  Uiso   1.00
C612   C     0.08358   0.70458   0.18231   0.00000  Uiso   1.00
H613   H     0.06429   0.73582   0.17574   0.00000  Uiso   1.00
H614   H     0.07108   0.68734   0.21256   0.00000  Uiso   1.00
H615   H     0.08056   0.68153   0.15336   0.00000  Uiso   1.00
O616   O     0.20093   0.95061   0.31956   0.00000  Uiso   1.00
C617   C     0.17656   0.95975   0.35765   0.00000  Uiso   1.00
H618   H     0.18728   0.93691   0.38525   0.00000  Uiso   1.00
H619   H     0.14370   0.95209   0.35189   0.00000  Uiso   1.00
H620   H     0.17954   0.99598   0.36886   0.00000  Uiso   1.00
O621   O     0.21174   0.71525   0.31110   0.00000  Uiso   1.00
C622   C     0.25129   0.69532   0.31692   0.00000  Uiso   1.00
H623   H     0.27412   0.72320   0.31765   0.00000  Uiso   1.00
H624   H     0.26119   0.67175   0.28992   0.00000  Uiso   1.00
H625   H     0.25284   0.67676   0.34939   0.00000  Uiso   1.00
O626   O     0.13279   0.95370   0.18023   0.00000  Uiso   1.00
C627   C     0.15821   0.96195   0.14273   0.00000  Uiso   1.00
H628   H     0.14888   0.93878   0.11565   0.00000  Uiso   1.00
H629   H     0.19104   0.95409   0.14991   0.00000  Uiso   1.00
H630   H     0.15479   0.99801   0.12999   0.00000  Uiso   1.00
C631   C     0.42080   0.83375   0.25360   0.00000  Uiso   1.00
C632   C     0.57923   0.83337   0.24645   0.00000  Uiso   1.00
C633   C     0.42507   0.81951   0.02349   0.00000  Uiso   1.00
C634   C     0.57405   0.83283   0.47703   0.00000  Uiso   1.00
C635   C     0.35437   0.79328   0.25829   0.00000  Uiso   1.00
C636   C     0.64523   0.87677   0.24341   0.00000  Uiso   1.00
C637   C     0.64687   0.79275   0.24593   0.00000  Uiso   1.00
C638   C     0.35365   0.87724   0.25313   0.00000  Uiso   1.00
C639   C     0.62427   0.83425   0.24347   0.00000  Uiso   1.00
C640   C     0.37579   0.83500   0.25677   0.00000  Uiso   1.00
C641   C     0.47875   0.69263   0.21852   0.00000  Uiso   1.00
C642   C     0.51801   0.97472   0.28372   0.00000  Uiso   1.00
C643   C     0.52182   0.69099   0.28100   0.00000  Uiso   1.00
C644   C     0.48202   0.97627   0.21622   0.00000  Uiso   1.00
C645   C     0.49970   0.83352   0.16460   0.00000  Uiso   1.00
C646   C     0.49965   0.83312   0.33537   0.00000  Uiso   1.00
C647   C     0.53678   0.83440   0.40611   0.00000  Uiso   1.00
C648   C     0.46189   0.82844   0.09414   0.00000  Uiso   1.00
C649   C     0.49945   0.83225   0.38366   0.00000  Uiso   1.00
C650   C     0.49929   0.83346   0.11627   0.00000  Uiso   1.00
C651   C     0.46219   0.82883   0.40681   0.00000  Uiso   1.00
C652   C     0.53648   0.83457   0.09279   0.00000  Uiso   1.00
C653   C     0.46234   0.82184   0.45324   0.00000  Uiso   1.00
C654   C     0.53682   0.82770   0.04663   0.00000  Uiso   1.00
C655   C     0.49958   0.82641   0.47649   0.00000  Uiso   1.00
C656   C     0.49933   0.82645   0.02353   0.00000  Uiso   1.00
C657   C     0.53706   0.83219   0.45297   0.00000  Uiso   1.00
C658   C     0.46171   0.82533   0.04726   0.00000  Uiso   1.00
C659   C     0.42647   0.81178   0.47761   0.00000  Uiso   1.00
C660   C     0.57354   0.82289   0.02247   0.00000  Uiso   1.00
Cu661  Cu    0.50000   0.88022   0.25000   0.00000  Uiso   1.00
Cu662  Cu    0.50000   0.78645   0.25000   0.00000  Uiso   1.00
N663   N     0.50000   0.95069   0.25000   0.00000  Uiso   1.00
N664   N     0.50000   0.71598   0.25000   0.00000  Uiso   1.00
O665   O     0.43988   0.87291   0.25000   0.00000  Uiso   1.00
O666   O     0.56012   0.79375   0.25001   0.00000  Uiso   1.00
O667   O     0.56012   0.87291   0.25001   0.00000  Uiso   1.00
O668   O     0.43988   0.79375   0.25000   0.00000  Uiso   1.00
O669   O     0.49999   0.87293   0.18513   0.00000  Uiso   1.00
O670   O     0.50001   0.79373   0.31487   0.00000  Uiso   1.00
O671   O     0.50001   0.87293   0.31487   0.00000  Uiso   1.00
O672   O     0.49999   0.79373   0.18513   0.00000  Uiso   1.00
O673   O     0.57205   0.84487   0.38238   0.00000  Uiso   1.00
C674   C     0.59108   0.80370   0.36773   0.00000  Uiso   1.00
H675   H     0.57669   0.79261   0.33665   0.00000  Uiso   1.00
H676   H     0.59053   0.77523   0.39310   0.00000  Uiso   1.00
H677   H     0.62364   0.81092   0.35995   0.00000  Uiso   1.00
O678   O     0.42615   0.82222   0.11859   0.00000  Uiso   1.00
C679   C     0.41073   0.86546   0.13315   0.00000  Uiso   1.00
H680   H     0.41700   0.89464   0.10966   0.00000  Uiso   1.00
H681   H     0.42315   0.87359   0.16611   0.00000  Uiso   1.00
H682   H     0.37702   0.86309   0.13710   0.00000  Uiso   1.00
I683   I     0.40817   0.85235   0.37274   0.00000  Uiso   1.00
I684   I     0.58969   0.85769   0.12646   0.00000  Uiso   1.00
I685   I     0.37866   0.76991   0.45217   0.00000  Uiso   1.00
I686   I     0.62171   0.77815   0.04542   0.00000  Uiso   1.00
O687   O     0.38765   0.82024   0.04518   0.00000  Uiso   1.00
C688   C     0.36764   0.86257   0.03442   0.00000  Uiso   1.00
H689   H     0.35711   0.86257   0.49951   0.00000  Uiso   1.00
H690   H     0.38752   0.89299   0.03947   0.00000  Uiso   1.00
H691   H     0.34046   0.86687   0.05635   0.00000  Uiso   1.00
O692   O     0.61141   0.83868   0.45609   0.00000  Uiso   1.00
C693   C     0.61997   0.88643   0.45580   0.00000  Uiso   1.00
H694   H     0.62354   0.89946   0.49018   0.00000  Uiso   1.00
H695   H     0.59586   0.90717   0.43830   0.00000  Uiso   1.00
H696   H     0.64917   0.89193   0.43755   0.00000  Uiso   1.00
I697   I     0.37659   0.73563   0.29625   0.00000  Uiso   1.00
I698   I     0.61838   0.93958   0.21742   0.00000  Uiso   1.00
I699   I     0.62714   0.73347   0.21174   0.00000  Uiso   1.00
I700   I     0.37874   0.94168   0.27336   0.00000  Uiso   1.00
O701   O     0.45796   0.71853   0.18648   0.00000  Uiso   1.00
C702   C     0.41692   0.70458   0.18231   0.00000  Uiso   1.00
H703   H     0.39762   0.73582   0.17574   0.00000  Uiso   1.00
H704   H     0.40442   0.68734   0.21256   0.00000  Uiso   1.00
H705   H     0.41389   0.68153   0.15336   0.00000  Uiso   1.00
O706   O     0.53426   0.95061   0.31956   0.00000  Uiso   1.00
C707   C     0.50989   0.95975   0.35765   0.00000  Uiso   1.00
H708   H     0.52062   0.93691   0.38525   0.00000  Uiso   1.00
H709   H     0.47703   0.95209   0.35189   0.00000  Uiso   1.00
H710   H     0.51287   0.99598   0.36886   0.00000  Uiso   1.00
O711   O     0.54508   0.71525   0.31110   0.00000  Uiso   1.00
C712   C     0.58462   0.69532   0.31692   0.00000  Uiso   1.00
H713   H     0.60746   0.72320   0.31765   0.00000  Uiso   1.00
H714   H     0.59453   0.67175   0.28992   0.00000  Uiso   1.00
H715   H     0.58618   0.67676   0.34939   0.00000  Uiso   1.00
O716   O     0.46612   0.95370   0.18023   0.00000  Uiso   1.00
C717   C     0.49155   0.96195   0.14273   0.00000  Uiso   1.00
H718   H     0.48221   0.93878   0.11565   0.00000  Uiso   1.00
H719   H     0.52437   0.95409   0.14991   0.00000  Uiso   1.00
H720   H     0.48812   0.99801   0.12999   0.00000  Uiso   1.00
C721   C     0.75413   0.83375   0.25360   0.00000  Uiso   1.00
C722   C     0.91256   0.83337   0.24645   0.00000  Uiso   1.00
C723   C     0.75841   0.81951   0.02349   0.00000  Uiso   1.00
C724   C     0.90739   0.83283   0.47703   0.00000  Uiso   1.00
C725   C     0.68770   0.79328   0.25829   0.00000  Uiso   1.00
C726   C     0.97856   0.87677   0.24341   0.00000  Uiso   1.00
C727   C     0.98020   0.79275   0.24593   0.00000  Uiso   1.00
C728   C     0.68698   0.87724   0.25313   0.00000  Uiso   1.00
C729   C     0.95760   0.83425   0.24347   0.00000  Uiso   1.00
C730   C     0.70912   0.83500   0.25677   0.00000  Uiso   1.00
C731   C     0.81209   0.69263   0.21852   0.00000  Uiso   1.00
C732   C     0.85135   0.97472   0.28372   0.00000  Uiso   1.00
C733   C     0.85515   0.69099   0.28100   0.00000  Uiso   1.00
C734   C     0.81536   0.97627   0.21622   0.00000  Uiso   1.00
C735   C     0.83304   0.83352   0.16460   0.00000  Uiso   1.00
C736   C     0.83299   0.83312   0.33537   0.00000  Uiso   1.00
C737   C     0.87011   0.83440   0.40611   0.00000  Uiso   1.00
C738   C     0.79523   0.82844   0.09414   0.00000  Uiso   1.00
C739   C     0.83278   0.83225   0.38366   0.00000  Uiso   1.00
C740   C     0.83263   0.83346   0.11627   0.00000  Uiso   1.00
C741   C     0.79552   0.82883   0.40681   0.00000  Uiso   1.00
C742   C     0.86981   0.83457   0.09279   0.00000  Uiso   1.00
C743   C     0.79568   0.82184   0.45324   0.00000  Uiso   1.00
C744   C     0.87015   0.82770   0.04663   0.00000  Uiso   1.00
C745   C     0.83292   0.82641   0.47649   0.00000  Uiso   1.00
C746   C     0.83266   0.82645   0.02353   0.00000  Uiso   1.00
C747   C     0.87039   0.83219   0.45297   0.00000  Uiso   1.00
C748   C     0.79504   0.82533   0.04726   0.00000  Uiso   1.00
C749   C     0.75980   0.81178   0.47761   0.00000  Uiso   1.00
C750   C     0.90687   0.82289   0.02247   0.00000  Uiso   1.00
Cu751  Cu    0.83333   0.88022   0.25000   0.00000  Uiso   1.00
Cu752  Cu    0.83333   0.78645   0.25000   0.00000  Uiso   1.00
N753   N     0.83333   0.95069   0.25000   0.00000  Uiso   1.00
N754   N     0.83333   0.71598   0.25000   0.00000  Uiso   1.00
O755   O     0.77321   0.87291   0.25000   0.00000  Uiso   1.00
O756   O     0.89345   0.79375   0.25001   0.00000  Uiso   1.00
O757   O     0.89345   0.87291   0.25001   0.00000  Uiso   1.00
O758   O     0.77321   0.79375   0.25000   0.00000  Uiso   1.00
O759   O     0.83332   0.87293   0.18513   0.00000  Uiso   1.00
O760   O     0.83334   0.79373   0.31487   0.00000  Uiso   1.00
O761   O     0.83334   0.87293   0.31487   0.00000  Uiso   1.00
O762   O     0.83332   0.79373   0.18513   0.00000  Uiso   1.00
O763   O     0.90538   0.84487   0.38238   0.00000  Uiso   1.00
C764   C     0.92441   0.80370   0.36773   0.00000  Uiso   1.00
H765   H     0.91003   0.79261   0.33665   0.00000  Uiso   1.00
H766   H     0.92386   0.77523   0.39310   0.00000  Uiso   1.00
H767   H     0.95697   0.81092   0.35995   0.00000  Uiso   1.00
O768   O     0.75948   0.82222   0.11859   0.00000  Uiso   1.00
C769   C     0.74406   0.86546   0.13315   0.00000  Uiso   1.00
H770   H     0.75033   0.89464   0.10966   0.00000  Uiso   1.00
H771   H     0.75649   0.87359   0.16611   0.00000  Uiso   1.00
H772   H     0.71036   0.86309   0.13710   0.00000  Uiso   1.00
I773   I     0.74151   0.85235   0.37274   0.00000  Uiso   1.00
I774   I     0.92302   0.85769   0.12646   0.00000  Uiso   1.00
I775   I     0.71199   0.76991   0.45217   0.00000  Uiso   1.00
I776   I     0.95504   0.77815   0.04542   0.00000  Uiso   1.00
O777   O     0.72098   0.82024   0.04518   0.00000  Uiso   1.00
C778   C     0.70097   0.86257   0.03442   0.00000  Uiso   1.00
H779   H     0.69045   0.86257   0.49951   0.00000  Uiso   1.00
H780   H     0.72086   0.89299   0.03947   0.00000  Uiso   1.00
H781   H     0.67380   0.86687   0.05635   0.00000  Uiso   1.00
O782   O     0.94474   0.83868   0.45609   0.00000  Uiso   1.00
C783   C     0.95331   0.88643   0.45580   0.00000  Uiso   1.00
H784   H     0.95687   0.89946   0.49018   0.00000  Uiso   1.00
H785   H     0.92919   0.90717   0.43830   0.00000  Uiso   1.00
H786   H     0.98251   0.89193   0.43755   0.00000  Uiso   1.00
I787   I     0.70993   0.73563   0.29625   0.00000  Uiso   1.00
I788   I     0.95171   0.93958   0.21742   0.00000  Uiso   1.00
I789   I     0.96048   0.73347   0.21174   0.00000  Uiso   1.00
I790   I     0.71208   0.94168   0.27336   0.00000  Uiso   1.00
O791   O     0.79129   0.71853   0.18648   0.00000  Uiso   1.00
C792   C     0.75025   0.70458   0.18231   0.00000  Uiso   1.00
H793   H     0.73095   0.73582   0.17574   0.00000  Uiso   1.00
H794   H     0.73775   0.68734   0.21256   0.00000  Uiso   1.00
H795   H     0.74723   0.68153   0.15336   0.00000  Uiso   1.00
O796   O     0.86759   0.95061   0.31956   0.00000  Uiso   1.00
C797   C     0.84323   0.95975   0.35765   0.00000  Uiso   1.00
H798   H     0.85395   0.93691   0.38525   0.00000  Uiso   1.00
H799   H     0.81037   0.95209   0.35189   0.00000  Uiso   1.00
H800   H     0.84621   0.99598   0.36886   0.00000  Uiso   1.00
O801   O     0.87841   0.71525   0.31110   0.00000  Uiso   1.00
C802   C     0.91796   0.69532   0.31692   0.00000  Uiso   1.00
H803   H     0.94079   0.72320   0.31765   0.00000  Uiso   1.00
H804   H     0.92786   0.67175   0.28992   0.00000  Uiso   1.00
H805   H     0.91951   0.67676   0.34939   0.00000  Uiso   1.00
O806   O     0.79945   0.95370   0.18023   0.00000  Uiso   1.00
C807   C     0.82488   0.96195   0.14273   0.00000  Uiso   1.00
H808   H     0.81555   0.93878   0.11565   0.00000  Uiso   1.00
H809   H     0.85771   0.95409   0.14991   0.00000  Uiso   1.00
H810   H     0.82145   0.99801   0.12999   0.00000  Uiso   1.00
C811   C     0.08747   0.16708   0.75360   0.00000  Uiso   1.00
C812   C     0.24589   0.16670   0.74645   0.00000  Uiso   1.00
C813   C     0.09174   0.15285   0.52349   0.00000  Uiso   1.00
C814   C     0.24072   0.16616   0.97703   0.00000  Uiso   1.00
C815   C     0.02104   0.12662   0.75829   0.00000  Uiso   1.00
C816   C     0.31189   0.21010   0.74341   0.00000  Uiso   1.00
C817   C     0.31353   0.12608   0.74593   0.00000  Uiso   1.00
C818   C     0.02032   0.21057   0.75313   0.00000  Uiso   1.00
C819   C     0.29093   0.16759   0.74347   0.00000  Uiso   1.00
C820   C     0.04245   0.16833   0.75677   0.00000  Uiso   1.00
C821   C     0.14542   0.02596   0.71852   0.00000  Uiso   1.00
C822   C     0.18468   0.30805   0.78372   0.00000  Uiso   1.00
C823   C     0.18849   0.02432   0.78100   0.00000  Uiso   1.00
C824   C     0.14869   0.30960   0.71622   0.00000  Uiso   1.00
C825   C     0.16637   0.16685   0.66460   0.00000  Uiso   1.00
C826   C     0.16632   0.16646   0.83537   0.00000  Uiso   1.00
C827   C     0.20345   0.16773   0.90611   0.00000  Uiso   1.00
C828   C     0.12856   0.16177   0.59414   0.00000  Uiso   1.00
C829   C     0.16611   0.16558   0.88366   0.00000  Uiso   1.00
C830   C     0.16596   0.16679   0.61627   0.00000  Uiso   1.00
C831   C     0.12885   0.16216   0.90681   0.00000  Uiso   1.00
C832   C     0.20314   0.16790   0.59279   0.00000  Uiso   1.00
C833   C     0.12901   0.15518   0.95324   0.00000  Uiso   1.00
C834   C     0.20348   0.16103   0.54663   0.00000  Uiso   1.00
C835   C     0.16625   0.15974   0.97649   0.00000  Uiso   1.00
C836   C     0.16600   0.15978   0.52353   0.00000  Uiso   1.00
C837   C     0.20372   0.16552   0.95297   0.00000  Uiso   1.00
C838   C     0.12838   0.15867   0.54726   0.00000  Uiso   1.00
C839   C     0.09314   0.14511   0.97761   0.00000  Uiso   1.00
C840   C     0.24021   0.15622   0.52247   0.00000  Uiso   1.00
Cu841  Cu    0.16667   0.21355   0.75000   0.00000  Uiso   1.00
Cu842  Cu    0.16667   0.11978   0.75000   0.00000  Uiso   1.00
N843   N     0.16667   0.28402   0.75000   0.00000  Uiso   1.00
N844   N     0.16667   0.04931   0.75000   0.00000  Uiso   1.00
O845   O     0.10655   0.20625   0.75000   0.00000  Uiso   1.00
O846   O     0.22679   0.12709   0.75001   0.00000  Uiso   1.00
O847   O     0.22679   0.20625   0.75001   0.00000  Uiso   1.00
O848   O     0.10655   0.12709   0.75000   0.00000  Uiso   1.00
O849   O     0.16666   0.20627   0.68513   0.00000  Uiso   1.00
O850   O     0.16668   0.12707   0.81487   0.00000  Uiso   1.00
O851   O     0.16668   0.20627   0.81487   0.00000  Uiso   1.00
O852   O     0.16666   0.12707   0.68513   0.00000  Uiso   1.00
O853   O     0.23871   0.17821   0.88238   0.00000  Uiso   1.00
C854   C     0.25774   0.13703   0.86773   0.00000  Uiso   1.00
H855   H     0.24336   0.12594   0.83665   0.00000  Uiso   1.00
H856   H     0.25719   0.10856   0.89310   0.00000  Uiso   1.00
H857   H     0.29031   0.14425   0.85995   0.00000  Uiso   1.00
O858   O     0.09281   0.15556   0.61859   0.00000  Uiso   1.00
C859   C     0.07740   0.19880   0.63315   0.00000  Uiso   1.00
H860   H     0.08367   0.22798   0.60966   0.00000  Uiso   1.00
H861   H     0.08982   0.20692   0.66611   0.00000  Uiso   1.00
H862   H     0.04369   0.19642   0.63710   0.00000  Uiso   1.00
I863   I     0.07484   0.18568   0.87274   0.00000  Uiso   1.00
I864   I     0.25635   0.19102   0.62646   0.00000  Uiso   1.00
I865   I     0.04532   0.10325   0.95217   0.00000  Uiso   1.00
I866   I     0.28837   0.11149   0.54542   0.00000  Uiso   1.00
O867   O     0.05432   0.15357   0.54518   0.00000  Uiso   1.00
C868   C     0.03430   0.19590   0.53442   0.00000  Uiso   1.00
H869   H     0.02378   0.19591   0.99951   0.00000  Uiso   1.00
H870   H     0.05419   0.22632   0.53947   0.00000  Uiso   1.00
H871   H     0.00713   0.20020   0.55635   0.00000  Uiso   1.00
O872   O     0.27807   0.17201   0.95609   0.00000  Uiso   1.00
C873   C     0.28664   0.21977   0.95580   0.00000  Uiso   1.00
H874   H     0.29021   0.23280   0.99018   0.00000  Uiso   1.00
H875   H     0.26252   0.24050   0.93830   0.00000  Uiso   1.00
H876   H     0.31584   0.22526   0.93755   0.00000  Uiso   1.00
I877   I     0.04326   0.06896   0.79625   0.00000  Uiso   1.00
I878   I     0.28504   0.27292   0.71742   0.00000  Uiso   1.00
I879   I     0.29381   0.06680   0.71174   0.00000  Uiso   1.00
I880   I     0.04541   0.27502   0.77336   0.00000  Uiso   1.00
O881   O     0.12462   0.05186   0.68648   0.00000  Uiso   1.00
C882   C     0.08358   0.03791   0.68231   0.00000  Uiso   1.00
H883   H     0.06429   0.06915   0.67574   0.00000  Uiso   1.00
H884   H     0.07108   0.02067   0.71256   0.00000  Uiso   1.00
H885   H     0.08056   0.01486   0.65336   0.00000  Uiso   1.00
O886   O     0.20093   0.28394   0.81956   0.00000  Uiso   1.00
C887   C     0.17656   0.29308   0.85765   0.00000  Uiso   1.00
H888   H     0.18728   0.27025   0.88525   0.00000  Uiso   1.00
H889   H     0.14370   0.28542   0.85189   0.00000  Uiso   1.00
H890   H     0.17954   0.32931   0.86886   0.00000  Uiso   1.00
O891   O     0.21174   0.04858   0.81110   0.00000  Uiso   1.00
C892   C     0.25129   0.02865   0.81692   0.00000  Uiso   1.00
H893   H     0.27412   0.05653   0.81765   0.00000  Uiso   1.00
H894   H     0.26119   0.00509   0.78992   0.00000  Uiso   1.00
H895   H     0.25284   0.01009   0.84939   0.00000  Uiso   1.00
O896   O     0.13279   0.28703   0.68023   0.00000  Uiso   1.00
C897   C     0.15821   0.29528   0.64273   0.00000  Uiso   1.00
H898   H     0.14888   0.27212   0.61565   0.00000  Uiso   1.00
H899   H     0.19104   0.28742   0.64991   0.00000  Uiso   1.00
H900   H     0.15479   0.33134   0.62999   0.00000  Uiso   1.00
C901   C     0.42080   0.16708   0.75360   0.00000  Uiso   1.00
C902   C     0.57923   0.16670   0.74645   0.00000  Uiso   1.00
C903   C     0.42507   0.15285   0.52349   0.00000  Uiso   1.00
C904   C     0.57405   0.16616   0.97703   0.00000  Uiso   1.00
C905   C     0.35437   0.12662   0.75829   0.00000  Uiso   1.00
C906   C     0.64523   0.21010   0.74341   0.00000  Uiso   1.00
C907   C     0.64687   0.12608   0.74593   0.00000  Uiso   1.00
C908   C     0.35365   0.21057   0.75313   0.00000  Uiso   1.00
C909   C     0.62427   0.16759   0.74347   0.00000  Uiso   1.00
C910   C     0.37579   0.16833   0.75677   0.00000  Uiso   1.00
C911   C     0.47875   0.02596   0.71852   0.00000  Uiso   1.00
C912   C     0.51801   0.30805   0.78372   0.00000  Uiso   1.00
C913   C     0.52182   0.02432   0.78100   0.00000  Uiso   1.00
C914   C     0.48202   0.30960   0.71622   0.00000  Uiso   1.00
C915   C     0.49970   0.16685   0.66460   0.00000  Uiso   1.00
C916   C     0.49965   0.16646   0.83537   0.00000  Uiso   1.00
C917   C     0.53678   0.16773   0.90611   0.00000  Uiso   1.00
C918   C     0.46189   0.16177   0.59414   0.00000  Uiso   1.00
C919   C     0.49945   0.16558   0.88366   0.00000  Uiso   1.00
C920   C     0.49929   0.16679   0.61627   0.00000  Uiso   1.00
C921   C     0.46219   0.16216   0.90681   0.00000  Uiso   1.00
C922   C     0.53648   0.16790   0.59279   0.00000  Uiso   1.00
C923   C     0.46234   0.15518   0.95324   0.00000  Uiso   1.00
C924   C     0.53682   0.16103   0.54663   0.00000  Uiso   1.00
C925   C     0.49958   0.15974   0.97649   0.00000  Uiso   1.00
C926   C     0.49933   0.15978   0.52353   0.00000  Uiso   1.00
C927   C     0.53706   0.16552   0.95297   0.00000  Uiso   1.00
C928   C     0.46171   0.15867   0.54726   0.00000  Uiso   1.00
C929   C     0.42647   0.14511   0.97761   0.00000  Uiso   1.00
C930   C     0.57354   0.15622   0.52247   0.00000  Uiso   1.00
Cu931  Cu    0.50000   0.21355   0.75000   0.00000  Uiso   1.00
Cu932  Cu    0.50000   0.11978   0.75000   0.00000  Uiso   1.00
N933   N     0.50000   0.28402   0.75000   0.00000  Uiso   1.00
N934   N     0.50000   0.04931   0.75000   0.00000  Uiso   1.00
O935   O     0.43988   0.20625   0.75000   0.00000  Uiso   1.00
O936   O     0.56012   0.12709   0.75001   0.00000  Uiso   1.00
O937   O     0.56012   0.20625   0.75001   0.00000  Uiso   1.00
O938   O     0.43988   0.12709   0.75000   0.00000  Uiso   1.00
O939   O     0.49999   0.20627   0.68513   0.00000  Uiso   1.00
O940   O     0.50001   0.12707   0.81487   0.00000  Uiso   1.00
O941   O     0.50001   0.20627   0.81487   0.00000  Uiso   1.00
O942   O     0.49999   0.12707   0.68513   0.00000  Uiso   1.00
O943   O     0.57205   0.17821   0.88238   0.00000  Uiso   1.00
C944   C     0.59108   0.13703   0.86773   0.00000  Uiso   1.00
H945   H     0.57669   0.12594   0.83665   0.00000  Uiso   1.00
H946   H     0.59053   0.10856   0.89310   0.00000  Uiso   1.00
H947   H     0.62364   0.14425   0.85995   0.00000  Uiso   1.00
O948   O     0.42615   0.15556   0.61859   0.00000  Uiso   1.00
C949   C     0.41073   0.19880   0.63315   0.00000  Uiso   1.00
H950   H     0.41700   0.22798   0.60966   0.00000  Uiso   1.00
H951   H     0.42315   0.20692   0.66611   0.00000  Uiso   1.00
H952   H     0.37702   0.19642   0.63710   0.00000  Uiso   1.00
I953   I     0.40817   0.18568   0.87274   0.00000  Uiso   1.00
I954   I     0.58969   0.19102   0.62646   0.00000  Uiso   1.00
I955   I     0.37866   0.10325   0.95217   0.00000  Uiso   1.00
I956   I     0.62171   0.11149   0.54542   0.00000  Uiso   1.00
O957   O     0.38765   0.15357   0.54518   0.00000  Uiso   1.00
C958   C     0.36764   0.19590   0.53442   0.00000  Uiso   1.00
H959   H     0.35711   0.19591   0.99951   0.00000  Uiso   1.00
H960   H     0.38752   0.22632   0.53947   0.00000  Uiso   1.00
H961   H     0.34046   0.20020   0.55635   0.00000  Uiso   1.00
O962   O     0.61141   0.17201   0.95609   0.00000  Uiso   1.00
C963   C     0.61997   0.21977   0.95580   0.00000  Uiso   1.00
H964   H     0.62354   0.23280   0.99018   0.00000  Uiso   1.00
H965   H     0.59586   0.24050   0.93830   0.00000  Uiso   1.00
H966   H     0.64917   0.22526   0.93755   0.00000  Uiso   1.00
I967   I     0.37659   0.06896   0.79625   0.00000  Uiso   1.00
I968   I     0.61838   0.27292   0.71742   0.00000  Uiso   1.00
I969   I     0.62714   0.06680   0.71174   0.00000  Uiso   1.00
I970   I     0.37874   0.27502   0.77336   0.00000  Uiso   1.00
O971   O     0.45796   0.05186   0.68648   0.00000  Uiso   1.00
C972   C     0.41692   0.03791   0.68231   0.00000  Uiso   1.00
H973   H     0.39762   0.06915   0.67574   0.00000  Uiso   1.00
H974   H     0.40442   0.02067   0.71256   0.00000  Uiso   1.00
H975   H     0.41389   0.01486   0.65336   0.00000  Uiso   1.00
O976   O     0.53426   0.28394   0.81956   0.00000  Uiso   1.00
C977   C     0.50989   0.29308   0.85765   0.00000  Uiso   1.00
H978   H     0.52062   0.27025   0.88525   0.00000  Uiso   1.00
H979   H     0.47703   0.28542   0.85189   0.00000  Uiso   1.00
H980   H     0.51287   0.32931   0.86886   0.00000  Uiso   1.00
O981   O     0.54508   0.04858   0.81110   0.00000  Uiso   1.00
C982   C     0.58462   0.02865   0.81692   0.00000  Uiso   1.00
H983   H     0.60746   0.05653   0.81765   0.00000  Uiso   1.00
H984   H     0.59453   0.00509   0.78992   0.00000  Uiso   1.00
H985   H     0.58618   0.01009   0.84939   0.00000  Uiso   1.00
O986   O     0.46612   0.28703   0.68023   0.00000  Uiso   1.00
C987   C     0.49155   0.29528   0.64273   0.00000  Uiso   1.00
H988   H     0.48221   0.27212   0.61565   0.00000  Uiso   1.00
H989   H     0.52437   0.28742   0.64991   0.00000  Uiso   1.00
H990   H     0.48812   0.33134   0.62999   0.00000  Uiso   1.00
C991   C     0.75413   0.16708   0.75360   0.00000  Uiso   1.00
C992   C     0.91256   0.16670   0.74645   0.00000  Uiso   1.00
C993   C     0.75841   0.15285   0.52349   0.00000  Uiso   1.00
C994   C     0.90739   0.16616   0.97703   0.00000  Uiso   1.00
C995   C     0.68770   0.12662   0.75829   0.00000  Uiso   1.00
C996   C     0.97856   0.21010   0.74341   0.00000  Uiso   1.00
C997   C     0.98020   0.12608   0.74593   0.00000  Uiso   1.00
C998   C     0.68698   0.21057   0.75313   0.00000  Uiso   1.00
C999   C     0.95760   0.16759   0.74347   0.00000  Uiso   1.00
C1000  C     0.70912   0.16833   0.75677   0.00000  Uiso   1.00
C1001  C     0.81209   0.02596   0.71852   0.00000  Uiso   1.00
C1002  C     0.85135   0.30805   0.78372   0.00000  Uiso   1.00
C1003  C     0.85515   0.02432   0.78100   0.00000  Uiso   1.00
C1004  C     0.81536   0.30960   0.71622   0.00000  Uiso   1.00
C1005  C     0.83304   0.16685   0.66460   0.00000  Uiso   1.00
C1006  C     0.83299   0.16646   0.83537   0.00000  Uiso   1.00
C1007  C     0.87011   0.16773   0.90611   0.00000  Uiso   1.00
C1008  C     0.79523   0.16177   0.59414   0.00000  Uiso   1.00
C1009  C     0.83278   0.16558   0.88366   0.00000  Uiso   1.00
C1010  C     0.83263   0.16679   0.61627   0.00000  Uiso   1.00
C1011  C     0.79552   0.16216   0.90681   0.00000  Uiso   1.00
C1012  C     0.86981   0.16790   0.59279   0.00000  Uiso   1.00
C1013  C     0.79568   0.15518   0.95324   0.00000  Uiso   1.00
C1014  C     0.87015   0.16103   0.54663   0.00000  Uiso   1.00
C1015  C     0.83292   0.15974   0.97649   0.00000  Uiso   1.00
C1016  C     0.83266   0.15978   0.52353   0.00000  Uiso   1.00
C1017  C     0.87039   0.16552   0.95297   0.00000  Uiso   1.00
C1018  C     0.79504   0.15867   0.54726   0.00000  Uiso   1.00
C1019  C     0.75980   0.14511   0.97761   0.00000  Uiso   1.00
C1020  C     0.90687   0.15622   0.52247   0.00000  Uiso   1.00
Cu1021 Cu    0.83333   0.21355   0.75000   0.00000  Uiso   1.00
Cu1022 Cu    0.83333   0.11978   0.75000   0.00000  Uiso   1.00
N1023  N     0.83333   0.28402   0.75000   0.00000  Uiso   1.00
N1024  N     0.83333   0.04931   0.75000   0.00000  Uiso   1.00
O1025  O     0.77321   0.20625   0.75000   0.00000  Uiso   1.00
O1026  O     0.89345   0.12709   0.75001   0.00000  Uiso   1.00
O1027  O     0.89345   0.20625   0.75001   0.00000  Uiso   1.00
O1028  O     0.77321   0.12709   0.75000   0.00000  Uiso   1.00
O1029  O     0.83332   0.20627   0.68513   0.00000  Uiso   1.00
O1030  O     0.83334   0.12707   0.81487   0.00000  Uiso   1.00
O1031  O     0.83334   0.20627   0.81487   0.00000  Uiso   1.00
O1032  O     0.83332   0.12707   0.68513   0.00000  Uiso   1.00
O1033  O     0.90538   0.17821   0.88238   0.00000  Uiso   1.00
C1034  C     0.92441   0.13703   0.86773   0.00000  Uiso   1.00
H1035  H     0.91003   0.12594   0.83665   0.00000  Uiso   1.00
H1036  H     0.92386   0.10856   0.89310   0.00000  Uiso   1.00
H1037  H     0.95697   0.14425   0.85995   0.00000  Uiso   1.00
O1038  O     0.75948   0.15556   0.61859   0.00000  Uiso   1.00
C1039  C     0.74406   0.19880   0.63315   0.00000  Uiso   1.00
H1040  H     0.75033   0.22798   0.60966   0.00000  Uiso   1.00
H1041  H     0.75649   0.20692   0.66611   0.00000  Uiso   1.00
H1042  H     0.71036   0.19642   0.63710   0.00000  Uiso   1.00
I1043  I     0.74151   0.18568   0.87274   0.00000  Uiso   1.00
I1044  I     0.92302   0.19102   0.62646   0.00000  Uiso   1.00
I1045  I     0.71199   0.10325   0.95217   0.00000  Uiso   1.00
I1046  I     0.95504   0.11149   0.54542   0.00000  Uiso   1.00
O1047  O     0.72098   0.15357   0.54518   0.00000  Uiso   1.00
C1048  C     0.70097   0.19590   0.53442   0.00000  Uiso   1.00
H1049  H     0.69045   0.19591   0.99951   0.00000  Uiso   1.00
H1050  H     0.72086   0.22632   0.53947   0.00000  Uiso   1.00
H1051  H     0.67380   0.20020   0.55635   0.00000  Uiso   1.00
O1052  O     0.94474   0.17201   0.95609   0.00000  Uiso   1.00
C1053  C     0.95331   0.21977   0.95580   0.00000  Uiso   1.00
H1054  H     0.95687   0.23280   0.99018   0.00000  Uiso   1.00
H1055  H     0.92919   0.24050   0.93830   0.00000  Uiso   1.00
H1056  H     0.98251   0.22526   0.93755   0.00000  Uiso   1.00
I1057  I     0.70993   0.06896   0.79625   0.00000  Uiso   1.00
I1058  I     0.95171   0.27292   0.71742   0.00000  Uiso   1.00
I1059  I     0.96048   0.06680   0.71174   0.00000  Uiso   1.00
I1060  I     0.71208   0.27502   0.77336   0.00000  Uiso   1.00
O1061  O     0.79129   0.05186   0.68648   0.00000  Uiso   1.00
C1062  C     0.75025   0.03791   0.68231   0.00000  Uiso   1.00
H1063  H     0.73095   0.06915   0.67574   0.00000  Uiso   1.00
H1064  H     0.73775   0.02067   0.71256   0.00000  Uiso   1.00
H1065  H     0.74723   0.01486   0.65336   0.00000  Uiso   1.00
O1066  O     0.86759   0.28394   0.81956   0.00000  Uiso   1.00
C1067  C     0.84323   0.29308   0.85765   0.00000  Uiso   1.00
H1068  H     0.85395   0.27025   0.88525   0.00000  Uiso   1.00
H1069  H     0.81037   0.28542   0.85189   0.00000  Uiso   1.00
H1070  H     0.84621   0.32931   0.86886   0.00000  Uiso   1.00
O1071  O     0.87841   0.04858   0.81110   0.00000  Uiso   1.00
C1072  C     0.91796   0.02865   0.81692   0.00000  Uiso   1.00
H1073  H     0.94079   0.05653   0.81765   0.00000  Uiso   1.00
H1074  H     0.92786   0.00509   0.78992   0.00000  Uiso   1.00
H1075  H     0.91951   0.01009   0.84939   0.00000  Uiso   1.00
O1076  O     0.79945   0.28703   0.68023   0.00000  Uiso   1.00
C1077  C     0.82488   0.29528   0.64273   0.00000  Uiso   1.00
H1078  H     0.81555   0.27212   0.61565   0.00000  Uiso   1.00
H1079  H     0.85771   0.28742   0.64991   0.00000  Uiso   1.00
H1080  H     0.82145   0.33134   0.62999   0.00000  Uiso   1.00
C1081  C     0.08747   0.50042   0.75360   0.00000  Uiso   1.00
C1082  C     0.24589   0.50004   0.74645   0.00000  Uiso   1.00
C1083  C     0.09174   0.48618   0.52349   0.00000  Uiso   1.00
C1084  C     0.24072   0.49950   0.97703   0.00000  Uiso   1.00
C1085  C     0.02104   0.45995   0.75829   0.00000  Uiso   1.00
C1086  C     0.31189   0.54343   0.74341   0.00000  Uiso   1.00
C1087  C     0.31353   0.45941   0.74593   0.00000  Uiso   1.00
C1088  C     0.02032   0.54390   0.75313   0.00000  Uiso   1.00
C1089  C     0.29093   0.50092   0.74347   0.00000  Uiso   1.00
C1090  C     0.04245   0.50166   0.75677   0.00000  Uiso   1.00
C1091  C     0.14542   0.35930   0.71852   0.00000  Uiso   1.00
C1092  C     0.18468   0.64139   0.78372   0.00000  Uiso   1.00
C1093  C     0.18849   0.35766   0.78100   0.00000  Uiso   1.00
C1094  C     0.14869   0.64294   0.71622   0.00000  Uiso   1.00
C1095  C     0.16637   0.50018   0.66460   0.00000  Uiso   1.00
C1096  C     0.16632   0.49979   0.83537   0.00000  Uiso   1.00
C1097  C     0.20345   0.50106   0.90611   0.00000  Uiso   1.00
C1098  C     0.12856   0.49510   0.59414   0.00000  Uiso   1.00
C1099  C     0.16611   0.49891   0.88366   0.00000  Uiso   1.00
C1100  C     0.16596   0.50013   0.61627   0.00000  Uiso   1.00
C1101  C     0.12885   0.49549   0.90681   0.00000  Uiso   1.00
C1102  C     0.20314   0.50123   0.59279   0.00000  Uiso   1.00
C1103  C     0.12901   0.48851   0.95324   0.00000  Uiso   1.00
C1104  C     0.20348   0.49437   0.54663   0.00000  Uiso   1.00
C1105  C     0.16625   0.49308   0.97649   0.00000  Uiso   1.00
C1106  C     0.16600   0.49312   0.52353   0.00000  Uiso   1.00
C1107  C     0.20372   0.49886   0.95297   0.00000  Uiso   1.00
C1108  C     0.12838   0.49200   0.54726   0.00000  Uiso   1.00
C1109  C     0.09314   0.47845   0.97761   0.00000  Uiso   1.00
C1110  C     0.24021   0.48955   0.52247   0.00000  Uiso   1.00
Cu1111 Cu    0.16667   0.54689   0.75000   0.00000  Uiso   1.00
Cu1112 Cu    0.16667   0.45311   0.75000   0.00000  Uiso   1.00
N1113  N     0.16667   0.61736   0.75000   0.00000  Uiso   1.00
N1114  N     0.16667   0.38264   0.75000   0.00000  Uiso   1.00
O1115  O     0.10655   0.53958   0.75000   0.00000  Uiso   1.00
O1116  O     0.22679   0.46042   0.75001   0.00000  Uiso   1.00
O1117  O     0.22679   0.53958   0.75001   0.00000  Uiso   1.00
O1118  O     0.10655   0.46042   0.75000   0.00000  Uiso   1.00
O1119  O     0.16666   0.53960   0.68513   0.00000  Uiso   1.00
O1120  O     0.16668   0.46040   0.81487   0.00000  Uiso   1.00
O1121  O     0.16668   0.53960   0.81487   0.00000  Uiso   1.00
O1122  O     0.16666   0.46040   0.68513   0.00000  Uiso   1.00
O1123  O     0.23871   0.51154   0.88238   0.00000  Uiso   1.00
C1124  C     0.25774   0.47037   0.86773   0.00000  Uiso   1.00
H1125  H     0.24336   0.45928   0.83665   0.00000  Uiso   1.00
H1126  H     0.25719   0.44189   0.89310   0.00000  Uiso   1.00
H1127  H     0.29031   0.47759   0.85995   0.00000  Uiso   1.00
O1128  O     0.09281   0.48889   0.61859   0.00000  Uiso   1.00
C1129  C     0.07740   0.53213   0.63315   0.00000  Uiso   1.00
H1130  H     0.08367   0.56131   0.60966   0.00000  Uiso   1.00
H1131  H     0.08982   0.54026   0.66611   0.00000  Uiso   1.00
H1132  H     0.04369   0.52976   0.63710   0.00000  Uiso   1.00
I1133  I     0.07484   0.51901   0.87274   0.00000  Uiso   1.00
I1134  I     0.25635   0.52435   0.62646   0.00000  Uiso   1.00
I1135  I     0.04532   0.43658   0.95217   0.00000  Uiso   1.00
I1136  I     0.28837   0.44482   0.54542   0.00000  Uiso   1.00
O1137  O     0.05432   0.48691   0.54518   0.00000  Uiso   1.00
C1138  C     0.03430   0.52924   0.53442   0.00000  Uiso   1.00
H1139  H     0.02378   0.52924   0.99951   0.00000  Uiso   1.00
H1140  H     0.05419   0.55965   0.53947   0.00000  Uiso   1.00
H1141  H     0.00713   0.53353   0.55635   0.00000  Uiso   1.00
O1142  O     0.27807   0.50534   0.95609   0.00000  Uiso   1.00
C1143  C     0.28664   0.55310   0.95580   0.00000  Uiso   1.00
H1144  H     0.29021   0.56613   0.99018   0.00000  Uiso   1.00
H1145  H     0.26252   0.57383   0.93830   0.00000  Uiso   1.00
H1146  H     0.31584   0.55860   0.93755   0.00000  Uiso   1.00
I1147  I     0.04326   0.40229   0.79625   0.00000  Uiso   1.00
I1148  I     0.28504   0.60625   0.71742   0.00000  Uiso   1.00
I1149  I     0.29381   0.40013   0.71174   0.00000  Uiso   1.00
I1150  I     0.04541   0.60835   0.77336   0.00000  Uiso   1.00
O1151  O     0.12462   0.38519   0.68648   0.00000  Uiso   1.00
C1152  C     0.08358   0.37125   0.68231   0.00000  Uiso   1.00
H1153  H     0.06429   0.40248   0.67574   0.00000  Uiso   1.00
H1154  H     0.07108   0.35400   0.71256   0.00000  Uiso   1.00
H1155  H     0.08056   0.34820   0.65336   0.00000  Uiso   1.00
O1156  O     0.20093   0.61728   0.81956   0.00000  Uiso   1.00
C1157  C     0.17656   0.62641   0.85765   0.00000  Uiso   1.00
H1158  H     0.18728   0.60358   0.88525   0.00000  Uiso   1.00
H1159  H     0.14370   0.61876   0.85189   0.00000  Uiso   1.00
H1160  H     0.17954   0.66265   0.86886   0.00000  Uiso   1.00
O1161  O     0.21174   0.38191   0.81110   0.00000  Uiso   1.00
C1162  C     0.25129   0.36199   0.81692   0.00000  Uiso   1.00
H1163  H     0.27412   0.38987   0.81765   0.00000  Uiso   1.00
H1164  H     0.26119   0.33842   0.78992   0.00000  Uiso   1.00
H1165  H     0.25284   0.34342   0.84939   0.00000  Uiso   1.00
O1166  O     0.13279   0.62037   0.68023   0.00000  Uiso   1.00
C1167  C     0.15821   0.62862   0.64273   0.00000  Uiso   1.00
H1168  H     0.14888   0.60545   0.61565   0.00000  Uiso   1.00
H1169  H     0.19104   0.62075   0.64991   0.00000  Uiso   1.00
H1170  H     0.15479   0.66467   0.62999   0.00000  Uiso   1.00
C1171  C     0.42080   0.50042   0.75360   0.00000  Uiso   1.00
C1172  C     0.57923   0.50004   0.74645   0.00000  Uiso   1.00
C1173  C     0.42507   0.48618   0.52349   0.00000  Uiso   1.00
C1174  C     0.57405   0.49950   0.97703   0.00000  Uiso   1.00
C1175  C     0.35437   0.45995   0.75829   0.00000  Uiso   1.00
C1176  C     0.64523   0.54343   0.74341   0.00000  Uiso   1.00
C1177  C     0.64687   0.45941   0.74593   0.00000  Uiso   1.00
C1178  C     0.35365   0.54390   0.75313   0.00000  Uiso   1.00
C1179  C     0.62427   0.50092   0.74347   0.00000  Uiso   1.00
C1180  C     0.37579   0.50166   0.75677   0.00000  Uiso   1.00
C1181  C     0.47875   0.35930   0.71852   0.00000  Uiso   1.00
C1182  C     0.51801   0.64139   0.78372   0.00000  Uiso   1.00
C1183  C     0.52182   0.35766   0.78100   0.00000  Uiso   1.00
C1184  C     0.48202   0.64294   0.71622   0.00000  Uiso   1.00
C1185  C     0.49970   0.50018   0.66460   0.00000  Uiso   1.00
C1186  C     0.49965   0.49979   0.83537   0.00000  Uiso   1.00
C1187  C     0.53678   0.50106   0.90611   0.00000  Uiso   1.00
C1188  C     0.46189   0.49510   0.59414   0.00000  Uiso   1.00
C1189  C     0.49945   0.49891   0.88366   0.00000  Uiso   1.00
C1190  C     0.49929   0.50013   0.61627   0.00000  Uiso   1.00
C1191  C     0.46219   0.49549   0.90681   0.00000  Uiso   1.00
C1192  C     0.53648   0.50123   0.59279   0.00000  Uiso   1.00
C1193  C     0.46234   0.48851   0.95324   0.00000  Uiso   1.00
C1194  C     0.53682   0.49437   0.54663   0.00000  Uiso   1.00
C1195  C     0.49958   0.49308   0.97649   0.00000  Uiso   1.00
C1196  C     0.49933   0.49312   0.52353   0.00000  Uiso   1.00
C1197  C     0.53706   0.49886   0.95297   0.00000  Uiso   1.00
C1198  C     0.46171   0.49200   0.54726   0.00000  Uiso   1.00
C1199  C     0.42647   0.47845   0.97761   0.00000  Uiso   1.00
C1200  C     0.57354   0.48955   0.52247   0.00000  Uiso   1.00
Cu1201 Cu    0.50000   0.54689   0.75000   0.00000  Uiso   1.00
Cu1202 Cu    0.50000   0.45311   0.75000   0.00000  Uiso   1.00
N1203  N     0.50000   0.61736   0.75000   0.00000  Uiso   1.00
N1204  N     0.50000   0.38264   0.75000   0.00000  Uiso   1.00
O1205  O     0.43988   0.53958   0.75000   0.00000  Uiso   1.00
O1206  O     0.56012   0.46042   0.75001   0.00000  Uiso   1.00
O1207  O     0.56012   0.53958   0.75001   0.00000  Uiso   1.00
O1208  O     0.43988   0.46042   0.75000   0.00000  Uiso   1.00
O1209  O     0.49999   0.53960   0.68513   0.00000  Uiso   1.00
O1210  O     0.50001   0.46040   0.81487   0.00000  Uiso   1.00
O1211  O     0.50001   0.53960   0.81487   0.00000  Uiso   1.00
O1212  O     0.49999   0.46040   0.68513   0.00000  Uiso   1.00
O1213  O     0.57205   0.51154   0.88238   0.00000  Uiso   1.00
C1214  C     0.59108   0.47037   0.86773   0.00000  Uiso   1.00
H1215  H     0.57669   0.45928   0.83665   0.00000  Uiso   1.00
H1216  H     0.59053   0.44189   0.89310   0.00000  Uiso   1.00
H1217  H     0.62364   0.47759   0.85995   0.00000  Uiso   1.00
O1218  O     0.42615   0.48889   0.61859   0.00000  Uiso   1.00
C1219  C     0.41073   0.53213   0.63315   0.00000  Uiso   1.00
H1220  H     0.41700   0.56131   0.60966   0.00000  Uiso   1.00
H1221  H     0.42315   0.54026   0.66611   0.00000  Uiso   1.00
H1222  H     0.37702   0.52976   0.63710   0.00000  Uiso   1.00
I1223  I     0.40817   0.51901   0.87274   0.00000  Uiso   1.00
I1224  I     0.58969   0.52435   0.62646   0.00000  Uiso   1.00
I1225  I     0.37866   0.43658   0.95217   0.00000  Uiso   1.00
I1226  I     0.62171   0.44482   0.54542   0.00000  Uiso   1.00
O1227  O     0.38765   0.48691   0.54518   0.00000  Uiso   1.00
C1228  C     0.36764   0.52924   0.53442   0.00000  Uiso   1.00
H1229  H     0.35711   0.52924   0.99951   0.00000  Uiso   1.00
H1230  H     0.38752   0.55965   0.53947   0.00000  Uiso   1.00
H1231  H     0.34046   0.53353   0.55635   0.00000  Uiso   1.00
O1232  O     0.61141   0.50534   0.95609   0.00000  Uiso   1.00
C1233  C     0.61997   0.55310   0.95580   0.00000  Uiso   1.00
H1234  H     0.62354   0.56613   0.99018   0.00000  Uiso   1.00
H1235  H     0.59586   0.57383   0.93830   0.00000  Uiso   1.00
H1236  H     0.64917   0.55860   0.93755   0.00000  Uiso   1.00
I1237  I     0.37659   0.40229   0.79625   0.00000  Uiso   1.00
I1238  I     0.61838   0.60625   0.71742   0.00000  Uiso   1.00
I1239  I     0.62714   0.40013   0.71174   0.00000  Uiso   1.00
I1240  I     0.37874   0.60835   0.77336   0.00000  Uiso   1.00
O1241  O     0.45796   0.38519   0.68648   0.00000  Uiso   1.00
C1242  C     0.41692   0.37125   0.68231   0.00000  Uiso   1.00
H1243  H     0.39762   0.40248   0.67574   0.00000  Uiso   1.00
H1244  H     0.40442   0.35400   0.71256   0.00000  Uiso   1.00
H1245  H     0.41389   0.34820   0.65336   0.00000  Uiso   1.00
O1246  O     0.53426   0.61728   0.81956   0.00000  Uiso   1.00
C1247  C     0.50989   0.62641   0.85765   0.00000  Uiso   1.00
H1248  H     0.52062   0.60358   0.88525   0.00000  Uiso   1.00
H1249  H     0.47703   0.61876   0.85189   0.00000  Uiso   1.00
H1250  H     0.51287   0.66265   0.86886   0.00000  Uiso   1.00
O1251  O     0.54508   0.38191   0.81110   0.00000  Uiso   1.00
C1252  C     0.58462   0.36199   0.81692   0.00000  Uiso   1.00
H1253  H     0.60746   0.38987   0.81765   0.00000  Uiso   1.00
H1254  H     0.59453   0.33842   0.78992   0.00000  Uiso   1.00
H1255  H     0.58618   0.34342   0.84939   0.00000  Uiso   1.00
O1256  O     0.46612   0.62037   0.68023   0.00000  Uiso   1.00
C1257  C     0.49155   0.62862   0.64273   0.00000  Uiso   1.00
H1258  H     0.48221   0.60545   0.61565   0.00000  Uiso   1.00
H1259  H     0.52437   0.62075   0.64991   0.00000  Uiso   1.00
H1260  H     0.48812   0.66467   0.62999   0.00000  Uiso   1.00
C1261  C     0.75413   0.50042   0.75360   0.00000  Uiso   1.00
C1262  C     0.91256   0.50004   0.74645   0.00000  Uiso   1.00
C1263  C     0.75841   0.48618   0.52349   0.00000  Uiso   1.00
C1264  C     0.90739   0.49950   0.97703   0.00000  Uiso   1.00
C1265  C     0.68770   0.45995   0.75829   0.00000  Uiso   1.00
C1266  C     0.97856   0.54343   0.74341   0.00000  Uiso   1.00
C1267  C     0.98020   0.45941   0.74593   0.00000  Uiso   1.00
C1268  C     0.68698   0.54390   0.75313   0.00000  Uiso   1.00
C1269  C     0.95760   0.50092   0.74347   0.00000  Uiso   1.00
C1270  C     0.70912   0.50166   0.75677   0.00000  Uiso   1.00
C1271  C     0.81209   0.35930   0.71852   0.00000  Uiso   1.00
C1272  C     0.85135   0.64139   0.78372   0.00000  Uiso   1.00
C1273  C     0.85515   0.35766   0.78100   0.00000  Uiso   1.00
C1274  C     0.81536   0.64294   0.71622   0.00000  Uiso   1.00
C1275  C     0.83304   0.50018   0.66460   0.00000  Uiso   1.00
C1276  C     0.83299   0.49979   0.83537   0.00000  Uiso   1.00
C1277  C     0.87011   0.50106   0.90611   0.00000  Uiso   1.00
C1278  C     0.79523   0.49510   0.59414   0.00000  Uiso   1.00
C1279  C     0.83278   0.49891   0.88366   0.00000  Uiso   1.00
C1280  C     0.83263   0.50013   0.61627   0.00000  Uiso   1.00
C1281  C     0.79552   0.49549   0.90681   0.00000  Uiso   1.00
C1282  C     0.86981   0.50123   0.59279   0.00000  Uiso   1.00
C1283  C     0.79568   0.48851   0.95324   0.00000  Uiso   1.00
C1284  C     0.87015   0.49437   0.54663   0.00000  Uiso   1.00
C1285  C     0.83292   0.49308   0.97649   0.00000  Uiso   1.00
C1286  C     0.83266   0.49312   0.52353   0.00000  Uiso   1.00
C1287  C     0.87039   0.49886   0.95297   0.00000  Uiso   1.00
C1288  C     0.79504   0.49200   0.54726   0.00000  Uiso   1.00
C1289  C     0.75980   0.47845   0.97761   0.00000  Uiso   1.00
C1290  C     0.90687   0.48955   0.52247   0.00000  Uiso   1.00
Cu1291 Cu    0.83333   0.54689   0.75000   0.00000  Uiso   1.00
Cu1292 Cu    0.83333   0.45311   0.75000   0.00000  Uiso   1.00
N1293  N     0.83333   0.61736   0.75000   0.00000  Uiso   1.00
N1294  N     0.83333   0.38264   0.75000   0.00000  Uiso   1.00
O1295  O     0.77321   0.53958   0.75000   0.00000  Uiso   1.00
O1296  O     0.89345   0.46042   0.75001   0.00000  Uiso   1.00
O1297  O     0.89345   0.53958   0.75001   0.00000  Uiso   1.00
O1298  O     0.77321   0.46042   0.75000   0.00000  Uiso   1.00
O1299  O     0.83332   0.53960   0.68513   0.00000  Uiso   1.00
O1300  O     0.83334   0.46040   0.81487   0.00000  Uiso   1.00
O1301  O     0.83334   0.53960   0.81487   0.00000  Uiso   1.00
O1302  O     0.83332   0.46040   0.68513   0.00000  Uiso   1.00
O1303  O     0.90538   0.51154   0.88238   0.00000  Uiso   1.00
C1304  C     0.92441   0.47037   0.86773   0.00000  Uiso   1.00
H1305  H     0.91003   0.45928   0.83665   0.00000  Uiso   1.00
H1306  H     0.92386   0.44189   0.89310   0.00000  Uiso   1.00
H1307  H     0.95697   0.47759   0.85995   0.00000  Uiso   1.00
O1308  O     0.75948   0.48889   0.61859   0.00000  Uiso   1.00
C1309  C     0.74406   0.53213   0.63315   0.00000  Uiso   1.00
H1310  H     0.75033   0.56131   0.60966   0.00000  Uiso   1.00
H1311  H     0.75649   0.54026   0.66611   0.00000  Uiso   1.00
H1312  H     0.71036   0.52976   0.63710   0.00000  Uiso   1.00
I1313  I     0.74151   0.51901   0.87274   0.00000  Uiso   1.00
I1314  I     0.92302   0.52435   0.62646   0.00000  Uiso   1.00
I1315  I     0.71199   0.43658   0.95217   0.00000  Uiso   1.00
I1316  I     0.95504   0.44482   0.54542   0.00000  Uiso   1.00
O1317  O     0.72098   0.48691   0.54518   0.00000  Uiso   1.00
C1318  C     0.70097   0.52924   0.53442   0.00000  Uiso   1.00
H1319  H     0.69045   0.52924   0.99951   0.00000  Uiso   1.00
H1320  H     0.72086   0.55965   0.53947   0.00000  Uiso   1.00
H1321  H     0.67380   0.53353   0.55635   0.00000  Uiso   1.00
O1322  O     0.94474   0.50534   0.95609   0.00000  Uiso   1.00
C1323  C     0.95331   0.55310   0.95580   0.00000  Uiso   1.00
H1324  H     0.95687   0.56613   0.99018   0.00000  Uiso   1.00
H1325  H     0.92919   0.57383   0.93830   0.00000  Uiso   1.00
H1326  H     0.98251   0.55860   0.93755   0.00000  Uiso   1.00
I1327  I     0.70993   0.40229   0.79625   0.00000  Uiso   1.00
I1328  I     0.95171   0.60625   0.71742   0.00000  Uiso   1.00
I1329  I     0.96048   0.40013   0.71174   0.00000  Uiso   1.00
I1330  I     0.71208   0.60835   0.77336   0.00000  Uiso   1.00
O1331  O     0.79129   0.38519   0.68648   0.00000  Uiso   1.00
C1332  C     0.75025   0.37125   0.68231   0.00000  Uiso   1.00
H1333  H     0.73095   0.40248   0.67574   0.00000  Uiso   1.00
H1334  H     0.73775   0.35400   0.71256   0.00000  Uiso   1.00
H1335  H     0.74723   0.34820   0.65336   0.00000  Uiso   1.00
O1336  O     0.86759   0.61728   0.81956   0.00000  Uiso   1.00
C1337  C     0.84323   0.62641   0.85765   0.00000  Uiso   1.00
H1338  H     0.85395   0.60358   0.88525   0.00000  Uiso   1.00
H1339  H     0.81037   0.61876   0.85189   0.00000  Uiso   1.00
H1340  H     0.84621   0.66265   0.86886   0.00000  Uiso   1.00
O1341  O     0.87841   0.38191   0.81110   0.00000  Uiso   1.00
C1342  C     0.91796   0.36199   0.81692   0.00000  Uiso   1.00
H1343  H     0.94079   0.38987   0.81765   0.00000  Uiso   1.00
H1344  H     0.92786   0.33842   0.78992   0.00000  Uiso   1.00
H1345  H     0.91951   0.34342   0.84939   0.00000  Uiso   1.00
O1346  O     0.79945   0.62037   0.68023   0.00000  Uiso   1.00
C1347  C     0.82488   0.62862   0.64273   0.00000  Uiso   1.00
H1348  H     0.81555   0.60545   0.61565   0.00000  Uiso   1.00
H1349  H     0.85771   0.62075   0.64991   0.00000  Uiso   1.00
H1350  H     0.82145   0.66467   0.62999   0.00000  Uiso   1.00
C1351  C     0.08747   0.83375   0.75360   0.00000  Uiso   1.00
C1352  C     0.24589   0.83337   0.74645   0.00000  Uiso   1.00
C1353  C     0.09174   0.81951   0.52349   0.00000  Uiso   1.00
C1354  C     0.24072   0.83283   0.97703   0.00000  Uiso   1.00
C1355  C     0.02104   0.79328   0.75829   0.00000  Uiso   1.00
C1356  C     0.31189   0.87677   0.74341   0.00000  Uiso   1.00
C1357  C     0.31353   0.79275   0.74593   0.00000  Uiso   1.00
C1358  C     0.02032   0.87724   0.75313   0.00000  Uiso   1.00
C1359  C     0.29093   0.83425   0.74347   0.00000  Uiso   1.00
C1360  C     0.04245   0.83500   0.75677   0.00000  Uiso   1.00
C1361  C     0.14542   0.69263   0.71852   0.00000  Uiso   1.00
C1362  C     0.18468   0.97472   0.78372   0.00000  Uiso   1.00
C1363  C     0.18849   0.69099   0.78100   0.00000  Uiso   1.00
C1364  C     0.14869   0.97627   0.71622   0.00000  Uiso   1.00
C1365  C     0.16637   0.83352   0.66460   0.00000  Uiso   1.00
C1366  C     0.16632   0.83312   0.83537   0.00000  Uiso   1.00
C1367  C     0.20345   0.83440   0.90611   0.00000  Uiso   1.00
C1368  C     0.12856   0.82844   0.59414   0.00000  Uiso   1.00
C1369  C     0.16611   0.83225   0.88366   0.00000  Uiso   1.00
C1370  C     0.16596   0.83346   0.61627   0.00000  Uiso   1.00
C1371  C     0.12885   0.82883   0.90681   0.00000  Uiso   1.00
C1372  C     0.20314   0.83457   0.59279   0.00000  Uiso   1.00
C1373  C     0.12901   0.82184   0.95324   0.00000  Uiso   1.00
C1374  C     0.20348   0.82770   0.54663   0.00000  Uiso   1.00
C1375  C     0.16625   0.82641   0.97649   0.00000  Uiso   1.00
C1376  C     0.16600   0.82645   0.52353   0.00000  Uiso   1.00
C1377  C     0.20372   0.83219   0.95297   0.00000  Uiso   1.00
C1378  C     0.12838   0.82533   0.54726   0.00000  Uiso   1.00
C1379  C     0.09314   0.81178   0.97761   0.00000  Uiso   1.00
C1380  C     0.24021   0.82289   0.52247   0.00000  Uiso   1.00
Cu1381 Cu    0.16667   0.88022   0.75000   0.00000  Uiso   1.00
Cu1382 Cu    0.16667   0.78645   0.75000   0.00000  Uiso   1.00
N1383  N     0.16667   0.95069   0.75000   0.00000  Uiso   1.00
N1384  N     0.16667   0.71598   0.75000   0.00000  Uiso   1.00
O1385  O     0.10655   0.87291   0.75000   0.00000  Uiso   1.00
O1386  O     0.22679   0.79375   0.75001   0.00000  Uiso   1.00
O1387  O     0.22679   0.87291   0.75001   0.00000  Uiso   1.00
O1388  O     0.10655   0.79375   0.75000   0.00000  Uiso   1.00
O1389  O     0.16666   0.87293   0.68513   0.00000  Uiso   1.00
O1390  O     0.16668   0.79373   0.81487   0.00000  Uiso   1.00
O1391  O     0.16668   0.87293   0.81487   0.00000  Uiso   1.00
O1392  O     0.16666   0.79373   0.68513   0.00000  Uiso   1.00
O1393  O     0.23871   0.84487   0.88238   0.00000  Uiso   1.00
C1394  C     0.25774   0.80370   0.86773   0.00000  Uiso   1.00
H1395  H     0.24336   0.79261   0.83665   0.00000  Uiso   1.00
H1396  H     0.25719   0.77523   0.89310   0.00000  Uiso   1.00
H1397  H     0.29031   0.81092   0.85995   0.00000  Uiso   1.00
O1398  O     0.09281   0.82222   0.61859   0.00000  Uiso   1.00
C1399  C     0.07740   0.86546   0.63315   0.00000  Uiso   1.00
H1400  H     0.08367   0.89464   0.60966   0.00000  Uiso   1.00
H1401  H     0.08982   0.87359   0.66611   0.00000  Uiso   1.00
H1402  H     0.04369   0.86309   0.63710   0.00000  Uiso   1.00
I1403  I     0.07484   0.85235   0.87274   0.00000  Uiso   1.00
I1404  I     0.25635   0.85769   0.62646   0.00000  Uiso   1.00
I1405  I     0.04532   0.76991   0.95217   0.00000  Uiso   1.00
I1406  I     0.28837   0.77815   0.54542   0.00000  Uiso   1.00
O1407  O     0.05432   0.82024   0.54518   0.00000  Uiso   1.00
C1408  C     0.03430   0.86257   0.53442   0.00000  Uiso   1.00
H1409  H     0.02378   0.86257   0.99951   0.00000  Uiso   1.00
H1410  H     0.05419   0.89299   0.53947   0.00000  Uiso   1.00
H1411  H     0.00713   0.86687   0.55635   0.00000  Uiso   1.00
O1412  O     0.27807   0.83868   0.95609   0.00000  Uiso   1.00
C1413  C     0.28664   0.88643   0.95580   0.00000  Uiso   1.00
H1414  H     0.29021   0.89946   0.99018   0.00000  Uiso   1.00
H1415  H     0.26252   0.90717   0.93830   0.00000  Uiso   1.00
H1416  H     0.31584   0.89193   0.93755   0.00000  Uiso   1.00
I1417  I     0.04326   0.73563   0.79625   0.00000  Uiso   1.00
I1418  I     0.28504   0.93958   0.71742   0.00000  Uiso   1.00
I1419  I     0.29381   0.73347   0.71174   0.00000  Uiso   1.00
I1420  I     0.04541   0.94168   0.77336   0.00000  Uiso   1.00
O1421  O     0.12462   0.71853   0.68648   0.00000  Uiso   1.00
C1422  C     0.08358   0.70458   0.68231   0.00000  Uiso   1.00
H1423  H     0.06429   0.73582   0.67574   0.00000  Uiso   1.00
H1424  H     0.07108   0.68734   0.71256   0.00000  Uiso   1.00
H1425  H     0.08056   0.68153   0.65336   0.00000  Uiso   1.00
O1426  O     0.20093   0.95061   0.81956   0.00000  Uiso   1.00
C1427  C     0.17656   0.95975   0.85765   0.00000  Uiso   1.00
H1428  H     0.18728   0.93691   0.88525   0.00000  Uiso   1.00
H1429  H     0.14370   0.95209   0.85189   0.00000  Uiso   1.00
H1430  H     0.17954   0.99598   0.86886   0.00000  Uiso   1.00
O1431  O     0.21174   0.71525   0.81110   0.00000  Uiso   1.00
C1432  C     0.25129   0.69532   0.81692   0.00000  Uiso   1.00
H1433  H     0.27412   0.72320   0.81765   0.00000  Uiso   1.00
H1434  H     0.26119   0.67175   0.78992   0.00000  Uiso   1.00
H1435  H     0.25284   0.67676   0.84939   0.00000  Uiso   1.00
O1436  O     0.13279   0.95370   0.68023   0.00000  Uiso   1.00
C1437  C     0.15821   0.96195   0.64273   0.00000  Uiso   1.00
H1438  H     0.14888   0.93878   0.61565   0.00000  Uiso   1.00
H1439  H     0.19104   0.95409   0.64991   0.00000  Uiso   1.00
H1440  H     0.15479   0.99801   0.62999   0.00000  Uiso   1.00
C1441  C     0.42080   0.83375   0.75360   0.00000  Uiso   1.00
C1442  C     0.57923   0.83337   0.74645   0.00000  Uiso   1.00
C1443  C     0.42507   0.81951   0.52349   0.00000  Uiso   1.00
C1444  C     0.57405   0.83283   0.97703   0.00000  Uiso   1.00
C1445  C     0.35437   0.79328   0.75829   0.00000  Uiso   1.00
C1446  C     0.64523   0.87677   0.74341   0.00000  Uiso   1.00
C1447  C     0.64687   0.79275   0.74593   0.00000  Uiso   1.00
C1448  C     0.35365   0.87724   0.75313   0.00000  Uiso   1.00
C1449  C     0.62427   0.83425   0.74347   0.00000  Uiso   1.00
C1450  C     0.37579   0.83500   0.75677   0.00000  Uiso   1.00
C1451  C     0.47875   0.69263   0.71852   0.00000  Uiso   1.00
C1452  C     0.51801   0.97472   0.78372   0.00000  Uiso   1.00
C1453  C     0.52182   0.69099   0.78100   0.00000  Uiso   1.00
C1454  C     0.48202   0.97627   0.71622   0.00000  Uiso   1.00
C1455  C     0.49970   0.83352   0.66460   0.00000  Uiso   1.00
C1456  C     0.49965   0.83312   0.83537   0.00000  Uiso   1.00
C1457  C     0.53678   0.83440   0.90611   0.00000  Uiso   1.00
C1458  C     0.46189   0.82844   0.59414   0.00000  Uiso   1.00
C1459  C     0.49945   0.83225   0.88366   0.00000  Uiso   1.00
C1460  C     0.49929   0.83346   0.61627   0.00000  Uiso   1.00
C1461  C     0.46219   0.82883   0.90681   0.00000  Uiso   1.00
C1462  C     0.53648   0.83457   0.59279   0.00000  Uiso   1.00
C1463  C     0.46234   0.82184   0.95324   0.00000  Uiso   1.00
C1464  C     0.53682   0.82770   0.54663   0.00000  Uiso   1.00
C1465  C     0.49958   0.82641   0.97649   0.00000  Uiso   1.00
C1466  C     0.49933   0.82645   0.52353   0.00000  Uiso   1.00
C1467  C     0.53706   0.83219   0.95297   0.00000  Uiso   1.00
C1468  C     0.46171   0.82533   0.54726   0.00000  Uiso   1.00
C1469  C     0.42647   0.81178   0.97761   0.00000  Uiso   1.00
C1470  C     0.57354   0.82289   0.52247   0.00000  Uiso   1.00
Cu1471 Cu    0.50000   0.88022   0.75000   0.00000  Uiso   1.00
Cu1472 Cu    0.50000   0.78645   0.75000   0.00000  Uiso   1.00
N1473  N     0.50000   0.95069   0.75000   0.00000  Uiso   1.00
N1474  N     0.50000   0.71598   0.75000   0.00000  Uiso   1.00
O1475  O     0.43988   0.87291   0.75000   0.00000  Uiso   1.00
O1476  O     0.56012   0.79375   0.75001   0.00000  Uiso   1.00
O1477  O     0.56012   0.87291   0.75001   0.00000  Uiso   1.00
O1478  O     0.43988   0.79375   0.75000   0.00000  Uiso   1.00
O1479  O     0.49999   0.87293   0.68513   0.00000  Uiso   1.00
O1480  O     0.50001   0.79373   0.81487   0.00000  Uiso   1.00
O1481  O     0.50001   0.87293   0.81487   0.00000  Uiso   1.00
O1482  O     0.49999   0.79373   0.68513   0.00000  Uiso   1.00
O1483  O     0.57205   0.84487   0.88238   0.00000  Uiso   1.00
C1484  C     0.59108   0.80370   0.86773   0.00000  Uiso   1.00
H1485  H     0.57669   0.79261   0.83665   0.00000  Uiso   1.00
H1486  H     0.59053   0.77523   0.89310   0.00000  Uiso   1.00
H1487  H     0.62364   0.81092   0.85995   0.00000  Uiso   1.00
O1488  O     0.42615   0.82222   0.61859   0.00000  Uiso   1.00
C1489  C     0.41073   0.86546   0.63315   0.00000  Uiso   1.00
H1490  H     0.41700   0.89464   0.60966   0.00000  Uiso   1.00
H1491  H     0.42315   0.87359   0.66611   0.00000  Uiso   1.00
H1492  H     0.37702   0.86309   0.63710   0.00000  Uiso   1.00
I1493  I     0.40817   0.85235   0.87274   0.00000  Uiso   1.00
I1494  I     0.58969   0.85769   0.62646   0.00000  Uiso   1.00
I1495  I     0.37866   0.76991   0.95217   0.00000  Uiso   1.00
I1496  I     0.62171   0.77815   0.54542   0.00000  Uiso   1.00
O1497  O     0.38765   0.82024   0.54518   0.00000  Uiso   1.00
C1498  C     0.36764   0.86257   0.53442   0.00000  Uiso   1.00
H1499  H     0.35711   0.86257   0.99951   0.00000  Uiso   1.00
H1500  H     0.38752   0.89299   0.53947   0.00000  Uiso   1.00
H1501  H     0.34046   0.86687   0.55635   0.00000  Uiso   1.00
O1502  O     0.61141   0.83868   0.95609   0.00000  Uiso   1.00
C1503  C     0.61997   0.88643   0.95580   0.00000  Uiso   1.00
H1504  H     0.62354   0.89946   0.99018   0.00000  Uiso   1.00
H1505  H     0.59586   0.90717   0.93830   0.00000  Uiso   1.00
H1506  H     0.64917   0.89193   0.93755   0.00000  Uiso   1.00
I1507  I     0.37659   0.73563   0.79625   0.00000  Uiso   1.00
I1508  I     0.61838   0.93958   0.71742   0.00000  Uiso   1.00
I1509  I     0.62714   0.73347   0.71174   0.00000  Uiso   1.00
I1510  I     0.37874   0.94168   0.77336   0.00000  Uiso   1.00
O1511  O     0.45796   0.71853   0.68648   0.00000  Uiso   1.00
C1512  C     0.41692   0.70458   0.68231   0.00000  Uiso   1.00
H1513  H     0.39762   0.73582   0.67574   0.00000  Uiso   1.00
H1514  H     0.40442   0.68734   0.71256   0.00000  Uiso   1.00
H1515  H     0.41389   0.68153   0.65336   0.00000  Uiso   1.00
O1516  O     0.53426   0.95061   0.81956   0.00000  Uiso   1.00
C1517  C     0.50989   0.95975   0.85765   0.00000  Uiso   1.00
H1518  H     0.52062   0.93691   0.88525   0.00000  Uiso   1.00
H1519  H     0.47703   0.95209   0.85189   0.00000  Uiso   1.00
H1520  H     0.51287   0.99598   0.86886   0.00000  Uiso   1.00
O1521  O     0.54508   0.71525   0.81110   0.00000  Uiso   1.00
C1522  C     0.58462   0.69532   0.81692   0.00000  Uiso   1.00
H1523  H     0.60746   0.72320   0.81765   0.00000  Uiso   1.00
H1524  H     0.59453   0.67175   0.78992   0.00000  Uiso   1.00
H1525  H     0.58618   0.67676   0.84939   0.00000  Uiso   1.00
O1526  O     0.46612   0.95370   0.68023   0.00000  Uiso   1.00
C1527  C     0.49155   0.96195   0.64273   0.00000  Uiso   1.00
H1528  H     0.48221   0.93878   0.61565   0.00000  Uiso   1.00
H1529  H     0.52437   0.95409   0.64991   0.00000  Uiso   1.00
H1530  H     0.48812   0.99801   0.62999   0.00000  Uiso   1.00
C1531  C     0.75413   0.83375   0.75360   0.00000  Uiso   1.00
C1532  C     0.91256   0.83337   0.74645   0.00000  Uiso   1.00
C1533  C     0.75841   0.81951   0.52349   0.00000  Uiso   1.00
C1534  C     0.90739   0.83283   0.97703   0.00000  Uiso   1.00
C1535  C     0.68770   0.79328   0.75829   0.00000  Uiso   1.00
C1536  C     0.97856   0.87677   0.74341   0.00000  Uiso   1.00
C1537  C     0.98020   0.79275   0.74593   0.00000  Uiso   1.00
C1538  C     0.68698   0.87724   0.75313   0.00000  Uiso   1.00
C1539  C     0.95760   0.83425   0.74347   0.00000  Uiso   1.00
C1540  C     0.70912   0.83500   0.75677   0.00000  Uiso   1.00
C1541  C     0.81209   0.69263   0.71852   0.00000  Uiso   1.00
C1542  C     0.85135   0.97472   0.78372   0.00000  Uiso   1.00
C1543  C     0.85515   0.69099   0.78100   0.00000  Uiso   1.00
C1544  C     0.81536   0.97627   0.71622   0.00000  Uiso   1.00
C1545  C     0.83304   0.83352   0.66460   0.00000  Uiso   1.00
C1546  C     0.83299   0.83312   0.83537   0.00000  Uiso   1.00
C1547  C     0.87011   0.83440   0.90611   0.00000  Uiso   1.00
C1548  C     0.79523   0.82844   0.59414   0.00000  Uiso   1.00
C1549  C     0.83278   0.83225   0.88366   0.00000  Uiso   1.00
C1550  C     0.83263   0.83346   0.61627   0.00000  Uiso   1.00
C1551  C     0.79552   0.82883   0.90681   0.00000  Uiso   1.00
C1552  C     0.86981   0.83457   0.59279   0.00000  Uiso   1.00
C1553  C     0.79568   0.82184   0.95324   0.00000  Uiso   1.00
C1554  C     0.87015   0.82770   0.54663   0.00000  Uiso   1.00
C1555  C     0.83292   0.82641   0.97649   0.00000  Uiso   1.00
C1556  C     0.83266   0.82645   0.52353   0.00000  Uiso   1.00
C1557  C     0.87039   0.83219   0.95297   0.00000  Uiso   1.00
C1558  C     0.79504   0.82533   0.54726   0.00000  Uiso   1.00
C1559  C     0.75980   0.81178   0.97761   0.00000  Uiso   1.00
C1560  C     0.90687   0.82289   0.52247   0.00000  Uiso   1.00
Cu1561 Cu    0.83333   0.88022   0.75000   0.00000  Uiso   1.00
Cu1562 Cu    0.83333   0.78645   0.75000   0.00000  Uiso   1.00
N1563  N     0.83333   0.95069   0.75000   0.00000  Uiso   1.00
N1564  N     0.83333   0.71598   0.75000   0.00000  Uiso   1.00
O1565  O     0.77321   0.87291   0.75000   0.00000  Uiso   1.00
O1566  O     0.89345   0.79375   0.75001   0.00000  Uiso   1.00
O1567  O     0.89345   0.87291   0.75001   0.00000  Uiso   1.00
O1568  O     0.77321   0.79375   0.75000   0.00000  Uiso   1.00
O1569  O     0.83332   0.87293   0.68513   0.00000  Uiso   1.00
O1570  O     0.83334   0.79373   0.81487   0.00000  Uiso   1.00
O1571  O     0.83334   0.87293   0.81487   0.00000  Uiso   1.00
O1572  O     0.83332   0.79373   0.68513   0.00000  Uiso   1.00
O1573  O     0.90538   0.84487   0.88238   0.00000  Uiso   1.00
C1574  C     0.92441   0.80370   0.86773   0.00000  Uiso   1.00
H1575  H     0.91003   0.79261   0.83665   0.00000  Uiso   1.00
H1576  H     0.92386   0.77523   0.89310   0.00000  Uiso   1.00
H1577  H     0.95697   0.81092   0.85995   0.00000  Uiso   1.00
O1578  O     0.75948   0.82222   0.61859   0.00000  Uiso   1.00
C1579  C     0.74406   0.86546   0.63315   0.00000  Uiso   1.00
H1580  H     0.75033   0.89464   0.60966   0.00000  Uiso   1.00
H1581  H     0.75649   0.87359   0.66611   0.00000  Uiso   1.00
H1582  H     0.71036   0.86309   0.63710   0.00000  Uiso   1.00
I1583  I     0.74151   0.85235   0.87274   0.00000  Uiso   1.00
I1584  I     0.92302   0.85769   0.62646   0.00000  Uiso   1.00
I1585  I     0.71199   0.76991   0.95217   0.00000  Uiso   1.00
I1586  I     0.95504   0.77815   0.54542   0.00000  Uiso   1.00
O1587  O     0.72098   0.82024   0.54518   0.00000  Uiso   1.00
C1588  C     0.70097   0.86257   0.53442   0.00000  Uiso   1.00
H1589  H     0.69045   0.86257   0.99951   0.00000  Uiso   1.00
H1590  H     0.72086   0.89299   0.53947   0.00000  Uiso   1.00
H1591  H     0.67380   0.86687   0.55635   0.00000  Uiso   1.00
O1592  O     0.94474   0.83868   0.95609   0.00000  Uiso   1.00
C1593  C     0.95331   0.88643   0.95580   0.00000  Uiso   1.00
H1594  H     0.95687   0.89946   0.99018   0.00000  Uiso   1.00
H1595  H     0.92919   0.90717   0.93830   0.00000  Uiso   1.00
H1596  H     0.98251   0.89193   0.93755   0.00000  Uiso   1.00
I1597  I     0.70993   0.73563   0.79625   0.00000  Uiso   1.00
I1598  I     0.95171   0.93958   0.71742   0.00000  Uiso   1.00
I1599  I     0.96048   0.73347   0.71174   0.00000  Uiso   1.00
I1600  I     0.71208   0.94168   0.77336   0.00000  Uiso   1.00
O1601  O     0.79129   0.71853   0.68648   0.00000  Uiso   1.00
C1602  C     0.75025   0.70458   0.68231   0.00000  Uiso   1.00
H1603  H     0.73095   0.73582   0.67574   0.00000  Uiso   1.00
H1604  H     0.73775   0.68734   0.71256   0.00000  Uiso   1.00
H1605  H     0.74723   0.68153   0.65336   0.00000  Uiso   1.00
O1606  O     0.86759   0.95061   0.81956   0.00000  Uiso   1.00
C1607  C     0.84323   0.95975   0.85765   0.00000  Uiso   1.00
H1608  H     0.85395   0.93691   0.88525   0.00000  Uiso   1.00
H1609  H     0.81037   0.95209   0.85189   0.00000  Uiso   1.00
H1610  H     0.84621   0.99598   0.86886   0.00000  Uiso   1.00
O1611  O     0.87841   0.71525   0.81110   0.00000  Uiso   1.00
C1612  C     0.91796   0.69532   0.81692   0.00000  Uiso   1.00
H1613  H     0.94079   0.72320   0.81765   0.00000  Uiso   1.00
H1614  H     0.92786   0.67175   0.78992   0.00000  Uiso   1.00
H1615  H     0.91951   0.67676   0.84939   0.00000  Uiso   1.00
O1616  O     0.79945   0.95370   0.68023   0.00000  Uiso   1.00
C1617  C     0.82488   0.96195   0.64273   0.00000  Uiso   1.00
H1618  H     0.81555   0.93878   0.61565   0.00000  Uiso   1.00
H1619  H     0.85771   0.95409   0.64991   0.00000  Uiso   1.00
H1620  H     0.82145   0.99801   0.62999   0.00000  Uiso   1.00
loop_
_geom_bond_atom_site_label_1
_geom_bond_atom_site_label_2
_geom_bond_distance
_geom_bond_site_symmetry_2
_ccdc_geom_bond_type
C1     O38     1.310   .     A
C1     O35     1.303   .     A
C1     C10     1.472   .     S
C2     O36     1.315   .     A
C2     O37     1.299   .     A
C2     C9      1.474   .     S
C3     C28     1.412   .     A
C3     O57     1.381   .     S
C3     C839    1.402   1_554 S
C4     O62     1.380   .     S
C4     C27     1.414   .     A
C4     C840    1.393   .     S
C5     I67     2.129   .     S
C5     C10     1.403   .     A
C5     C187    1.388   1_455 S
C6     I68     2.145   .     S
C6     C9      1.415   .     A
C6     C98     1.397   .     S
C7     C9      1.400   .     A
C7     I69     2.121   .     S
C7     C95     1.388   .     S
C8     I70     2.143   .     S
C8     C10     1.413   .     A
C8     C186    1.397   1_455 S
C11    O71     1.388   .     S
C11    N34     1.369   .     A
C11    C554    1.441   1_545 S
C12    O76     1.381   .     S
C12    N33     1.377   .     A
C12    C283    1.442   .     S
C13    O81     1.390   .     S
C13    N34     1.370   .     A
C13    C552    1.442   1_545 S
C14    N33     1.378   .     A
C14    O86     1.380   .     S
C14    C281    1.441   .     S
C15    C20     1.454   .     S
C15    O39     1.303   .     A
C15    O42     1.298   .     A
C16    O40     1.302   .     A
C16    C19     1.452   .     S
C16    O41     1.298   .     A
C17    C27     1.410   .     A
C17    O43     1.386   .     S
C17    C19     1.401   .     A
C18    C28     1.415   .     A
C18    O48     1.388   .     S
C18    C20     1.406   .     A
C19    C21     1.402   .     A
C20    C22     1.401   .     A
C21    C23     1.409   .     A
C21    I53     2.144   .     S
C22    I54     2.138   .     S
C22    C24     1.405   .     A
C23    C29     1.410   .     A
C23    C25     1.416   .     A
C24    C26     1.414   .     A
C24    C30     1.404   .     A
C25    C27     1.420   .     A
C25    C836    1.415   .     S
C26    C28     1.417   .     A
C26    C835    1.415   1_554 S
C29    I55     2.142   .     S
C29    C813    1.402   .     S
C30    I56     2.134   .     S
C30    C814    1.393   1_554 S
Cu31   N33     2.036   .     S
Cu31   O37     1.972   .     S
Cu31   Cu32    2.710   .     S
Cu31   O41     1.960   .     S
Cu31   O35     1.978   .     S
Cu31   O39     1.966   .     S
Cu32   O36     1.978   .     S
Cu32   O38     1.972   .     S
Cu32   N34     2.036   .     S
Cu32   O40     1.966   .     S
Cu32   O42     1.960   .     S
O43    C44     1.408   .     S
C44    H47     1.110   .     S
C44    H46     1.115   .     S
C44    H45     1.103   .     S
O48    C49     1.414   .     S
C49    H51     1.104   .     S
C49    H52     1.110   .     S
C49    H50     1.114   .     S
O57    C58     1.413   .     S
C58    H60     1.114   .     S
C58    H61     1.108   .     S
C58    H869    1.107   1_554 S
H59    C868    1.107   .     S
O62    C63     1.412   .     S
C63    H65     1.114   .     S
C63    H66     1.109   .     S
C63    H64     1.113   .     S
O71    C72     1.413   .     S
C72    H75     1.109   .     S
C72    H74     1.110   .     S
C72    H73     1.110   .     S
O76    C77     1.416   .     S
C77    H78     1.109   .     S
C77    H79     1.114   .     S
C77    H80     1.110   .     S
O81    C82     1.417   .     S
C82    H84     1.110   .     S
C82    H85     1.109   .     S
C82    H83     1.107   .     S
O86    C87     1.415   .     S
C87    H88     1.109   .     S
C87    H89     1.115   .     S
C87    H90     1.110   .     S
C91    O128    1.310   .     A
C91    O125    1.303   .     A
C91    C100    1.472   .     S
C92    O126    1.315   .     A
C92    O127    1.299   .     A
C92    C99     1.474   .     S
C93    C118    1.412   .     A
C93    O147    1.381   .     S
C93    C929    1.402   1_554 S
C94    O152    1.380   .     S
C94    C117    1.414   .     A
C94    C930    1.393   .     S
C95    I157    2.129   .     S
C95    C100    1.403   .     A
C96    I158    2.145   .     S
C96    C99     1.415   .     A
C96    C188    1.397   .     S
C97    C99     1.400   .     A
C97    I159    2.121   .     S
C97    C185    1.388   .     S
C98    I160    2.143   .     S
C98    C100    1.413   .     A
C101   O161    1.388   .     S
C101   N124    1.369   .     A
C101   C644    1.441   1_545 S
C102   O166    1.381   .     S
C102   N123    1.377   .     A
C102   C373    1.442   .     S
C103   O171    1.390   .     S
C103   N124    1.370   .     A
C103   C642    1.442   1_545 S
C104   N123    1.378   .     A
C104   O176    1.380   .     S
C104   C371    1.441   .     S
C105   C110    1.454   .     S
C105   O129    1.303   .     A
C105   O132    1.298   .     A
C106   O130    1.302   .     A
C106   C109    1.452   .     S
C106   O131    1.298   .     A
C107   C117    1.410   .     A
C107   O133    1.386   .     S
C107   C109    1.401   .     A
C108   C118    1.415   .     A
C108   O138    1.388   .     S
C108   C110    1.406   .     A
C109   C111    1.402   .     A
C110   C112    1.401   .     A
C111   C113    1.409   .     A
C111   I143    2.144   .     S
C112   I144    2.138   .     S
C112   C114    1.405   .     A
C113   C119    1.410   .     A
C113   C115    1.416   .     A
C114   C116    1.414   .     A
C114   C120    1.404   .     A
C115   C117    1.420   .     A
C115   C926    1.415   .     S
C116   C118    1.417   .     A
C116   C925    1.415   1_554 S
C119   I145    2.142   .     S
C119   C903    1.402   .     S
C120   I146    2.134   .     S
C120   C904    1.393   1_554 S
Cu121  N123    2.036   .     S
Cu121  O127    1.972   .     S
Cu121  Cu122   2.710   .     S
Cu121  O131    1.960   .     S
Cu121  O125    1.978   .     S
Cu121  O129    1.966   .     S
Cu122  O126    1.978   .     S
Cu122  O128    1.972   .     S
Cu122  N124    2.036   .     S
Cu122  O130    1.966   .     S
Cu122  O132    1.960   .     S
O133   C134    1.408   .     S
C134   H137    1.110   .     S
C134   H136    1.115   .     S
C134   H135    1.103   .     S
O138   C139    1.414   .     S
C139   H141    1.104   .     S
C139   H142    1.110   .     S
C139   H140    1.114   .     S
O147   C148    1.413   .     S
C148   H150    1.114   .     S
C148   H151    1.108   .     S
C148   H959    1.107   1_554 S
H149   C958    1.107   .     S
O152   C153    1.412   .     S
C153   H155    1.114   .     S
C153   H156    1.109   .     S
C153   H154    1.113   .     S
O161   C162    1.413   .     S
C162   H165    1.109   .     S
C162   H164    1.110   .     S
C162   H163    1.110   .     S
O166   C167    1.416   .     S
C167   H168    1.109   .     S
C167   H169    1.114   .     S
C167   H170    1.110   .     S
O171   C172    1.417   .     S
C172   H174    1.110   .     S
C172   H175    1.109   .     S
C172   H173    1.107   .     S
O176   C177    1.415   .     S
C177   H178    1.109   .     S
C177   H179    1.115   .     S
C177   H180    1.110   .     S
C181   O218    1.310   .     A
C181   O215    1.303   .     A
C181   C190    1.472   .     S
C182   O216    1.315   .     A
C182   O217    1.299   .     A
C182   C189    1.474   .     S
C183   C208    1.412   .     A
C183   O237    1.381   .     S
C183   C1019   1.402   1_554 S
C184   O242    1.380   .     S
C184   C207    1.414   .     A
C184   C1020   1.393   .     S
C185   I247    2.129   .     S
C185   C190    1.403   .     A
C186   I248    2.145   .     S
C186   C189    1.415   .     A
C186   C8      1.397   1_655 S
C187   C189    1.400   .     A
C187   I249    2.121   .     S
C187   C5      1.388   1_655 S
C188   I250    2.143   .     S
C188   C190    1.413   .     A
C191   O251    1.388   .     S
C191   N214    1.369   .     A
C191   C734    1.441   1_545 S
C192   O256    1.381   .     S
C192   N213    1.377   .     A
C192   C463    1.442   .     S
C193   O261    1.390   .     S
C193   N214    1.370   .     A
C193   C732    1.442   1_545 S
C194   N213    1.378   .     A
C194   O266    1.380   .     S
C194   C461    1.441   .     S
C195   C200    1.454   .     S
C195   O219    1.303   .     A
C195   O222    1.298   .     A
C196   O220    1.302   .     A
C196   C199    1.452   .     S
C196   O221    1.298   .     A
C197   C207    1.410   .     A
C197   O223    1.386   .     S
C197   C199    1.401   .     A
C198   C208    1.415   .     A
C198   O228    1.388   .     S
C198   C200    1.406   .     A
C199   C201    1.402   .     A
C200   C202    1.401   .     A
C201   C203    1.409   .     A
C201   I233    2.144   .     S
C202   I234    2.138   .     S
C202   C204    1.405   .     A
C203   C209    1.410   .     A
C203   C205    1.416   .     A
C204   C206    1.414   .     A
C204   C210    1.404   .     A
C205   C207    1.420   .     A
C205   C1016   1.415   .     S
C206   C208    1.417   .     A
C206   C1015   1.415   1_554 S
C209   I235    2.142   .     S
C209   C993    1.402   .     S
C210   I236    2.134   .     S
C210   C994    1.393   1_554 S
Cu211  N213    2.036   .     S
Cu211  O217    1.972   .     S
Cu211  Cu212   2.710   .     S
Cu211  O221    1.960   .     S
Cu211  O215    1.978   .     S
Cu211  O219    1.966   .     S
Cu212  O216    1.978   .     S
Cu212  O218    1.972   .     S
Cu212  N214    2.036   .     S
Cu212  O220    1.966   .     S
Cu212  O222    1.960   .     S
O223   C224    1.408   .     S
C224   H227    1.110   .     S
C224   H226    1.115   .     S
C224   H225    1.103   .     S
O228   C229    1.414   .     S
C229   H231    1.104   .     S
C229   H232    1.110   .     S
C229   H230    1.114   .     S
O237   C238    1.413   .     S
C238   H240    1.114   .     S
C238   H241    1.108   .     S
C238   H1049   1.107   1_554 S
H239   C1048   1.107   .     S
O242   C243    1.412   .     S
C243   H245    1.114   .     S
C243   H246    1.109   .     S
C243   H244    1.113   .     S
O251   C252    1.413   .     S
C252   H255    1.109   .     S
C252   H254    1.110   .     S
C252   H253    1.110   .     S
O256   C257    1.416   .     S
C257   H258    1.109   .     S
C257   H259    1.114   .     S
C257   H260    1.110   .     S
O261   C262    1.417   .     S
C262   H264    1.110   .     S
C262   H265    1.109   .     S
C262   H263    1.107   .     S
O266   C267    1.415   .     S
C267   H268    1.109   .     S
C267   H269    1.115   .     S
C267   H270    1.110   .     S
C271   O308    1.310   .     A
C271   O305    1.303   .     A
C271   C280    1.472   .     S
C272   O306    1.315   .     A
C272   O307    1.299   .     A
C272   C279    1.474   .     S
C273   C298    1.412   .     A
C273   O327    1.381   .     S
C273   C1109   1.402   1_554 S
C274   O332    1.380   .     S
C274   C297    1.414   .     A
C274   C1110   1.393   .     S
C275   I337    2.129   .     S
C275   C280    1.403   .     A
C275   C457    1.388   1_455 S
C276   I338    2.145   .     S
C276   C279    1.415   .     A
C276   C368    1.397   .     S
C277   C279    1.400   .     A
C277   I339    2.121   .     S
C277   C365    1.388   .     S
C278   I340    2.143   .     S
C278   C280    1.413   .     A
C278   C456    1.397   1_455 S
C281   O341    1.388   .     S
C281   N304    1.369   .     A
C282   O346    1.381   .     S
C282   N303    1.377   .     A
C282   C553    1.442   .     S
C283   O351    1.390   .     S
C283   N304    1.370   .     A
C284   N303    1.378   .     A
C284   O356    1.380   .     S
C284   C551    1.441   .     S
C285   C290    1.454   .     S
C285   O309    1.303   .     A
C285   O312    1.298   .     A
C286   O310    1.302   .     A
C286   C289    1.452   .     S
C286   O311    1.298   .     A
C287   C297    1.410   .     A
C287   O313    1.386   .     S
C287   C289    1.401   .     A
C288   C298    1.415   .     A
C288   O318    1.388   .     S
C288   C290    1.406   .     A
C289   C291    1.402   .     A
C290   C292    1.401   .     A
C291   C293    1.409   .     A
C291   I323    2.144   .     S
C292   I324    2.138   .     S
C292   C294    1.405   .     A
C293   C299    1.410   .     A
C293   C295    1.416   .     A
C294   C296    1.414   .     A
C294   C300    1.404   .     A
C295   C297    1.420   .     A
C295   C1106   1.415   .     S
C296   C298    1.417   .     A
C296   C1105   1.415   1_554 S
C299   I325    2.142   .     S
C299   C1083   1.402   .     S
C300   I326    2.134   .     S
C300   C1084   1.393   1_554 S
Cu301  N303    2.036   .     S
Cu301  O307    1.972   .     S
Cu301  Cu302   2.710   .     S
Cu301  O311    1.960   .     S
Cu301  O305    1.978   .     S
Cu301  O309    1.966   .     S
Cu302  O306    1.978   .     S
Cu302  O308    1.972   .     S
Cu302  N304    2.036   .     S
Cu302  O310    1.966   .     S
Cu302  O312    1.960   .     S
O313   C314    1.408   .     S
C314   H317    1.110   .     S
C314   H316    1.115   .     S
C314   H315    1.103   .     S
O318   C319    1.414   .     S
C319   H321    1.104   .     S
C319   H322    1.110   .     S
C319   H320    1.114   .     S
O327   C328    1.413   .     S
C328   H330    1.114   .     S
C328   H331    1.108   .     S
C328   H1139   1.107   1_554 S
H329   C1138   1.107   .     S
O332   C333    1.412   .     S
C333   H335    1.114   .     S
C333   H336    1.109   .     S
C333   H334    1.113   .     S
O341   C342    1.413   .     S
C342   H345    1.109   .     S
C342   H344    1.110   .     S
C342   H343    1.110   .     S
O346   C347    1.416   .     S
C347   H348    1.109   .     S
C347   H349    1.114   .     S
C347   H350    1.110   .     S
O351   C352    1.417   .     S
C352   H354    1.110   .     S
C352   H355    1.109   .     S
C352   H353    1.107   .     S
O356   C357    1.415   .     S
C357   H358    1.109   .     S
C357   H359    1.115   .     S
C357   H360    1.110   .     S
C361   O398    1.310   .     A
C361   O395    1.303   .     A
C361   C370    1.472   .     S
C362   O396    1.315   .     A
C362   O397    1.299   .     A
C362   C369    1.474   .     S
C363   C388    1.412   .     A
C363   O417    1.381   .     S
C363   C1199   1.402   1_554 S
C364   O422    1.380   .     S
C364   C387    1.414   .     A
C364   C1200   1.393   .     S
C365   I427    2.129   .     S
C365   C370    1.403   .     A
C366   I428    2.145   .     S
C366   C369    1.415   .     A
C366   C458    1.397   .     S
C367   C369    1.400   .     A
C367   I429    2.121   .     S
C367   C455    1.388   .     S
C368   I430    2.143   .     S
C368   C370    1.413   .     A
C371   O431    1.388   .     S
C371   N394    1.369   .     A
C372   O436    1.381   .     S
C372   N393    1.377   .     A
C372   C643    1.442   .     S
C373   O441    1.390   .     S
C373   N394    1.370   .     A
C374   N393    1.378   .     A
C374   O446    1.380   .     S
C374   C641    1.441   .     S
C375   C380    1.454   .     S
C375   O399    1.303   .     A
C375   O402    1.298   .     A
C376   O400    1.302   .     A
C376   C379    1.452   .     S
C376   O401    1.298   .     A
C377   C387    1.410   .     A
C377   O403    1.386   .     S
C377   C379    1.401   .     A
C378   C388    1.415   .     A
C378   O408    1.388   .     S
C378   C380    1.406   .     A
C379   C381    1.402   .     A
C380   C382    1.401   .     A
C381   C383    1.409   .     A
C381   I413    2.144   .     S
C382   I414    2.138   .     S
C382   C384    1.405   .     A
C383   C389    1.410   .     A
C383   C385    1.416   .     A
C384   C386    1.414   .     A
C384   C390    1.404   .     A
C385   C387    1.420   .     A
C385   C1196   1.415   .     S
C386   C388    1.417   .     A
C386   C1195   1.415   1_554 S
C389   I415    2.142   .     S
C389   C1173   1.402   .     S
C390   I416    2.134   .     S
C390   C1174   1.393   1_554 S
Cu391  N393    2.036   .     S
Cu391  O397    1.972   .     S
Cu391  Cu392   2.710   .     S
Cu391  O401    1.960   .     S
Cu391  O395    1.978   .     S
Cu391  O399    1.966   .     S
Cu392  O396    1.978   .     S
Cu392  O398    1.972   .     S
Cu392  N394    2.036   .     S
Cu392  O400    1.966   .     S
Cu392  O402    1.960   .     S
O403   C404    1.408   .     S
C404   H407    1.110   .     S
C404   H406    1.115   .     S
C404   H405    1.103   .     S
O408   C409    1.414   .     S
C409   H411    1.104   .     S
C409   H412    1.110   .     S
C409   H410    1.114   .     S
O417   C418    1.413   .     S
C418   H420    1.114   .     S
C418   H421    1.108   .     S
C418   H1229   1.107   1_554 S
H419   C1228   1.107   .     S
O422   C423    1.412   .     S
C423   H425    1.114   .     S
C423   H426    1.109   .     S
C423   H424    1.113   .     S
O431   C432    1.413   .     S
C432   H435    1.109   .     S
C432   H434    1.110   .     S
C432   H433    1.110   .     S
O436   C437    1.416   .     S
C437   H438    1.109   .     S
C437   H439    1.114   .     S
C437   H440    1.110   .     S
O441   C442    1.417   .     S
C442   H444    1.110   .     S
C442   H445    1.109   .     S
C442   H443    1.107   .     S
O446   C447    1.415   .     S
C447   H448    1.109   .     S
C447   H449    1.115   .     S
C447   H450    1.110   .     S
C451   O488    1.310   .     A
C451   O485    1.303   .     A
C451   C460    1.472   .     S
C452   O486    1.315   .     A
C452   O487    1.299   .     A
C452   C459    1.474   .     S
C453   C478    1.412   .     A
C453   O507    1.381   .     S
C453   C1289   1.402   1_554 S
C454   O512    1.380   .     S
C454   C477    1.414   .     A
C454   C1290   1.393   .     S
C455   I517    2.129   .     S
C455   C460    1.403   .     A
C456   I518    2.145   .     S
C456   C459    1.415   .     A
C456   C278    1.397   1_655 S
C457   C459    1.400   .     A
C457   I519    2.121   .     S
C457   C275    1.388   1_655 S
C458   I520    2.143   .     S
C458   C460    1.413   .     A
C461   O521    1.388   .     S
C461   N484    1.369   .     A
C462   O526    1.381   .     S
C462   N483    1.377   .     A
C462   C733    1.442   .     S
C463   O531    1.390   .     S
C463   N484    1.370   .     A
C464   N483    1.378   .     A
C464   O536    1.380   .     S
C464   C731    1.441   .     S
C465   C470    1.454   .     S
C465   O489    1.303   .     A
C465   O492    1.298   .     A
C466   O490    1.302   .     A
C466   C469    1.452   .     S
C466   O491    1.298   .     A
C467   C477    1.410   .     A
C467   O493    1.386   .     S
C467   C469    1.401   .     A
C468   C478    1.415   .     A
C468   O498    1.388   .     S
C468   C470    1.406   .     A
C469   C471    1.402   .     A
C470   C472    1.401   .     A
C471   C473    1.409   .     A
C471   I503    2.144   .     S
C472   I504    2.138   .     S
C472   C474    1.405   .     A
C473   C479    1.410   .     A
C473   C475    1.416   .     A
C474   C476    1.414   .     A
C474   C480    1.404   .     A
C475   C477    1.420   .     A
C475   C1286   1.415   .     S
C476   C478    1.417   .     A
C476   C1285   1.415   1_554 S
C479   I505    2.142   .     S
C479   C1263   1.402   .     S
C480   I506    2.134   .     S
C480   C1264   1.393   1_554 S
Cu481  N483    2.036   .     S
Cu481  O487    1.972   .     S
Cu481  Cu482   2.710   .     S
Cu481  O491    1.960   .     S
Cu481  O485    1.978   .     S
Cu481  O489    1.966   .     S
Cu482  O486    1.978   .     S
Cu482  O488    1.972   .     S
Cu482  N484    2.036   .     S
Cu482  O490    1.966   .     S
Cu482  O492    1.960   .     S
O493   C494    1.408   .     S
C494   H497    1.110   .     S
C494   H496    1.115   .     S
C494   H495    1.103   .     S
O498   C499    1.414   .     S
C499   H501    1.104   .     S
C499   H502    1.110   .     S
C499   H500    1.114   .     S
O507   C508    1.413   .     S
C508   H510    1.114   .     S
C508   H511    1.108   .     S
C508   H1319   1.107   1_554 S
H509   C1318   1.107   .     S
O512   C513    1.412   .     S
C513   H515    1.114   .     S
C513   H516    1.109   .     S
C513   H514    1.113   .     S
O521   C522    1.413   .     S
C522   H525    1.109   .     S
C522   H524    1.110   .     S
C522   H523    1.110   .     S
O526   C527    1.416   .     S
C527   H528    1.109   .     S
C527   H529    1.114   .     S
C527   H530    1.110   .     S
O531   C532    1.417   .     S
C532   H534    1.110   .     S
C532   H535    1.109   .     S
C532   H533    1.107   .     S
O536   C537    1.415   .     S
C537   H538    1.109   .     S
C537   H539    1.115   .     S
C537   H540    1.110   .     S
C541   O578    1.310   .     A
C541   O575    1.303   .     A
C541   C550    1.472   .     S
C542   O576    1.315   .     A
C542   O577    1.299   .     A
C542   C549    1.474   .     S
C543   C568    1.412   .     A
C543   O597    1.381   .     S
C543   C1379   1.402   1_554 S
C544   O602    1.380   .     S
C544   C567    1.414   .     A
C544   C1380   1.393   .     S
C545   I607    2.129   .     S
C545   C550    1.403   .     A
C545   C727    1.388   1_455 S
C546   I608    2.145   .     S
C546   C549    1.415   .     A
C546   C638    1.397   .     S
C547   C549    1.400   .     A
C547   I609    2.121   .     S
C547   C635    1.388   .     S
C548   I610    2.143   .     S
C548   C550    1.413   .     A
C548   C726    1.397   1_455 S
C551   O611    1.388   .     S
C551   N574    1.369   .     A
C552   O616    1.381   .     S
C552   N573    1.377   .     A
C552   C13     1.442   1_565 S
C553   O621    1.390   .     S
C553   N574    1.370   .     A
C554   N573    1.378   .     A
C554   O626    1.380   .     S
C554   C11     1.441   1_565 S
C555   C560    1.454   .     S
C555   O579    1.303   .     A
C555   O582    1.298   .     A
C556   O580    1.302   .     A
C556   C559    1.452   .     S
C556   O581    1.298   .     A
C557   C567    1.410   .     A
C557   O583    1.386   .     S
C557   C559    1.401   .     A
C558   C568    1.415   .     A
C558   O588    1.388   .     S
C558   C560    1.406   .     A
C559   C561    1.402   .     A
C560   C562    1.401   .     A
C561   C563    1.409   .     A
C561   I593    2.144   .     S
C562   I594    2.138   .     S
C562   C564    1.405   .     A
C563   C569    1.410   .     A
C563   C565    1.416   .     A
C564   C566    1.414   .     A
C564   C570    1.404   .     A
C565   C567    1.420   .     A
C565   C1376   1.415   .     S
C566   C568    1.417   .     A
C566   C1375   1.415   1_554 S
C569   I595    2.142   .     S
C569   C1353   1.402   .     S
C570   I596    2.134   .     S
C570   C1354   1.393   1_554 S
Cu571  N573    2.036   .     S
Cu571  O577    1.972   .     S
Cu571  Cu572   2.710   .     S
Cu571  O581    1.960   .     S
Cu571  O575    1.978   .     S
Cu571  O579    1.966   .     S
Cu572  O576    1.978   .     S
Cu572  O578    1.972   .     S
Cu572  N574    2.036   .     S
Cu572  O580    1.966   .     S
Cu572  O582    1.960   .     S
O583   C584    1.408   .     S
C584   H587    1.110   .     S
C584   H586    1.115   .     S
C584   H585    1.103   .     S
O588   C589    1.414   .     S
C589   H591    1.104   .     S
C589   H592    1.110   .     S
C589   H590    1.114   .     S
O597   C598    1.413   .     S
C598   H600    1.114   .     S
C598   H601    1.108   .     S
C598   H1409   1.107   1_554 S
H599   C1408   1.107   .     S
O602   C603    1.412   .     S
C603   H605    1.114   .     S
C603   H606    1.109   .     S
C603   H604    1.113   .     S
O611   C612    1.413   .     S
C612   H615    1.109   .     S
C612   H614    1.110   .     S
C612   H613    1.110   .     S
O616   C617    1.416   .     S
C617   H618    1.109   .     S
C617   H619    1.114   .     S
C617   H620    1.110   .     S
O621   C622    1.417   .     S
C622   H624    1.110   .     S
C622   H625    1.109   .     S
C622   H623    1.107   .     S
O626   C627    1.415   .     S
C627   H628    1.109   .     S
C627   H629    1.115   .     S
C627   H630    1.110   .     S
C631   O668    1.310   .     A
C631   O665    1.303   .     A
C631   C640    1.472   .     S
C632   O666    1.315   .     A
C632   O667    1.299   .     A
C632   C639    1.474   .     S
C633   C658    1.412   .     A
C633   O687    1.381   .     S
C633   C1469   1.402   1_554 S
C634   O692    1.380   .     S
C634   C657    1.414   .     A
C634   C1470   1.393   .     S
C635   I697    2.129   .     S
C635   C640    1.403   .     A
C636   I698    2.145   .     S
C636   C639    1.415   .     A
C636   C728    1.397   .     S
C637   C639    1.400   .     A
C637   I699    2.121   .     S
C637   C725    1.388   .     S
C638   I700    2.143   .     S
C638   C640    1.413   .     A
C641   O701    1.388   .     S
C641   N664    1.369   .     A
C642   O706    1.381   .     S
C642   N663    1.377   .     A
C642   C103    1.442   1_565 S
C643   O711    1.390   .     S
C643   N664    1.370   .     A
C644   N663    1.378   .     A
C644   O716    1.380   .     S
C644   C101    1.441   1_565 S
C645   C650    1.454   .     S
C645   O669    1.303   .     A
C645   O672    1.298   .     A
C646   O670    1.302   .     A
C646   C649    1.452   .     S
C646   O671    1.298   .     A
C647   C657    1.410   .     A
C647   O673    1.386   .     S
C647   C649    1.401   .     A
C648   C658    1.415   .     A
C648   O678    1.388   .     S
C648   C650    1.406   .     A
C649   C651    1.402   .     A
C650   C652    1.401   .     A
C651   C653    1.409   .     A
C651   I683    2.144   .     S
C652   I684    2.138   .     S
C652   C654    1.405   .     A
C653   C659    1.410   .     A
C653   C655    1.416   .     A
C654   C656    1.414   .     A
C654   C660    1.404   .     A
C655   C657    1.420   .     A
C655   C1466   1.415   .     S
C656   C658    1.417   .     A
C656   C1465   1.415   1_554 S
C659   I685    2.142   .     S
C659   C1443   1.402   .     S
C660   I686    2.134   .     S
C660   C1444   1.393   1_554 S
Cu661  N663    2.036   .     S
Cu661  O667    1.972   .     S
Cu661  Cu662   2.710   .     S
Cu661  O671    1.960   .     S
Cu661  O665    1.978   .     S
Cu661  O669    1.966   .     S
Cu662  O666    1.978   .     S
Cu662  O668    1.972   .     S
Cu662  N664    2.036   .     S
Cu662  O670    1.966   .     S
Cu662  O672    1.960   .     S
O673   C674    1.408   .     S
C674   H677    1.110   .     S
C674   H676    1.115   .     S
C674   H675    1.103   .     S
O678   C679    1.414   .     S
C679   H681    1.104   .     S
C679   H682    1.110   .     S
C679   H680    1.114   .     S
O687   C688    1.413   .     S
C688   H690    1.114   .     S
C688   H691    1.108   .     S
C688   H1499   1.107   1_554 S
H689   C1498   1.107   .     S
O692   C693    1.412   .     S
C693   H695    1.114   .     S
C693   H696    1.109   .     S
C693   H694    1.113   .     S
O701   C702    1.413   .     S
C702   H705    1.109   .     S
C702   H704    1.110   .     S
C702   H703    1.110   .     S
O706   C707    1.416   .     S
C707   H708    1.109   .     S
C707   H709    1.114   .     S
C707   H710    1.110   .     S
O711   C712    1.417   .     S
C712   H714    1.110   .     S
C712   H715    1.109   .     S
C712   H713    1.107   .     S
O716   C717    1.415   .     S
C717   H718    1.109   .     S
C717   H719    1.115   .     S
C717   H720    1.110   .     S
C721   O758    1.310   .     A
C721   O755    1.303   .     A
C721   C730    1.472   .     S
C722   O756    1.315   .     A
C722   O757    1.299   .     A
C722   C729    1.474   .     S
C723   C748    1.412   .     A
C723   O777    1.381   .     S
C723   C1559   1.402   1_554 S
C724   O782    1.380   .     S
C724   C747    1.414   .     A
C724   C1560   1.393   .     S
C725   I787    2.129   .     S
C725   C730    1.403   .     A
C726   I788    2.145   .     S
C726   C729    1.415   .     A
C726   C548    1.397   1_655 S
C727   C729    1.400   .     A
C727   I789    2.121   .     S
C727   C545    1.388   1_655 S
C728   I790    2.143   .     S
C728   C730    1.413   .     A
C731   O791    1.388   .     S
C731   N754    1.369   .     A
C732   O796    1.381   .     S
C732   N753    1.377   .     A
C732   C193    1.442   1_565 S
C733   O801    1.390   .     S
C733   N754    1.370   .     A
C734   N753    1.378   .     A
C734   O806    1.380   .     S
C734   C191    1.441   1_565 S
C735   C740    1.454   .     S
C735   O759    1.303   .     A
C735   O762    1.298   .     A
C736   O760    1.302   .     A
C736   C739    1.452   .     S
C736   O761    1.298   .     A
C737   C747    1.410   .     A
C737   O763    1.386   .     S
C737   C739    1.401   .     A
C738   C748    1.415   .     A
C738   O768    1.388   .     S
C738   C740    1.406   .     A
C739   C741    1.402   .     A
C740   C742    1.401   .     A
C741   C743    1.409   .     A
C741   I773    2.144   .     S
C742   I774    2.138   .     S
C742   C744    1.405   .     A
C743   C749    1.410   .     A
C743   C745    1.416   .     A
C744   C746    1.414   .     A
C744   C750    1.404   .     A
C745   C747    1.420   .     A
C745   C1556   1.415   .     S
C746   C748    1.417   .     A
C746   C1555   1.415   1_554 S
C749   I775    2.142   .     S
C749   C1533   1.402   .     S
C750   I776    2.134   .     S
C750   C1534   1.393   1_554 S
Cu751  N753    2.036   .     S
Cu751  O757    1.972   .     S
Cu751  Cu752   2.710   .     S
Cu751  O761    1.960   .     S
Cu751  O755    1.978   .     S
Cu751  O759    1.966   .     S
Cu752  O756    1.978   .     S
Cu752  O758    1.972   .     S
Cu752  N754    2.036   .     S
Cu752  O760    1.966   .     S
Cu752  O762    1.960   .     S
O763   C764    1.408   .     S
C764   H767    1.110   .     S
C764   H766    1.115   .     S
C764   H765    1.103   .     S
O768   C769    1.414   .     S
C769   H771    1.104   .     S
C769   H772    1.110   .     S
C769   H770    1.114   .     S
O777   C778    1.413   .     S
C778   H780    1.114   .     S
C778   H781    1.108   .     S
C778   H1589   1.107   1_554 S
H779   C1588   1.107   .     S
O782   C783    1.412   .     S
C783   H785    1.114   .     S
C783   H786    1.109   .     S
C783   H784    1.113   .     S
O791   C792    1.413   .     S
C792   H795    1.109   .     S
C792   H794    1.110   .     S
C792   H793    1.110   .     S
O796   C797    1.416   .     S
C797   H798    1.109   .     S
C797   H799    1.114   .     S
C797   H800    1.110   .     S
O801   C802    1.417   .     S
C802   H804    1.110   .     S
C802   H805    1.109   .     S
C802   H803    1.107   .     S
O806   C807    1.415   .     S
C807   H808    1.109   .     S
C807   H809    1.115   .     S
C807   H810    1.110   .     S
C811   O848    1.310   .     A
C811   O845    1.303   .     A
C811   C820    1.472   .     S
C812   O846    1.315   .     A
C812   O847    1.299   .     A
C812   C819    1.474   .     S
C813   C838    1.412   .     A
C813   O867    1.381   .     S
C814   O872    1.380   .     S
C814   C837    1.414   .     A
C814   C30     1.393   1_556 S
C815   I877    2.129   .     S
C815   C820    1.403   .     A
C815   C997    1.388   1_455 S
C816   I878    2.145   .     S
C816   C819    1.415   .     A
C816   C908    1.397   .     S
C817   C819    1.400   .     A
C817   I879    2.121   .     S
C817   C905    1.388   .     S
C818   I880    2.143   .     S
C818   C820    1.413   .     A
C818   C996    1.397   1_455 S
C821   O881    1.388   .     S
C821   N844    1.369   .     A
C821   C1364   1.441   1_545 S
C822   O886    1.381   .     S
C822   N843    1.377   .     A
C822   C1093   1.442   .     S
C823   O891    1.390   .     S
C823   N844    1.370   .     A
C823   C1362   1.442   1_545 S
C824   N843    1.378   .     A
C824   O896    1.380   .     S
C824   C1091   1.441   .     S
C825   C830    1.454   .     S
C825   O849    1.303   .     A
C825   O852    1.298   .     A
C826   O850    1.302   .     A
C826   C829    1.452   .     S
C826   O851    1.298   .     A
C827   C837    1.410   .     A
C827   O853    1.386   .     S
C827   C829    1.401   .     A
C828   C838    1.415   .     A
C828   O858    1.388   .     S
C828   C830    1.406   .     A
C829   C831    1.402   .     A
C830   C832    1.401   .     A
C831   C833    1.409   .     A
C831   I863    2.144   .     S
C832   I864    2.138   .     S
C832   C834    1.405   .     A
C833   C839    1.410   .     A
C833   C835    1.416   .     A
C834   C836    1.414   .     A
C834   C840    1.404   .     A
C835   C837    1.420   .     A
C835   C26     1.415   1_556 S
C836   C838    1.417   .     A
C839   I865    2.142   .     S
C839   C3      1.402   1_556 S
C840   I866    2.134   .     S
Cu841  N843    2.036   .     S
Cu841  O847    1.972   .     S
Cu841  Cu842   2.710   .     S
Cu841  O851    1.960   .     S
Cu841  O845    1.978   .     S
Cu841  O849    1.966   .     S
Cu842  O846    1.978   .     S
Cu842  O848    1.972   .     S
Cu842  N844    2.036   .     S
Cu842  O850    1.966   .     S
Cu842  O852    1.960   .     S
O853   C854    1.408   .     S
C854   H857    1.110   .     S
C854   H856    1.115   .     S
C854   H855    1.103   .     S
O858   C859    1.414   .     S
C859   H861    1.104   .     S
C859   H862    1.110   .     S
C859   H860    1.114   .     S
O867   C868    1.413   .     S
C868   H870    1.114   .     S
C868   H871    1.108   .     S
H869   C58     1.107   1_556 S
O872   C873    1.412   .     S
C873   H875    1.114   .     S
C873   H876    1.109   .     S
C873   H874    1.113   .     S
O881   C882    1.413   .     S
C882   H885    1.109   .     S
C882   H884    1.110   .     S
C882   H883    1.110   .     S
O886   C887    1.416   .     S
C887   H888    1.109   .     S
C887   H889    1.114   .     S
C887   H890    1.110   .     S
O891   C892    1.417   .     S
C892   H894    1.110   .     S
C892   H895    1.109   .     S
C892   H893    1.107   .     S
O896   C897    1.415   .     S
C897   H898    1.109   .     S
C897   H899    1.115   .     S
C897   H900    1.110   .     S
C901   O938    1.310   .     A
C901   O935    1.303   .     A
C901   C910    1.472   .     S
C902   O936    1.315   .     A
C902   O937    1.299   .     A
C902   C909    1.474   .     S
C903   C928    1.412   .     A
C903   O957    1.381   .     S
C904   O962    1.380   .     S
C904   C927    1.414   .     A
C904   C120    1.393   1_556 S
C905   I967    2.129   .     S
C905   C910    1.403   .     A
C906   I968    2.145   .     S
C906   C909    1.415   .     A
C906   C998    1.397   .     S
C907   C909    1.400   .     A
C907   I969    2.121   .     S
C907   C995    1.388   .     S
C908   I970    2.143   .     S
C908   C910    1.413   .     A
C911   O971    1.388   .     S
C911   N934    1.369   .     A
C911   C1454   1.441   1_545 S
C912   O976    1.381   .     S
C912   N933    1.377   .     A
C912   C1183   1.442   .     S
C913   O981    1.390   .     S
C913   N934    1.370   .     A
C913   C1452   1.442   1_545 S
C914   N933    1.378   .     A
C914   O986    1.380   .     S
C914   C1181   1.441   .     S
C915   C920    1.454   .     S
C915   O939    1.303   .     A
C915   O942    1.298   .     A
C916   O940    1.302   .     A
C916   C919    1.452   .     S
C916   O941    1.298   .     A
C917   C927    1.410   .     A
C917   O943    1.386   .     S
C917   C919    1.401   .     A
C918   C928    1.415   .     A
C918   O948    1.388   .     S
C918   C920    1.406   .     A
C919   C921    1.402   .     A
C920   C922    1.401   .     A
C921   C923    1.409   .     A
C921   I953    2.144   .     S
C922   I954    2.138   .     S
C922   C924    1.405   .     A
C923   C929    1.410   .     A
C923   C925    1.416   .     A
C924   C926    1.414   .     A
C924   C930    1.404   .     A
C925   C927    1.420   .     A
C925   C116    1.415   1_556 S
C926   C928    1.417   .     A
C929   I955    2.142   .     S
C929   C93     1.402   1_556 S
C930   I956    2.134   .     S
Cu931  N933    2.036   .     S
Cu931  O937    1.972   .     S
Cu931  Cu932   2.710   .     S
Cu931  O941    1.960   .     S
Cu931  O935    1.978   .     S
Cu931  O939    1.966   .     S
Cu932  O936    1.978   .     S
Cu932  O938    1.972   .     S
Cu932  N934    2.036   .     S
Cu932  O940    1.966   .     S
Cu932  O942    1.960   .     S
O943   C944    1.408   .     S
C944   H947    1.110   .     S
C944   H946    1.115   .     S
C944   H945    1.103   .     S
O948   C949    1.414   .     S
C949   H951    1.104   .     S
C949   H952    1.110   .     S
C949   H950    1.114   .     S
O957   C958    1.413   .     S
C958   H960    1.114   .     S
C958   H961    1.108   .     S
H959   C148    1.107   1_556 S
O962   C963    1.412   .     S
C963   H965    1.114   .     S
C963   H966    1.109   .     S
C963   H964    1.113   .     S
O971   C972    1.413   .     S
C972   H975    1.109   .     S
C972   H974    1.110   .     S
C972   H973    1.110   .     S
O976   C977    1.416   .     S
C977   H978    1.109   .     S
C977   H979    1.114   .     S
C977   H980    1.110   .     S
O981   C982    1.417   .     S
C982   H984    1.110   .     S
C982   H985    1.109   .     S
C982   H983    1.107   .     S
O986   C987    1.415   .     S
C987   H988    1.109   .     S
C987   H989    1.115   .     S
C987   H990    1.110   .     S
C991   O1028   1.310   .     A
C991   O1025   1.303   .     A
C991   C1000   1.472   .     S
C992   O1026   1.315   .     A
C992   O1027   1.299   .     A
C992   C999    1.474   .     S
C993   C1018   1.412   .     A
C993   O1047   1.381   .     S
C994   O1052   1.380   .     S
C994   C1017   1.414   .     A
C994   C210    1.393   1_556 S
C995   I1057   2.129   .     S
C995   C1000   1.403   .     A
C996   I1058   2.145   .     S
C996   C999    1.415   .     A
C996   C818    1.397   1_655 S
C997   C999    1.400   .     A
C997   I1059   2.121   .     S
C997   C815    1.388   1_655 S
C998   I1060   2.143   .     S
C998   C1000   1.413   .     A
C1001  O1061   1.388   .     S
C1001  N1024   1.369   .     A
C1001  C1544   1.441   1_545 S
C1002  O1066   1.381   .     S
C1002  N1023   1.377   .     A
C1002  C1273   1.442   .     S
C1003  O1071   1.390   .     S
C1003  N1024   1.370   .     A
C1003  C1542   1.442   1_545 S
C1004  N1023   1.378   .     A
C1004  O1076   1.380   .     S
C1004  C1271   1.441   .     S
C1005  C1010   1.454   .     S
C1005  O1029   1.303   .     A
C1005  O1032   1.298   .     A
C1006  O1030   1.302   .     A
C1006  C1009   1.452   .     S
C1006  O1031   1.298   .     A
C1007  C1017   1.410   .     A
C1007  O1033   1.386   .     S
C1007  C1009   1.401   .     A
C1008  C1018   1.415   .     A
C1008  O1038   1.388   .     S
C1008  C1010   1.406   .     A
C1009  C1011   1.402   .     A
C1010  C1012   1.401   .     A
C1011  C1013   1.409   .     A
C1011  I1043   2.144   .     S
C1012  I1044   2.138   .     S
C1012  C1014   1.405   .     A
C1013  C1019   1.410   .     A
C1013  C1015   1.416   .     A
C1014  C1016   1.414   .     A
C1014  C1020   1.404   .     A
C1015  C1017   1.420   .     A
C1015  C206    1.415   1_556 S
C1016  C1018   1.417   .     A
C1019  I1045   2.142   .     S
C1019  C183    1.402   1_556 S
C1020  I1046   2.134   .     S
Cu1021 N1023   2.036   .     S
Cu1021 O1027   1.972   .     S
Cu1021 Cu1022  2.710   .     S
Cu1021 O1031   1.960   .     S
Cu1021 O1025   1.978   .     S
Cu1021 O1029   1.966   .     S
Cu1022 O1026   1.978   .     S
Cu1022 O1028   1.972   .     S
Cu1022 N1024   2.036   .     S
Cu1022 O1030   1.966   .     S
Cu1022 O1032   1.960   .     S
O1033  C1034   1.408   .     S
C1034  H1037   1.110   .     S
C1034  H1036   1.115   .     S
C1034  H1035   1.103   .     S
O1038  C1039   1.414   .     S
C1039  H1041   1.104   .     S
C1039  H1042   1.110   .     S
C1039  H1040   1.114   .     S
O1047  C1048   1.413   .     S
C1048  H1050   1.114   .     S
C1048  H1051   1.108   .     S
H1049  C238    1.107   1_556 S
O1052  C1053   1.412   .     S
C1053  H1055   1.114   .     S
C1053  H1056   1.109   .     S
C1053  H1054   1.113   .     S
O1061  C1062   1.413   .     S
C1062  H1065   1.109   .     S
C1062  H1064   1.110   .     S
C1062  H1063   1.110   .     S
O1066  C1067   1.416   .     S
C1067  H1068   1.109   .     S
C1067  H1069   1.114   .     S
C1067  H1070   1.110   .     S
O1071  C1072   1.417   .     S
C1072  H1074   1.110   .     S
C1072  H1075   1.109   .     S
C1072  H1073   1.107   .     S
O1076  C1077   1.415   .     S
C1077  H1078   1.109   .     S
C1077  H1079   1.115   .     S
C1077  H1080   1.110   .     S
C1081  O1118   1.310   .     A
C1081  O1115   1.303   .     A
C1081  C1090   1.472   .     S
C1082  O1116   1.315   .     A
C1082  O1117   1.299   .     A
C1082  C1089   1.474   .     S
C1083  C1108   1.412   .     A
C1083  O1137   1.381   .     S
C1084  O1142   1.380   .     S
C1084  C1107   1.414   .     A
C1084  C300    1.393   1_556 S
C1085  I1147   2.129   .     S
C1085  C1090   1.403   .     A
C1085  C1267   1.388   1_455 S
C1086  I1148   2.145   .     S
C1086  C1089   1.415   .     A
C1086  C1178   1.397   .     S
C1087  C1089   1.400   .     A
C1087  I1149   2.121   .     S
C1087  C1175   1.388   .     S
C1088  I1150   2.143   .     S
C1088  C1090   1.413   .     A
C1088  C1266   1.397   1_455 S
C1091  O1151   1.388   .     S
C1091  N1114   1.369   .     A
C1092  O1156   1.381   .     S
C1092  N1113   1.377   .     A
C1092  C1363   1.442   .     S
C1093  O1161   1.390   .     S
C1093  N1114   1.370   .     A
C1094  N1113   1.378   .     A
C1094  O1166   1.380   .     S
C1094  C1361   1.441   .     S
C1095  C1100   1.454   .     S
C1095  O1119   1.303   .     A
C1095  O1122   1.298   .     A
C1096  O1120   1.302   .     A
C1096  C1099   1.452   .     S
C1096  O1121   1.298   .     A
C1097  C1107   1.410   .     A
C1097  O1123   1.386   .     S
C1097  C1099   1.401   .     A
C1098  C1108   1.415   .     A
C1098  O1128   1.388   .     S
C1098  C1100   1.406   .     A
C1099  C1101   1.402   .     A
C1100  C1102   1.401   .     A
C1101  C1103   1.409   .     A
C1101  I1133   2.144   .     S
C1102  I1134   2.138   .     S
C1102  C1104   1.405   .     A
C1103  C1109   1.410   .     A
C1103  C1105   1.416   .     A
C1104  C1106   1.414   .     A
C1104  C1110   1.404   .     A
C1105  C1107   1.420   .     A
C1105  C296    1.415   1_556 S
C1106  C1108   1.417   .     A
C1109  I1135   2.142   .     S
C1109  C273    1.402   1_556 S
C1110  I1136   2.134   .     S
Cu1111 N1113   2.036   .     S
Cu1111 O1117   1.972   .     S
Cu1111 Cu1112  2.710   .     S
Cu1111 O1121   1.960   .     S
Cu1111 O1115   1.978   .     S
Cu1111 O1119   1.966   .     S
Cu1112 O1116   1.978   .     S
Cu1112 O1118   1.972   .     S
Cu1112 N1114   2.036   .     S
Cu1112 O1120   1.966   .     S
Cu1112 O1122   1.960   .     S
O1123  C1124   1.408   .     S
C1124  H1127   1.110   .     S
C1124  H1126   1.115   .     S
C1124  H1125   1.103   .     S
O1128  C1129   1.414   .     S
C1129  H1131   1.104   .     S
C1129  H1132   1.110   .     S
C1129  H1130   1.114   .     S
O1137  C1138   1.413   .     S
C1138  H1140   1.114   .     S
C1138  H1141   1.108   .     S
H1139  C328    1.107   1_556 S
O1142  C1143   1.412   .     S
C1143  H1145   1.114   .     S
C1143  H1146   1.109   .     S
C1143  H1144   1.113   .     S
O1151  C1152   1.413   .     S
C1152  H1155   1.109   .     S
C1152  H1154   1.110   .     S
C1152  H1153   1.110   .     S
O1156  C1157   1.416   .     S
C1157  H1158   1.109   .     S
C1157  H1159   1.114   .     S
C1157  H1160   1.110   .     S
O1161  C1162   1.417   .     S
C1162  H1164   1.110   .     S
C1162  H1165   1.109   .     S
C1162  H1163   1.107   .     S
O1166  C1167   1.415   .     S
C1167  H1168   1.109   .     S
C1167  H1169   1.115   .     S
C1167  H1170   1.110   .     S
C1171  O1208   1.310   .     A
C1171  O1205   1.303   .     A
C1171  C1180   1.472   .     S
C1172  O1206   1.315   .     A
C1172  O1207   1.299   .     A
C1172  C1179   1.474   .     S
C1173  C1198   1.412   .     A
C1173  O1227   1.381   .     S
C1174  O1232   1.380   .     S
C1174  C1197   1.414   .     A
C1174  C390    1.393   1_556 S
C1175  I1237   2.129   .     S
C1175  C1180   1.403   .     A
C1176  I1238   2.145   .     S
C1176  C1179   1.415   .     A
C1176  C1268   1.397   .     S
C1177  C1179   1.400   .     A
C1177  I1239   2.121   .     S
C1177  C1265   1.388   .     S
C1178  I1240   2.143   .     S
C1178  C1180   1.413   .     A
C1181  O1241   1.388   .     S
C1181  N1204   1.369   .     A
C1182  O1246   1.381   .     S
C1182  N1203   1.377   .     A
C1182  C1453   1.442   .     S
C1183  O1251   1.390   .     S
C1183  N1204   1.370   .     A
C1184  N1203   1.378   .     A
C1184  O1256   1.380   .     S
C1184  C1451   1.441   .     S
C1185  C1190   1.454   .     S
C1185  O1209   1.303   .     A
C1185  O1212   1.298   .     A
C1186  O1210   1.302   .     A
C1186  C1189   1.452   .     S
C1186  O1211   1.298   .     A
C1187  C1197   1.410   .     A
C1187  O1213   1.386   .     S
C1187  C1189   1.401   .     A
C1188  C1198   1.415   .     A
C1188  O1218   1.388   .     S
C1188  C1190   1.406   .     A
C1189  C1191   1.402   .     A
C1190  C1192   1.401   .     A
C1191  C1193   1.409   .     A
C1191  I1223   2.144   .     S
C1192  I1224   2.138   .     S
C1192  C1194   1.405   .     A
C1193  C1199   1.410   .     A
C1193  C1195   1.416   .     A
C1194  C1196   1.414   .     A
C1194  C1200   1.404   .     A
C1195  C1197   1.420   .     A
C1195  C386    1.415   1_556 S
C1196  C1198   1.417   .     A
C1199  I1225   2.142   .     S
C1199  C363    1.402   1_556 S
C1200  I1226   2.134   .     S
Cu1201 N1203   2.036   .     S
Cu1201 O1207   1.972   .     S
Cu1201 Cu1202  2.710   .     S
Cu1201 O1211   1.960   .     S
Cu1201 O1205   1.978   .     S
Cu1201 O1209   1.966   .     S
Cu1202 O1206   1.978   .     S
Cu1202 O1208   1.972   .     S
Cu1202 N1204   2.036   .     S
Cu1202 O1210   1.966   .     S
Cu1202 O1212   1.960   .     S
O1213  C1214   1.408   .     S
C1214  H1217   1.110   .     S
C1214  H1216   1.115   .     S
C1214  H1215   1.103   .     S
O1218  C1219   1.414   .     S
C1219  H1221   1.104   .     S
C1219  H1222   1.110   .     S
C1219  H1220   1.114   .     S
O1227  C1228   1.413   .     S
C1228  H1230   1.114   .     S
C1228  H1231   1.108   .     S
H1229  C418    1.107   1_556 S
O1232  C1233   1.412   .     S
C1233  H1235   1.114   .     S
C1233  H1236   1.109   .     S
C1233  H1234   1.113   .     S
O1241  C1242   1.413   .     S
C1242  H1245   1.109   .     S
C1242  H1244   1.110   .     S
C1242  H1243   1.110   .     S
O1246  C1247   1.416   .     S
C1247  H1248   1.109   .     S
C1247  H1249   1.114   .     S
C1247  H1250   1.110   .     S
O1251  C1252   1.417   .     S
C1252  H1254   1.110   .     S
C1252  H1255   1.109   .     S
C1252  H1253   1.107   .     S
O1256  C1257   1.415   .     S
C1257  H1258   1.109   .     S
C1257  H1259   1.115   .     S
C1257  H1260   1.110   .     S
C1261  O1298   1.310   .     A
C1261  O1295   1.303   .     A
C1261  C1270   1.472   .     S
C1262  O1296   1.315   .     A
C1262  O1297   1.299   .     A
C1262  C1269   1.474   .     S
C1263  C1288   1.412   .     A
C1263  O1317   1.381   .     S
C1264  O1322   1.380   .     S
C1264  C1287   1.414   .     A
C1264  C480    1.393   1_556 S
C1265  I1327   2.129   .     S
C1265  C1270   1.403   .     A
C1266  I1328   2.145   .     S
C1266  C1269   1.415   .     A
C1266  C1088   1.397   1_655 S
C1267  C1269   1.400   .     A
C1267  I1329   2.121   .     S
C1267  C1085   1.388   1_655 S
C1268  I1330   2.143   .     S
C1268  C1270   1.413   .     A
C1271  O1331   1.388   .     S
C1271  N1294   1.369   .     A
C1272  O1336   1.381   .     S
C1272  N1293   1.377   .     A
C1272  C1543   1.442   .     S
C1273  O1341   1.390   .     S
C1273  N1294   1.370   .     A
C1274  N1293   1.378   .     A
C1274  O1346   1.380   .     S
C1274  C1541   1.441   .     S
C1275  C1280   1.454   .     S
C1275  O1299   1.303   .     A
C1275  O1302   1.298   .     A
C1276  O1300   1.302   .     A
C1276  C1279   1.452   .     S
C1276  O1301   1.298   .     A
C1277  C1287   1.410   .     A
C1277  O1303   1.386   .     S
C1277  C1279   1.401   .     A
C1278  C1288   1.415   .     A
C1278  O1308   1.388   .     S
C1278  C1280   1.406   .     A
C1279  C1281   1.402   .     A
C1280  C1282   1.401   .     A
C1281  C1283   1.409   .     A
C1281  I1313   2.144   .     S
C1282  I1314   2.138   .     S
C1282  C1284   1.405   .     A
C1283  C1289   1.410   .     A
C1283  C1285   1.416   .     A
C1284  C1286   1.414   .     A
C1284  C1290   1.404   .     A
C1285  C1287   1.420   .     A
C1285  C476    1.415   1_556 S
C1286  C1288   1.417   .     A
C1289  I1315   2.142   .     S
C1289  C453    1.402   1_556 S
C1290  I1316   2.134   .     S
Cu1291 N1293   2.036   .     S
Cu1291 O1297   1.972   .     S
Cu1291 Cu1292  2.710   .     S
Cu1291 O1301   1.960   .     S
Cu1291 O1295   1.978   .     S
Cu1291 O1299   1.966   .     S
Cu1292 O1296   1.978   .     S
Cu1292 O1298   1.972   .     S
Cu1292 N1294   2.036   .     S
Cu1292 O1300   1.966   .     S
Cu1292 O1302   1.960   .     S
O1303  C1304   1.408   .     S
C1304  H1307   1.110   .     S
C1304  H1306   1.115   .     S
C1304  H1305   1.103   .     S
O1308  C1309   1.414   .     S
C1309  H1311   1.104   .     S
C1309  H1312   1.110   .     S
C1309  H1310   1.114   .     S
O1317  C1318   1.413   .     S
C1318  H1320   1.114   .     S
C1318  H1321   1.108   .     S
H1319  C508    1.107   1_556 S
O1322  C1323   1.412   .     S
C1323  H1325   1.114   .     S
C1323  H1326   1.109   .     S
C1323  H1324   1.113   .     S
O1331  C1332   1.413   .     S
C1332  H1335   1.109   .     S
C1332  H1334   1.110   .     S
C1332  H1333   1.110   .     S
O1336  C1337   1.416   .     S
C1337  H1338   1.109   .     S
C1337  H1339   1.114   .     S
C1337  H1340   1.110   .     S
O1341  C1342   1.417   .     S
C1342  H1344   1.110   .     S
C1342  H1345   1.109   .     S
C1342  H1343   1.107   .     S
O1346  C1347   1.415   .     S
C1347  H1348   1.109   .     S
C1347  H1349   1.115   .     S
C1347  H1350   1.110   .     S
C1351  O1388   1.310   .     A
C1351  O1385   1.303   .     A
C1351  C1360   1.472   .     S
C1352  O1386   1.315   .     A
C1352  O1387   1.299   .     A
C1352  C1359   1.474   .     S
C1353  C1378   1.412   .     A
C1353  O1407   1.381   .     S
C1354  O1412   1.380   .     S
C1354  C1377   1.414   .     A
C1354  C570    1.393   1_556 S
C1355  I1417   2.129   .     S
C1355  C1360   1.403   .     A
C1355  C1537   1.388   1_455 S
C1356  I1418   2.145   .     S
C1356  C1359   1.415   .     A
C1356  C1448   1.397   .     S
C1357  C1359   1.400   .     A
C1357  I1419   2.121   .     S
C1357  C1445   1.388   .     S
C1358  I1420   2.143   .     S
C1358  C1360   1.413   .     A
C1358  C1536   1.397   1_455 S
C1361  O1421   1.388   .     S
C1361  N1384   1.369   .     A
C1362  O1426   1.381   .     S
C1362  N1383   1.377   .     A
C1362  C823    1.442   1_565 S
C1363  O1431   1.390   .     S
C1363  N1384   1.370   .     A
C1364  N1383   1.378   .     A
C1364  O1436   1.380   .     S
C1364  C821    1.441   1_565 S
C1365  C1370   1.454   .     S
C1365  O1389   1.303   .     A
C1365  O1392   1.298   .     A
C1366  O1390   1.302   .     A
C1366  C1369   1.452   .     S
C1366  O1391   1.298   .     A
C1367  C1377   1.410   .     A
C1367  O1393   1.386   .     S
C1367  C1369   1.401   .     A
C1368  C1378   1.415   .     A
C1368  O1398   1.388   .     S
C1368  C1370   1.406   .     A
C1369  C1371   1.402   .     A
C1370  C1372   1.401   .     A
C1371  C1373   1.409   .     A
C1371  I1403   2.144   .     S
C1372  I1404   2.138   .     S
C1372  C1374   1.405   .     A
C1373  C1379   1.410   .     A
C1373  C1375   1.416   .     A
C1374  C1376   1.414   .     A
C1374  C1380   1.404   .     A
C1375  C1377   1.420   .     A
C1375  C566    1.415   1_556 S
C1376  C1378   1.417   .     A
C1379  I1405   2.142   .     S
C1379  C543    1.402   1_556 S
C1380  I1406   2.134   .     S
Cu1381 N1383   2.036   .     S
Cu1381 O1387   1.972   .     S
Cu1381 Cu1382  2.710   .     S
Cu1381 O1391   1.960   .     S
Cu1381 O1385   1.978   .     S
Cu1381 O1389   1.966   .     S
Cu1382 O1386   1.978   .     S
Cu1382 O1388   1.972   .     S
Cu1382 N1384   2.036   .     S
Cu1382 O1390   1.966   .     S
Cu1382 O1392   1.960   .     S
O1393  C1394   1.408   .     S
C1394  H1397   1.110   .     S
C1394  H1396   1.115   .     S
C1394  H1395   1.103   .     S
O1398  C1399   1.414   .     S
C1399  H1401   1.104   .     S
C1399  H1402   1.110   .     S
C1399  H1400   1.114   .     S
O1407  C1408   1.413   .     S
C1408  H1410   1.114   .     S
C1408  H1411   1.108   .     S
H1409  C598    1.107   1_556 S
O1412  C1413   1.412   .     S
C1413  H1415   1.114   .     S
C1413  H1416   1.109   .     S
C1413  H1414   1.113   .     S
O1421  C1422   1.413   .     S
C1422  H1425   1.109   .     S
C1422  H1424   1.110   .     S
C1422  H1423   1.110   .     S
O1426  C1427   1.416   .     S
C1427  H1428   1.109   .     S
C1427  H1429   1.114   .     S
C1427  H1430   1.110   .     S
O1431  C1432   1.417   .     S
C1432  H1434   1.110   .     S
C1432  H1435   1.109   .     S
C1432  H1433   1.107   .     S
O1436  C1437   1.415   .     S
C1437  H1438   1.109   .     S
C1437  H1439   1.115   .     S
C1437  H1440   1.110   .     S
C1441  O1478   1.310   .     A
C1441  O1475   1.303   .     A
C1441  C1450   1.472   .     S
C1442  O1476   1.315   .     A
C1442  O1477   1.299   .     A
C1442  C1449   1.474   .     S
C1443  C1468   1.412   .     A
C1443  O1497   1.381   .     S
C1444  O1502   1.380   .     S
C1444  C1467   1.414   .     A
C1444  C660    1.393   1_556 S
C1445  I1507   2.129   .     S
C1445  C1450   1.403   .     A
C1446  I1508   2.145   .     S
C1446  C1449   1.415   .     A
C1446  C1538   1.397   .     S
C1447  C1449   1.400   .     A
C1447  I1509   2.121   .     S
C1447  C1535   1.388   .     S
C1448  I1510   2.143   .     S
C1448  C1450   1.413   .     A
C1451  O1511   1.388   .     S
C1451  N1474   1.369   .     A
C1452  O1516   1.381   .     S
C1452  N1473   1.377   .     A
C1452  C913    1.442   1_565 S
C1453  O1521   1.390   .     S
C1453  N1474   1.370   .     A
C1454  N1473   1.378   .     A
C1454  O1526   1.380   .     S
C1454  C911    1.441   1_565 S
C1455  C1460   1.454   .     S
C1455  O1479   1.303   .     A
C1455  O1482   1.298   .     A
C1456  O1480   1.302   .     A
C1456  C1459   1.452   .     S
C1456  O1481   1.298   .     A
C1457  C1467   1.410   .     A
C1457  O1483   1.386   .     S
C1457  C1459   1.401   .     A
C1458  C1468   1.415   .     A
C1458  O1488   1.388   .     S
C1458  C1460   1.406   .     A
C1459  C1461   1.402   .     A
C1460  C1462   1.401   .     A
C1461  C1463   1.409   .     A
C1461  I1493   2.144   .     S
C1462  I1494   2.138   .     S
C1462  C1464   1.405   .     A
C1463  C1469   1.410   .     A
C1463  C1465   1.416   .     A
C1464  C1466   1.414   .     A
C1464  C1470   1.404   .     A
C1465  C1467   1.420   .     A
C1465  C656    1.415   1_556 S
C1466  C1468   1.417   .     A
C1469  I1495   2.142   .     S
C1469  C633    1.402   1_556 S
C1470  I1496   2.134   .     S
Cu1471 N1473   2.036   .     S
Cu1471 O1477   1.972   .     S
Cu1471 Cu1472  2.710   .     S
Cu1471 O1481   1.960   .     S
Cu1471 O1475   1.978   .     S
Cu1471 O1479   1.966   .     S
Cu1472 O1476   1.978   .     S
Cu1472 O1478   1.972   .     S
Cu1472 N1474   2.036   .     S
Cu1472 O1480   1.966   .     S
Cu1472 O1482   1.960   .     S
O1483  C1484   1.408   .     S
C1484  H1487   1.110   .     S
C1484  H1486   1.115   .     S
C1484  H1485   1.103   .     S
O1488  C1489   1.414   .     S
C1489  H1491   1.104   .     S
C1489  H1492   1.110   .     S
C1489  H1490   1.114   .     S
O1497  C1498   1.413   .     S
C1498  H1500   1.114   .     S
C1498  H1501   1.108   .     S
H1499  C688    1.107   1_556 S
O1502  C1503   1.412   .     S
C1503  H1505   1.114   .     S
C1503  H1506   1.109   .     S
C1503  H1504   1.113   .     S
O1511  C1512   1.413   .     S
C1512  H1515   1.109   .     S
C1512  H1514   1.110   .     S
C1512  H1513   1.110   .     S
O1516  C1517   1.416   .     S
C1517  H1518   1.109   .     S
C1517  H1519   1.114   .     S
C1517  H1520   1.110   .     S
O1521  C1522   1.417   .     S
C1522  H1524   1.110   .     S
C1522  H1525   1.109   .     S
C1522  H1523   1.107   .     S
O1526  C1527   1.415   .     S
C1527  H1528   1.109   .     S
C1527  H1529   1.115   .     S
C1527  H1530   1.110   .     S
C1531  O1568   1.310   .     A
C1531  O1565   1.303   .     A
C1531  C1540   1.472   .     S
C1532  O1566   1.315   .     A
C1532  O1567   1.299   .     A
C1532  C1539   1.474   .     S
C1533  C1558   1.412   .     A
C1533  O1587   1.381   .     S
C1534  O1592   1.380   .     S
C1534  C1557   1.414   .     A
C1534  C750    1.393   1_556 S
C1535  I1597   2.129   .     S
C1535  C1540   1.403   .     A
C1536  I1598   2.145   .     S
C1536  C1539   1.415   .     A
C1536  C1358   1.397   1_655 S
C1537  C1539   1.400   .     A
C1537  I1599   2.121   .     S
C1537  C1355   1.388   1_655 S
C1538  I1600   2.143   .     S
C1538  C1540   1.413   .     A
C1541  O1601   1.388   .     S
C1541  N1564   1.369   .     A
C1542  O1606   1.381   .     S
C1542  N1563   1.377   .     A
C1542  C1003   1.442   1_565 S
C1543  O1611   1.390   .     S
C1543  N1564   1.370   .     A
C1544  N1563   1.378   .     A
C1544  O1616   1.380   .     S
C1544  C1001   1.441   1_565 S
C1545  C1550   1.454   .     S
C1545  O1569   1.303   .     A
C1545  O1572   1.298   .     A
C1546  O1570   1.302   .     A
C1546  C1549   1.452   .     S
C1546  O1571   1.298   .     A
C1547  C1557   1.410   .     A
C1547  O1573   1.386   .     S
C1547  C1549   1.401   .     A
C1548  C1558   1.415   .     A
C1548  O1578   1.388   .     S
C1548  C1550   1.406   .     A
C1549  C1551   1.402   .     A
C1550  C1552   1.401   .     A
C1551  C1553   1.409   .     A
C1551  I1583   2.144   .     S
C1552  I1584   2.138   .     S
C1552  C1554   1.405   .     A
C1553  C1559   1.410   .     A
C1553  C1555   1.416   .     A
C1554  C1556   1.414   .     A
C1554  C1560   1.404   .     A
C1555  C1557   1.420   .     A
C1555  C746    1.415   1_556 S
C1556  C1558   1.417   .     A
C1559  I1585   2.142   .     S
C1559  C723    1.402   1_556 S
C1560  I1586   2.134   .     S
Cu1561 N1563   2.036   .     S
Cu1561 O1567   1.972   .     S
Cu1561 Cu1562  2.710   .     S
Cu1561 O1571   1.960   .     S
Cu1561 O1565   1.978   .     S
Cu1561 O1569   1.966   .     S
Cu1562 O1566   1.978   .     S
Cu1562 O1568   1.972   .     S
Cu1562 N1564   2.036   .     S
Cu1562 O1570   1.966   .     S
Cu1562 O1572   1.960   .     S
O1573  C1574   1.408   .     S
C1574  H1577   1.110   .     S
C1574  H1576   1.115   .     S
C1574  H1575   1.103   .     S
O1578  C1579   1.414   .     S
C1579  H1581   1.104   .     S
C1579  H1582   1.110   .     S
C1579  H1580   1.114   .     S
O1587  C1588   1.413   .     S
C1588  H1590   1.114   .     S
C1588  H1591   1.108   .     S
H1589  C778    1.107   1_556 S
O1592  C1593   1.412   .     S
C1593  H1595   1.114   .     S
C1593  H1596   1.109   .     S
C1593  H1594   1.113   .     S
O1601  C1602   1.413   .     S
C1602  H1605   1.109   .     S
C1602  H1604   1.110   .     S
C1602  H1603   1.110   .     S
O1606  C1607   1.416   .     S
C1607  H1608   1.109   .     S
C1607  H1609   1.114   .     S
C1607  H1610   1.110   .     S
O1611  C1612   1.417   .     S
C1612  H1614   1.110   .     S
C1612  H1615   1.109   .     S
C1612  H1613   1.107   .     S
O1616  C1617   1.415   .     S
C1617  H1618   1.109   .     S
C1617  H1619   1.115   .     S
C1617  H1620   1.110   .     S
