data_str_m3_o1_o17_pcu_sym.176
_audit_creation_date              2020-01-03
_audit_creation_method            'Materials Studio'
_symmetry_space_group_name_H-M    'P1'
_symmetry_Int_Tables_number       1
_symmetry_cell_setting            triclinic
loop_
_symmetry_equiv_pos_as_xyz
  x,y,z
_cell_length_a                    32.2668
_cell_length_b                    29.8126
_cell_length_c                    29.9590
_cell_angle_alpha                 88.9482
_cell_angle_beta                  92.0797
_cell_angle_gamma                 87.4965
loop_
_atom_site_label
_atom_site_type_symbol
_atom_site_fract_x
_atom_site_fract_y
_atom_site_fract_z
_atom_site_U_iso_or_equiv
_atom_site_adp_type
_atom_site_occupancy
O1     O     0.10559   0.20487   0.24999   0.00000  Uiso   1.00
O2     O     0.22774   0.12846   0.25000   0.00000  Uiso   1.00
O3     O     0.22774   0.20487   0.25000   0.00000  Uiso   1.00
O4     O     0.10559   0.12846   0.24999   0.00000  Uiso   1.00
C5     C     0.08677   0.16755   0.25059   0.00000  Uiso   1.00
C6     C     0.24657   0.16578   0.24941   0.00000  Uiso   1.00
O7     O     0.16666   0.20489   0.18393   0.00000  Uiso   1.00
O8     O     0.16667   0.12844   0.31607   0.00000  Uiso   1.00
O9     O     0.16667   0.20489   0.31607   0.00000  Uiso   1.00
O10    O     0.16666   0.12844   0.18392   0.00000  Uiso   1.00
C11    C     0.16776   0.16688   0.16365   0.00000  Uiso   1.00
C12    C     0.16557   0.16646   0.33635   0.00000  Uiso   1.00
Zn13   Zn    0.16667   0.21771   0.25000   0.00000  Uiso   1.00
Zn14   Zn    0.16667   0.11563   0.25000   0.00000  Uiso   1.00
C15    C     0.19108   0.13715   0.40787   0.00000  Uiso   1.00
C16    C     0.14227   0.19621   0.09213   0.00000  Uiso   1.00
C17    C     0.16348   0.16606   0.38405   0.00000  Uiso   1.00
C18    C     0.16987   0.16728   0.11595   0.00000  Uiso   1.00
C19    C     0.13624   0.19588   0.40537   0.00000  Uiso   1.00
C20    C     0.19711   0.13748   0.09463   0.00000  Uiso   1.00
C21    C     0.13552   0.19475   0.45236   0.00000  Uiso   1.00
C22    C     0.19785   0.13863   0.04764   0.00000  Uiso   1.00
C23    C     0.16559   0.16647   0.47663   0.00000  Uiso   1.00
C24    C     0.16778   0.16691   0.02337   0.00000  Uiso   1.00
C25    C     0.19362   0.13779   0.45405   0.00000  Uiso   1.00
C26    C     0.13975   0.19559   0.04595   0.00000  Uiso   1.00
C27    C     0.10605   0.22102   0.47577   0.00000  Uiso   1.00
C28    C     0.22734   0.11240   0.02423   0.00000  Uiso   1.00
C29    C     0.10889   0.22211   0.02231   0.00000  Uiso   1.00
C30    C     0.22450   0.11129   0.47769   0.00000  Uiso   1.00
H31    H     0.21218   0.11598   0.38955   0.00000  Uiso   1.00
H32    H     0.12117   0.21737   0.11045   0.00000  Uiso   1.00
C33    C     0.02389   0.13521   0.27695   0.00000  Uiso   1.00
C34    C     0.30945   0.19812   0.22305   0.00000  Uiso   1.00
C35    C     0.31458   0.13234   0.27363   0.00000  Uiso   1.00
C36    C     0.01875   0.20099   0.22637   0.00000  Uiso   1.00
C37    C     0.29080   0.16430   0.24753   0.00000  Uiso   1.00
C38    C     0.04253   0.16903   0.25246   0.00000  Uiso   1.00
C39    C     0.18846   0.02199   0.28223   0.00000  Uiso   1.00
C40    C     0.14488   0.31134   0.21777   0.00000  Uiso   1.00
C41    C     0.14402   0.02568   0.21840   0.00000  Uiso   1.00
C42    C     0.18931   0.30765   0.28160   0.00000  Uiso   1.00
N43    N     0.16667   0.28573   0.25000   0.00000  Uiso   1.00
N44    N     0.16667   0.04760   0.25000   0.00000  Uiso   1.00
N45    N     0.11179   0.22882   0.37916   0.00000  Uiso   1.00
O46    O     0.08327   0.21636   0.35077   0.00000  Uiso   1.00
O47    O     0.12193   0.27058   0.37929   0.00000  Uiso   1.00
N48    N     0.22154   0.10451   0.12083   0.00000  Uiso   1.00
O49    O     0.21144   0.06273   0.12058   0.00000  Uiso   1.00
O50    O     0.25002   0.11693   0.14928   0.00000  Uiso   1.00
N51    N     0.07098   0.24369   0.45314   0.00000  Uiso   1.00
O52    O     0.06643   0.28725   0.45395   0.00000  Uiso   1.00
O53    O     0.04099   0.22046   0.43679   0.00000  Uiso   1.00
N54    N     0.26245   0.08981   0.04686   0.00000  Uiso   1.00
O55    O     0.29236   0.11311   0.06331   0.00000  Uiso   1.00
O56    O     0.26712   0.04625   0.04601   0.00000  Uiso   1.00
Cl57   Cl    0.07135   0.25524   0.05045   0.00000  Uiso   1.00
Cl58   Cl    0.26206   0.07820   0.44954   0.00000  Uiso   1.00
N59    N     0.04800   0.10455   0.30627   0.00000  Uiso   1.00
O60    O     0.07171   0.11976   0.33807   0.00000  Uiso   1.00
O61    O     0.04658   0.06141   0.30103   0.00000  Uiso   1.00
N62    N     0.28533   0.22878   0.19372   0.00000  Uiso   1.00
O63    O     0.26162   0.21356   0.16192   0.00000  Uiso   1.00
O64    O     0.28674   0.27192   0.19895   0.00000  Uiso   1.00
N65    N     0.29563   0.09795   0.29842   0.00000  Uiso   1.00
O66    O     0.29251   0.05865   0.28073   0.00000  Uiso   1.00
O67    O     0.29249   0.10196   0.34134   0.00000  Uiso   1.00
N68    N     0.03770   0.23537   0.20156   0.00000  Uiso   1.00
O69    O     0.04080   0.27468   0.21923   0.00000  Uiso   1.00
O70    O     0.04087   0.23133   0.15865   0.00000  Uiso   1.00
Cl71   Cl    0.21380   0.04759   0.32693   0.00000  Uiso   1.00
Cl72   Cl    0.11953   0.28575   0.17307   0.00000  Uiso   1.00
Cl73   Cl    0.11172   0.05660   0.17923   0.00000  Uiso   1.00
Cl74   Cl    0.22161   0.27673   0.32077   0.00000  Uiso   1.00
O75    O     0.43892   0.20487   0.24999   0.00000  Uiso   1.00
O76    O     0.56108   0.12846   0.25000   0.00000  Uiso   1.00
O77    O     0.56108   0.20487   0.25000   0.00000  Uiso   1.00
O78    O     0.43892   0.12846   0.24999   0.00000  Uiso   1.00
C79    C     0.42010   0.16755   0.25059   0.00000  Uiso   1.00
C80    C     0.57990   0.16578   0.24941   0.00000  Uiso   1.00
O81    O     0.49999   0.20489   0.18393   0.00000  Uiso   1.00
O82    O     0.50001   0.12844   0.31607   0.00000  Uiso   1.00
O83    O     0.50001   0.20489   0.31607   0.00000  Uiso   1.00
O84    O     0.49999   0.12844   0.18392   0.00000  Uiso   1.00
C85    C     0.50109   0.16688   0.16365   0.00000  Uiso   1.00
C86    C     0.49891   0.16646   0.33635   0.00000  Uiso   1.00
Zn87   Zn    0.50000   0.21771   0.25000   0.00000  Uiso   1.00
Zn88   Zn    0.50000   0.11563   0.25000   0.00000  Uiso   1.00
C89    C     0.52441   0.13715   0.40787   0.00000  Uiso   1.00
C90    C     0.47561   0.19621   0.09213   0.00000  Uiso   1.00
C91    C     0.49681   0.16606   0.38405   0.00000  Uiso   1.00
C92    C     0.50320   0.16728   0.11595   0.00000  Uiso   1.00
C93    C     0.46957   0.19588   0.40537   0.00000  Uiso   1.00
C94    C     0.53044   0.13748   0.09463   0.00000  Uiso   1.00
C95    C     0.46885   0.19475   0.45236   0.00000  Uiso   1.00
C96    C     0.53118   0.13863   0.04764   0.00000  Uiso   1.00
C97    C     0.49892   0.16647   0.47663   0.00000  Uiso   1.00
C98    C     0.50111   0.16691   0.02337   0.00000  Uiso   1.00
C99    C     0.52695   0.13779   0.45405   0.00000  Uiso   1.00
C100   C     0.47309   0.19559   0.04595   0.00000  Uiso   1.00
C101   C     0.43938   0.22102   0.47577   0.00000  Uiso   1.00
C102   C     0.56068   0.11240   0.02423   0.00000  Uiso   1.00
C103   C     0.44222   0.22211   0.02231   0.00000  Uiso   1.00
C104   C     0.55784   0.11129   0.47769   0.00000  Uiso   1.00
H105   H     0.54551   0.11598   0.38955   0.00000  Uiso   1.00
H106   H     0.45450   0.21737   0.11045   0.00000  Uiso   1.00
C107   C     0.35722   0.13521   0.27695   0.00000  Uiso   1.00
C108   C     0.64278   0.19812   0.22305   0.00000  Uiso   1.00
C109   C     0.64791   0.13234   0.27363   0.00000  Uiso   1.00
C110   C     0.35209   0.20099   0.22637   0.00000  Uiso   1.00
C111   C     0.62414   0.16430   0.24753   0.00000  Uiso   1.00
C112   C     0.37586   0.16903   0.25246   0.00000  Uiso   1.00
C113   C     0.52179   0.02199   0.28223   0.00000  Uiso   1.00
C114   C     0.47821   0.31134   0.21777   0.00000  Uiso   1.00
C115   C     0.47735   0.02568   0.21840   0.00000  Uiso   1.00
C116   C     0.52265   0.30765   0.28160   0.00000  Uiso   1.00
N117   N     0.50000   0.28573   0.25000   0.00000  Uiso   1.00
N118   N     0.50000   0.04760   0.25000   0.00000  Uiso   1.00
N119   N     0.44512   0.22882   0.37916   0.00000  Uiso   1.00
O120   O     0.41661   0.21636   0.35077   0.00000  Uiso   1.00
O121   O     0.45526   0.27058   0.37929   0.00000  Uiso   1.00
N122   N     0.55487   0.10451   0.12083   0.00000  Uiso   1.00
O123   O     0.54477   0.06273   0.12058   0.00000  Uiso   1.00
O124   O     0.58335   0.11693   0.14928   0.00000  Uiso   1.00
N125   N     0.40432   0.24369   0.45314   0.00000  Uiso   1.00
O126   O     0.39977   0.28725   0.45395   0.00000  Uiso   1.00
O127   O     0.37432   0.22046   0.43679   0.00000  Uiso   1.00
N128   N     0.59579   0.08981   0.04686   0.00000  Uiso   1.00
O129   O     0.62569   0.11311   0.06331   0.00000  Uiso   1.00
O130   O     0.60045   0.04625   0.04601   0.00000  Uiso   1.00
Cl131  Cl    0.40469   0.25524   0.05045   0.00000  Uiso   1.00
Cl132  Cl    0.59539   0.07820   0.44954   0.00000  Uiso   1.00
N133   N     0.38134   0.10455   0.30627   0.00000  Uiso   1.00
O134   O     0.40505   0.11976   0.33807   0.00000  Uiso   1.00
O135   O     0.37992   0.06141   0.30103   0.00000  Uiso   1.00
N136   N     0.61867   0.22878   0.19372   0.00000  Uiso   1.00
O137   O     0.59496   0.21356   0.16192   0.00000  Uiso   1.00
O138   O     0.62008   0.27192   0.19895   0.00000  Uiso   1.00
N139   N     0.62897   0.09795   0.29842   0.00000  Uiso   1.00
O140   O     0.62584   0.05865   0.28073   0.00000  Uiso   1.00
O141   O     0.62582   0.10196   0.34134   0.00000  Uiso   1.00
N142   N     0.37103   0.23537   0.20156   0.00000  Uiso   1.00
O143   O     0.37414   0.27468   0.21923   0.00000  Uiso   1.00
O144   O     0.37421   0.23133   0.15865   0.00000  Uiso   1.00
Cl145  Cl    0.54713   0.04759   0.32693   0.00000  Uiso   1.00
Cl146  Cl    0.45287   0.28575   0.17307   0.00000  Uiso   1.00
Cl147  Cl    0.44506   0.05660   0.17923   0.00000  Uiso   1.00
Cl148  Cl    0.55494   0.27673   0.32077   0.00000  Uiso   1.00
O149   O     0.77226   0.20487   0.24999   0.00000  Uiso   1.00
O150   O     0.89441   0.12846   0.25000   0.00000  Uiso   1.00
O151   O     0.89441   0.20487   0.25000   0.00000  Uiso   1.00
O152   O     0.77226   0.12846   0.24999   0.00000  Uiso   1.00
C153   C     0.75343   0.16755   0.25059   0.00000  Uiso   1.00
C154   C     0.91324   0.16578   0.24941   0.00000  Uiso   1.00
O155   O     0.83333   0.20489   0.18393   0.00000  Uiso   1.00
O156   O     0.83334   0.12844   0.31607   0.00000  Uiso   1.00
O157   O     0.83334   0.20489   0.31607   0.00000  Uiso   1.00
O158   O     0.83333   0.12844   0.18392   0.00000  Uiso   1.00
C159   C     0.83443   0.16688   0.16365   0.00000  Uiso   1.00
C160   C     0.83224   0.16646   0.33635   0.00000  Uiso   1.00
Zn161  Zn    0.83333   0.21771   0.25000   0.00000  Uiso   1.00
Zn162  Zn    0.83333   0.11563   0.25000   0.00000  Uiso   1.00
C163   C     0.85775   0.13715   0.40787   0.00000  Uiso   1.00
C164   C     0.80894   0.19621   0.09213   0.00000  Uiso   1.00
C165   C     0.83014   0.16606   0.38405   0.00000  Uiso   1.00
C166   C     0.83653   0.16728   0.11595   0.00000  Uiso   1.00
C167   C     0.80291   0.19588   0.40537   0.00000  Uiso   1.00
C168   C     0.86377   0.13748   0.09463   0.00000  Uiso   1.00
C169   C     0.80219   0.19475   0.45236   0.00000  Uiso   1.00
C170   C     0.86452   0.13863   0.04764   0.00000  Uiso   1.00
C171   C     0.83226   0.16647   0.47663   0.00000  Uiso   1.00
C172   C     0.83445   0.16691   0.02337   0.00000  Uiso   1.00
C173   C     0.86028   0.13779   0.45405   0.00000  Uiso   1.00
C174   C     0.80642   0.19559   0.04595   0.00000  Uiso   1.00
C175   C     0.77272   0.22102   0.47577   0.00000  Uiso   1.00
C176   C     0.89401   0.11240   0.02423   0.00000  Uiso   1.00
C177   C     0.77555   0.22211   0.02231   0.00000  Uiso   1.00
C178   C     0.89117   0.11129   0.47769   0.00000  Uiso   1.00
H179   H     0.87885   0.11598   0.38955   0.00000  Uiso   1.00
H180   H     0.78783   0.21737   0.11045   0.00000  Uiso   1.00
C181   C     0.69055   0.13521   0.27695   0.00000  Uiso   1.00
C182   C     0.97611   0.19812   0.22305   0.00000  Uiso   1.00
C183   C     0.98125   0.13234   0.27363   0.00000  Uiso   1.00
C184   C     0.68542   0.20099   0.22637   0.00000  Uiso   1.00
C185   C     0.95747   0.16430   0.24753   0.00000  Uiso   1.00
C186   C     0.70920   0.16903   0.25246   0.00000  Uiso   1.00
C187   C     0.85512   0.02199   0.28223   0.00000  Uiso   1.00
C188   C     0.81154   0.31134   0.21777   0.00000  Uiso   1.00
C189   C     0.81069   0.02568   0.21840   0.00000  Uiso   1.00
C190   C     0.85598   0.30765   0.28160   0.00000  Uiso   1.00
N191   N     0.83333   0.28573   0.25000   0.00000  Uiso   1.00
N192   N     0.83333   0.04760   0.25000   0.00000  Uiso   1.00
N193   N     0.77845   0.22882   0.37916   0.00000  Uiso   1.00
O194   O     0.74994   0.21636   0.35077   0.00000  Uiso   1.00
O195   O     0.78859   0.27058   0.37929   0.00000  Uiso   1.00
N196   N     0.88821   0.10451   0.12083   0.00000  Uiso   1.00
O197   O     0.87810   0.06273   0.12058   0.00000  Uiso   1.00
O198   O     0.91668   0.11693   0.14928   0.00000  Uiso   1.00
N199   N     0.73765   0.24369   0.45314   0.00000  Uiso   1.00
O200   O     0.73310   0.28725   0.45395   0.00000  Uiso   1.00
O201   O     0.70765   0.22046   0.43679   0.00000  Uiso   1.00
N202   N     0.92912   0.08981   0.04686   0.00000  Uiso   1.00
O203   O     0.95902   0.11311   0.06331   0.00000  Uiso   1.00
O204   O     0.93378   0.04625   0.04601   0.00000  Uiso   1.00
Cl205  Cl    0.73802   0.25524   0.05045   0.00000  Uiso   1.00
Cl206  Cl    0.92873   0.07820   0.44954   0.00000  Uiso   1.00
N207   N     0.71467   0.10455   0.30627   0.00000  Uiso   1.00
O208   O     0.73838   0.11976   0.33807   0.00000  Uiso   1.00
O209   O     0.71325   0.06141   0.30103   0.00000  Uiso   1.00
N210   N     0.95200   0.22878   0.19372   0.00000  Uiso   1.00
O211   O     0.92829   0.21356   0.16192   0.00000  Uiso   1.00
O212   O     0.95341   0.27192   0.19895   0.00000  Uiso   1.00
N213   N     0.96230   0.09795   0.29842   0.00000  Uiso   1.00
O214   O     0.95918   0.05865   0.28073   0.00000  Uiso   1.00
O215   O     0.95916   0.10196   0.34134   0.00000  Uiso   1.00
N216   N     0.70437   0.23537   0.20156   0.00000  Uiso   1.00
O217   O     0.70747   0.27468   0.21923   0.00000  Uiso   1.00
O218   O     0.70754   0.23133   0.15865   0.00000  Uiso   1.00
Cl219  Cl    0.88046   0.04759   0.32693   0.00000  Uiso   1.00
Cl220  Cl    0.78620   0.28575   0.17307   0.00000  Uiso   1.00
Cl221  Cl    0.77839   0.05660   0.17923   0.00000  Uiso   1.00
Cl222  Cl    0.88828   0.27673   0.32077   0.00000  Uiso   1.00
O223   O     0.10559   0.53821   0.24999   0.00000  Uiso   1.00
O224   O     0.22774   0.46179   0.25000   0.00000  Uiso   1.00
O225   O     0.22774   0.53821   0.25000   0.00000  Uiso   1.00
O226   O     0.10559   0.46179   0.24999   0.00000  Uiso   1.00
C227   C     0.08677   0.50088   0.25059   0.00000  Uiso   1.00
C228   C     0.24657   0.49912   0.24941   0.00000  Uiso   1.00
O229   O     0.16666   0.53823   0.18393   0.00000  Uiso   1.00
O230   O     0.16667   0.46177   0.31607   0.00000  Uiso   1.00
O231   O     0.16667   0.53823   0.31607   0.00000  Uiso   1.00
O232   O     0.16666   0.46177   0.18392   0.00000  Uiso   1.00
C233   C     0.16776   0.50021   0.16365   0.00000  Uiso   1.00
C234   C     0.16557   0.49979   0.33635   0.00000  Uiso   1.00
Zn235  Zn    0.16667   0.55104   0.25000   0.00000  Uiso   1.00
Zn236  Zn    0.16667   0.44896   0.25000   0.00000  Uiso   1.00
C237   C     0.19108   0.47048   0.40787   0.00000  Uiso   1.00
C238   C     0.14227   0.52954   0.09213   0.00000  Uiso   1.00
C239   C     0.16348   0.49939   0.38405   0.00000  Uiso   1.00
C240   C     0.16987   0.50061   0.11595   0.00000  Uiso   1.00
C241   C     0.13624   0.52921   0.40537   0.00000  Uiso   1.00
C242   C     0.19711   0.47081   0.09463   0.00000  Uiso   1.00
C243   C     0.13552   0.52809   0.45236   0.00000  Uiso   1.00
C244   C     0.19785   0.47196   0.04764   0.00000  Uiso   1.00
C245   C     0.16559   0.49980   0.47663   0.00000  Uiso   1.00
C246   C     0.16778   0.50025   0.02337   0.00000  Uiso   1.00
C247   C     0.19362   0.47113   0.45405   0.00000  Uiso   1.00
C248   C     0.13975   0.52892   0.04595   0.00000  Uiso   1.00
C249   C     0.10605   0.55435   0.47577   0.00000  Uiso   1.00
C250   C     0.22734   0.44573   0.02423   0.00000  Uiso   1.00
C251   C     0.10889   0.55544   0.02231   0.00000  Uiso   1.00
C252   C     0.22450   0.44463   0.47769   0.00000  Uiso   1.00
H253   H     0.21218   0.44931   0.38955   0.00000  Uiso   1.00
H254   H     0.12117   0.55070   0.11045   0.00000  Uiso   1.00
C255   C     0.02389   0.46854   0.27695   0.00000  Uiso   1.00
C256   C     0.30945   0.53145   0.22305   0.00000  Uiso   1.00
C257   C     0.31458   0.46567   0.27363   0.00000  Uiso   1.00
C258   C     0.01875   0.53432   0.22637   0.00000  Uiso   1.00
C259   C     0.29080   0.49764   0.24753   0.00000  Uiso   1.00
C260   C     0.04253   0.50236   0.25246   0.00000  Uiso   1.00
C261   C     0.18846   0.35533   0.28223   0.00000  Uiso   1.00
C262   C     0.14488   0.64468   0.21777   0.00000  Uiso   1.00
C263   C     0.14402   0.35901   0.21840   0.00000  Uiso   1.00
C264   C     0.18931   0.64099   0.28160   0.00000  Uiso   1.00
N265   N     0.16667   0.61907   0.25000   0.00000  Uiso   1.00
N266   N     0.16667   0.38093   0.25000   0.00000  Uiso   1.00
N267   N     0.11179   0.56215   0.37916   0.00000  Uiso   1.00
O268   O     0.08327   0.54969   0.35077   0.00000  Uiso   1.00
O269   O     0.12193   0.60392   0.37929   0.00000  Uiso   1.00
N270   N     0.22154   0.43784   0.12083   0.00000  Uiso   1.00
O271   O     0.21144   0.39606   0.12058   0.00000  Uiso   1.00
O272   O     0.25002   0.45026   0.14928   0.00000  Uiso   1.00
N273   N     0.07098   0.57702   0.45314   0.00000  Uiso   1.00
O274   O     0.06643   0.62058   0.45395   0.00000  Uiso   1.00
O275   O     0.04099   0.55379   0.43679   0.00000  Uiso   1.00
N276   N     0.26245   0.42314   0.04686   0.00000  Uiso   1.00
O277   O     0.29236   0.44644   0.06331   0.00000  Uiso   1.00
O278   O     0.26712   0.37959   0.04601   0.00000  Uiso   1.00
Cl279  Cl    0.07135   0.58858   0.05045   0.00000  Uiso   1.00
Cl280  Cl    0.26206   0.41153   0.44954   0.00000  Uiso   1.00
N281   N     0.04800   0.43788   0.30627   0.00000  Uiso   1.00
O282   O     0.07171   0.45309   0.33807   0.00000  Uiso   1.00
O283   O     0.04658   0.39474   0.30103   0.00000  Uiso   1.00
N284   N     0.28533   0.56211   0.19372   0.00000  Uiso   1.00
O285   O     0.26162   0.54689   0.16192   0.00000  Uiso   1.00
O286   O     0.28674   0.60525   0.19895   0.00000  Uiso   1.00
N287   N     0.29563   0.43128   0.29842   0.00000  Uiso   1.00
O288   O     0.29251   0.39199   0.28073   0.00000  Uiso   1.00
O289   O     0.29249   0.43530   0.34134   0.00000  Uiso   1.00
N290   N     0.03770   0.56870   0.20156   0.00000  Uiso   1.00
O291   O     0.04080   0.60801   0.21923   0.00000  Uiso   1.00
O292   O     0.04087   0.56466   0.15865   0.00000  Uiso   1.00
Cl293  Cl    0.21380   0.38092   0.32693   0.00000  Uiso   1.00
Cl294  Cl    0.11953   0.61908   0.17307   0.00000  Uiso   1.00
Cl295  Cl    0.11172   0.38993   0.17923   0.00000  Uiso   1.00
Cl296  Cl    0.22161   0.61007   0.32077   0.00000  Uiso   1.00
O297   O     0.43892   0.53821   0.24999   0.00000  Uiso   1.00
O298   O     0.56108   0.46179   0.25000   0.00000  Uiso   1.00
O299   O     0.56108   0.53821   0.25000   0.00000  Uiso   1.00
O300   O     0.43892   0.46179   0.24999   0.00000  Uiso   1.00
C301   C     0.42010   0.50088   0.25059   0.00000  Uiso   1.00
C302   C     0.57990   0.49912   0.24941   0.00000  Uiso   1.00
O303   O     0.49999   0.53823   0.18393   0.00000  Uiso   1.00
O304   O     0.50001   0.46177   0.31607   0.00000  Uiso   1.00
O305   O     0.50001   0.53823   0.31607   0.00000  Uiso   1.00
O306   O     0.49999   0.46177   0.18392   0.00000  Uiso   1.00
C307   C     0.50109   0.50021   0.16365   0.00000  Uiso   1.00
C308   C     0.49891   0.49979   0.33635   0.00000  Uiso   1.00
Zn309  Zn    0.50000   0.55104   0.25000   0.00000  Uiso   1.00
Zn310  Zn    0.50000   0.44896   0.25000   0.00000  Uiso   1.00
C311   C     0.52441   0.47048   0.40787   0.00000  Uiso   1.00
C312   C     0.47561   0.52954   0.09213   0.00000  Uiso   1.00
C313   C     0.49681   0.49939   0.38405   0.00000  Uiso   1.00
C314   C     0.50320   0.50061   0.11595   0.00000  Uiso   1.00
C315   C     0.46957   0.52921   0.40537   0.00000  Uiso   1.00
C316   C     0.53044   0.47081   0.09463   0.00000  Uiso   1.00
C317   C     0.46885   0.52809   0.45236   0.00000  Uiso   1.00
C318   C     0.53118   0.47196   0.04764   0.00000  Uiso   1.00
C319   C     0.49892   0.49980   0.47663   0.00000  Uiso   1.00
C320   C     0.50111   0.50025   0.02337   0.00000  Uiso   1.00
C321   C     0.52695   0.47113   0.45405   0.00000  Uiso   1.00
C322   C     0.47309   0.52892   0.04595   0.00000  Uiso   1.00
C323   C     0.43938   0.55435   0.47577   0.00000  Uiso   1.00
C324   C     0.56068   0.44573   0.02423   0.00000  Uiso   1.00
C325   C     0.44222   0.55544   0.02231   0.00000  Uiso   1.00
C326   C     0.55784   0.44463   0.47769   0.00000  Uiso   1.00
H327   H     0.54551   0.44931   0.38955   0.00000  Uiso   1.00
H328   H     0.45450   0.55070   0.11045   0.00000  Uiso   1.00
C329   C     0.35722   0.46854   0.27695   0.00000  Uiso   1.00
C330   C     0.64278   0.53145   0.22305   0.00000  Uiso   1.00
C331   C     0.64791   0.46567   0.27363   0.00000  Uiso   1.00
C332   C     0.35209   0.53432   0.22637   0.00000  Uiso   1.00
C333   C     0.62414   0.49764   0.24753   0.00000  Uiso   1.00
C334   C     0.37586   0.50236   0.25246   0.00000  Uiso   1.00
C335   C     0.52179   0.35533   0.28223   0.00000  Uiso   1.00
C336   C     0.47821   0.64468   0.21777   0.00000  Uiso   1.00
C337   C     0.47735   0.35901   0.21840   0.00000  Uiso   1.00
C338   C     0.52265   0.64099   0.28160   0.00000  Uiso   1.00
N339   N     0.50000   0.61907   0.25000   0.00000  Uiso   1.00
N340   N     0.50000   0.38093   0.25000   0.00000  Uiso   1.00
N341   N     0.44512   0.56215   0.37916   0.00000  Uiso   1.00
O342   O     0.41661   0.54969   0.35077   0.00000  Uiso   1.00
O343   O     0.45526   0.60392   0.37929   0.00000  Uiso   1.00
N344   N     0.55487   0.43784   0.12083   0.00000  Uiso   1.00
O345   O     0.54477   0.39606   0.12058   0.00000  Uiso   1.00
O346   O     0.58335   0.45026   0.14928   0.00000  Uiso   1.00
N347   N     0.40432   0.57702   0.45314   0.00000  Uiso   1.00
O348   O     0.39977   0.62058   0.45395   0.00000  Uiso   1.00
O349   O     0.37432   0.55379   0.43679   0.00000  Uiso   1.00
N350   N     0.59579   0.42314   0.04686   0.00000  Uiso   1.00
O351   O     0.62569   0.44644   0.06331   0.00000  Uiso   1.00
O352   O     0.60045   0.37959   0.04601   0.00000  Uiso   1.00
Cl353  Cl    0.40469   0.58858   0.05045   0.00000  Uiso   1.00
Cl354  Cl    0.59539   0.41153   0.44954   0.00000  Uiso   1.00
N355   N     0.38134   0.43788   0.30627   0.00000  Uiso   1.00
O356   O     0.40505   0.45309   0.33807   0.00000  Uiso   1.00
O357   O     0.37992   0.39474   0.30103   0.00000  Uiso   1.00
N358   N     0.61867   0.56211   0.19372   0.00000  Uiso   1.00
O359   O     0.59496   0.54689   0.16192   0.00000  Uiso   1.00
O360   O     0.62008   0.60525   0.19895   0.00000  Uiso   1.00
N361   N     0.62897   0.43128   0.29842   0.00000  Uiso   1.00
O362   O     0.62584   0.39199   0.28073   0.00000  Uiso   1.00
O363   O     0.62582   0.43530   0.34134   0.00000  Uiso   1.00
N364   N     0.37103   0.56870   0.20156   0.00000  Uiso   1.00
O365   O     0.37414   0.60801   0.21923   0.00000  Uiso   1.00
O366   O     0.37421   0.56466   0.15865   0.00000  Uiso   1.00
Cl367  Cl    0.54713   0.38092   0.32693   0.00000  Uiso   1.00
Cl368  Cl    0.45287   0.61908   0.17307   0.00000  Uiso   1.00
Cl369  Cl    0.44506   0.38993   0.17923   0.00000  Uiso   1.00
Cl370  Cl    0.55494   0.61007   0.32077   0.00000  Uiso   1.00
O371   O     0.77226   0.53821   0.24999   0.00000  Uiso   1.00
O372   O     0.89441   0.46179   0.25000   0.00000  Uiso   1.00
O373   O     0.89441   0.53821   0.25000   0.00000  Uiso   1.00
O374   O     0.77226   0.46179   0.24999   0.00000  Uiso   1.00
C375   C     0.75343   0.50088   0.25059   0.00000  Uiso   1.00
C376   C     0.91324   0.49912   0.24941   0.00000  Uiso   1.00
O377   O     0.83333   0.53823   0.18393   0.00000  Uiso   1.00
O378   O     0.83334   0.46177   0.31607   0.00000  Uiso   1.00
O379   O     0.83334   0.53823   0.31607   0.00000  Uiso   1.00
O380   O     0.83333   0.46177   0.18392   0.00000  Uiso   1.00
C381   C     0.83443   0.50021   0.16365   0.00000  Uiso   1.00
C382   C     0.83224   0.49979   0.33635   0.00000  Uiso   1.00
Zn383  Zn    0.83333   0.55104   0.25000   0.00000  Uiso   1.00
Zn384  Zn    0.83333   0.44896   0.25000   0.00000  Uiso   1.00
C385   C     0.85775   0.47048   0.40787   0.00000  Uiso   1.00
C386   C     0.80894   0.52954   0.09213   0.00000  Uiso   1.00
C387   C     0.83014   0.49939   0.38405   0.00000  Uiso   1.00
C388   C     0.83653   0.50061   0.11595   0.00000  Uiso   1.00
C389   C     0.80291   0.52921   0.40537   0.00000  Uiso   1.00
C390   C     0.86377   0.47081   0.09463   0.00000  Uiso   1.00
C391   C     0.80219   0.52809   0.45236   0.00000  Uiso   1.00
C392   C     0.86452   0.47196   0.04764   0.00000  Uiso   1.00
C393   C     0.83226   0.49980   0.47663   0.00000  Uiso   1.00
C394   C     0.83445   0.50025   0.02337   0.00000  Uiso   1.00
C395   C     0.86028   0.47113   0.45405   0.00000  Uiso   1.00
C396   C     0.80642   0.52892   0.04595   0.00000  Uiso   1.00
C397   C     0.77272   0.55435   0.47577   0.00000  Uiso   1.00
C398   C     0.89401   0.44573   0.02423   0.00000  Uiso   1.00
C399   C     0.77555   0.55544   0.02231   0.00000  Uiso   1.00
C400   C     0.89117   0.44463   0.47769   0.00000  Uiso   1.00
H401   H     0.87885   0.44931   0.38955   0.00000  Uiso   1.00
H402   H     0.78783   0.55070   0.11045   0.00000  Uiso   1.00
C403   C     0.69055   0.46854   0.27695   0.00000  Uiso   1.00
C404   C     0.97611   0.53145   0.22305   0.00000  Uiso   1.00
C405   C     0.98125   0.46567   0.27363   0.00000  Uiso   1.00
C406   C     0.68542   0.53432   0.22637   0.00000  Uiso   1.00
C407   C     0.95747   0.49764   0.24753   0.00000  Uiso   1.00
C408   C     0.70920   0.50236   0.25246   0.00000  Uiso   1.00
C409   C     0.85512   0.35533   0.28223   0.00000  Uiso   1.00
C410   C     0.81154   0.64468   0.21777   0.00000  Uiso   1.00
C411   C     0.81069   0.35901   0.21840   0.00000  Uiso   1.00
C412   C     0.85598   0.64099   0.28160   0.00000  Uiso   1.00
N413   N     0.83333   0.61907   0.25000   0.00000  Uiso   1.00
N414   N     0.83333   0.38093   0.25000   0.00000  Uiso   1.00
N415   N     0.77845   0.56215   0.37916   0.00000  Uiso   1.00
O416   O     0.74994   0.54969   0.35077   0.00000  Uiso   1.00
O417   O     0.78859   0.60392   0.37929   0.00000  Uiso   1.00
N418   N     0.88821   0.43784   0.12083   0.00000  Uiso   1.00
O419   O     0.87810   0.39606   0.12058   0.00000  Uiso   1.00
O420   O     0.91668   0.45026   0.14928   0.00000  Uiso   1.00
N421   N     0.73765   0.57702   0.45314   0.00000  Uiso   1.00
O422   O     0.73310   0.62058   0.45395   0.00000  Uiso   1.00
O423   O     0.70765   0.55379   0.43679   0.00000  Uiso   1.00
N424   N     0.92912   0.42314   0.04686   0.00000  Uiso   1.00
O425   O     0.95902   0.44644   0.06331   0.00000  Uiso   1.00
O426   O     0.93378   0.37959   0.04601   0.00000  Uiso   1.00
Cl427  Cl    0.73802   0.58858   0.05045   0.00000  Uiso   1.00
Cl428  Cl    0.92873   0.41153   0.44954   0.00000  Uiso   1.00
N429   N     0.71467   0.43788   0.30627   0.00000  Uiso   1.00
O430   O     0.73838   0.45309   0.33807   0.00000  Uiso   1.00
O431   O     0.71325   0.39474   0.30103   0.00000  Uiso   1.00
N432   N     0.95200   0.56211   0.19372   0.00000  Uiso   1.00
O433   O     0.92829   0.54689   0.16192   0.00000  Uiso   1.00
O434   O     0.95341   0.60525   0.19895   0.00000  Uiso   1.00
N435   N     0.96230   0.43128   0.29842   0.00000  Uiso   1.00
O436   O     0.95918   0.39199   0.28073   0.00000  Uiso   1.00
O437   O     0.95916   0.43530   0.34134   0.00000  Uiso   1.00
N438   N     0.70437   0.56870   0.20156   0.00000  Uiso   1.00
O439   O     0.70747   0.60801   0.21923   0.00000  Uiso   1.00
O440   O     0.70754   0.56466   0.15865   0.00000  Uiso   1.00
Cl441  Cl    0.88046   0.38092   0.32693   0.00000  Uiso   1.00
Cl442  Cl    0.78620   0.61908   0.17307   0.00000  Uiso   1.00
Cl443  Cl    0.77839   0.38993   0.17923   0.00000  Uiso   1.00
Cl444  Cl    0.88828   0.61007   0.32077   0.00000  Uiso   1.00
O445   O     0.10559   0.87154   0.24999   0.00000  Uiso   1.00
O446   O     0.22774   0.79513   0.25000   0.00000  Uiso   1.00
O447   O     0.22774   0.87154   0.25000   0.00000  Uiso   1.00
O448   O     0.10559   0.79513   0.24999   0.00000  Uiso   1.00
C449   C     0.08677   0.83422   0.25059   0.00000  Uiso   1.00
C450   C     0.24657   0.83245   0.24941   0.00000  Uiso   1.00
O451   O     0.16666   0.87156   0.18393   0.00000  Uiso   1.00
O452   O     0.16667   0.79511   0.31607   0.00000  Uiso   1.00
O453   O     0.16667   0.87156   0.31607   0.00000  Uiso   1.00
O454   O     0.16666   0.79511   0.18392   0.00000  Uiso   1.00
C455   C     0.16776   0.83354   0.16365   0.00000  Uiso   1.00
C456   C     0.16557   0.83312   0.33635   0.00000  Uiso   1.00
Zn457  Zn    0.16667   0.88437   0.25000   0.00000  Uiso   1.00
Zn458  Zn    0.16667   0.78229   0.25000   0.00000  Uiso   1.00
C459   C     0.19108   0.80382   0.40787   0.00000  Uiso   1.00
C460   C     0.14227   0.86287   0.09213   0.00000  Uiso   1.00
C461   C     0.16348   0.83273   0.38405   0.00000  Uiso   1.00
C462   C     0.16987   0.83395   0.11595   0.00000  Uiso   1.00
C463   C     0.13624   0.86254   0.40537   0.00000  Uiso   1.00
C464   C     0.19711   0.80414   0.09463   0.00000  Uiso   1.00
C465   C     0.13552   0.86142   0.45236   0.00000  Uiso   1.00
C466   C     0.19785   0.80530   0.04764   0.00000  Uiso   1.00
C467   C     0.16559   0.83314   0.47663   0.00000  Uiso   1.00
C468   C     0.16778   0.83358   0.02337   0.00000  Uiso   1.00
C469   C     0.19362   0.80446   0.45405   0.00000  Uiso   1.00
C470   C     0.13975   0.86225   0.04595   0.00000  Uiso   1.00
C471   C     0.10605   0.88768   0.47577   0.00000  Uiso   1.00
C472   C     0.22734   0.77907   0.02423   0.00000  Uiso   1.00
C473   C     0.10889   0.88878   0.02231   0.00000  Uiso   1.00
C474   C     0.22450   0.77796   0.47769   0.00000  Uiso   1.00
H475   H     0.21218   0.78265   0.38955   0.00000  Uiso   1.00
H476   H     0.12117   0.88404   0.11045   0.00000  Uiso   1.00
C477   C     0.02389   0.80188   0.27695   0.00000  Uiso   1.00
C478   C     0.30945   0.86479   0.22305   0.00000  Uiso   1.00
C479   C     0.31458   0.79901   0.27363   0.00000  Uiso   1.00
C480   C     0.01875   0.86766   0.22637   0.00000  Uiso   1.00
C481   C     0.29080   0.83097   0.24753   0.00000  Uiso   1.00
C482   C     0.04253   0.83570   0.25246   0.00000  Uiso   1.00
C483   C     0.18846   0.68866   0.28223   0.00000  Uiso   1.00
C484   C     0.14488   0.97801   0.21777   0.00000  Uiso   1.00
C485   C     0.14402   0.69235   0.21840   0.00000  Uiso   1.00
C486   C     0.18931   0.97432   0.28160   0.00000  Uiso   1.00
N487   N     0.16667   0.95240   0.25000   0.00000  Uiso   1.00
N488   N     0.16667   0.71427   0.25000   0.00000  Uiso   1.00
N489   N     0.11179   0.89548   0.37916   0.00000  Uiso   1.00
O490   O     0.08327   0.88303   0.35077   0.00000  Uiso   1.00
O491   O     0.12193   0.93725   0.37929   0.00000  Uiso   1.00
N492   N     0.22154   0.77117   0.12083   0.00000  Uiso   1.00
O493   O     0.21144   0.72940   0.12058   0.00000  Uiso   1.00
O494   O     0.25002   0.78360   0.14928   0.00000  Uiso   1.00
N495   N     0.07098   0.91035   0.45314   0.00000  Uiso   1.00
O496   O     0.06643   0.95392   0.45395   0.00000  Uiso   1.00
O497   O     0.04099   0.88713   0.43679   0.00000  Uiso   1.00
N498   N     0.26245   0.75647   0.04686   0.00000  Uiso   1.00
O499   O     0.29236   0.77978   0.06331   0.00000  Uiso   1.00
O500   O     0.26712   0.71292   0.04601   0.00000  Uiso   1.00
Cl501  Cl    0.07135   0.92191   0.05045   0.00000  Uiso   1.00
Cl502  Cl    0.26206   0.74487   0.44954   0.00000  Uiso   1.00
N503   N     0.04800   0.77121   0.30627   0.00000  Uiso   1.00
O504   O     0.07171   0.78642   0.33807   0.00000  Uiso   1.00
O505   O     0.04658   0.72807   0.30103   0.00000  Uiso   1.00
N506   N     0.28533   0.89544   0.19372   0.00000  Uiso   1.00
O507   O     0.26162   0.88022   0.16192   0.00000  Uiso   1.00
O508   O     0.28674   0.93858   0.19895   0.00000  Uiso   1.00
N509   N     0.29563   0.76462   0.29842   0.00000  Uiso   1.00
O510   O     0.29251   0.72532   0.28073   0.00000  Uiso   1.00
O511   O     0.29249   0.76863   0.34134   0.00000  Uiso   1.00
N512   N     0.03770   0.90204   0.20156   0.00000  Uiso   1.00
O513   O     0.04080   0.94135   0.21923   0.00000  Uiso   1.00
O514   O     0.04087   0.89799   0.15865   0.00000  Uiso   1.00
Cl515  Cl    0.21380   0.71426   0.32693   0.00000  Uiso   1.00
Cl516  Cl    0.11953   0.95241   0.17307   0.00000  Uiso   1.00
Cl517  Cl    0.11172   0.72327   0.17923   0.00000  Uiso   1.00
Cl518  Cl    0.22161   0.94340   0.32077   0.00000  Uiso   1.00
O519   O     0.43892   0.87154   0.24999   0.00000  Uiso   1.00
O520   O     0.56108   0.79513   0.25000   0.00000  Uiso   1.00
O521   O     0.56108   0.87154   0.25000   0.00000  Uiso   1.00
O522   O     0.43892   0.79513   0.24999   0.00000  Uiso   1.00
C523   C     0.42010   0.83422   0.25059   0.00000  Uiso   1.00
C524   C     0.57990   0.83245   0.24941   0.00000  Uiso   1.00
O525   O     0.49999   0.87156   0.18393   0.00000  Uiso   1.00
O526   O     0.50001   0.79511   0.31607   0.00000  Uiso   1.00
O527   O     0.50001   0.87156   0.31607   0.00000  Uiso   1.00
O528   O     0.49999   0.79511   0.18392   0.00000  Uiso   1.00
C529   C     0.50109   0.83354   0.16365   0.00000  Uiso   1.00
C530   C     0.49891   0.83312   0.33635   0.00000  Uiso   1.00
Zn531  Zn    0.50000   0.88437   0.25000   0.00000  Uiso   1.00
Zn532  Zn    0.50000   0.78229   0.25000   0.00000  Uiso   1.00
C533   C     0.52441   0.80382   0.40787   0.00000  Uiso   1.00
C534   C     0.47561   0.86287   0.09213   0.00000  Uiso   1.00
C535   C     0.49681   0.83273   0.38405   0.00000  Uiso   1.00
C536   C     0.50320   0.83395   0.11595   0.00000  Uiso   1.00
C537   C     0.46957   0.86254   0.40537   0.00000  Uiso   1.00
C538   C     0.53044   0.80414   0.09463   0.00000  Uiso   1.00
C539   C     0.46885   0.86142   0.45236   0.00000  Uiso   1.00
C540   C     0.53118   0.80530   0.04764   0.00000  Uiso   1.00
C541   C     0.49892   0.83314   0.47663   0.00000  Uiso   1.00
C542   C     0.50111   0.83358   0.02337   0.00000  Uiso   1.00
C543   C     0.52695   0.80446   0.45405   0.00000  Uiso   1.00
C544   C     0.47309   0.86225   0.04595   0.00000  Uiso   1.00
C545   C     0.43938   0.88768   0.47577   0.00000  Uiso   1.00
C546   C     0.56068   0.77907   0.02423   0.00000  Uiso   1.00
C547   C     0.44222   0.88878   0.02231   0.00000  Uiso   1.00
C548   C     0.55784   0.77796   0.47769   0.00000  Uiso   1.00
H549   H     0.54551   0.78265   0.38955   0.00000  Uiso   1.00
H550   H     0.45450   0.88404   0.11045   0.00000  Uiso   1.00
C551   C     0.35722   0.80188   0.27695   0.00000  Uiso   1.00
C552   C     0.64278   0.86479   0.22305   0.00000  Uiso   1.00
C553   C     0.64791   0.79901   0.27363   0.00000  Uiso   1.00
C554   C     0.35209   0.86766   0.22637   0.00000  Uiso   1.00
C555   C     0.62414   0.83097   0.24753   0.00000  Uiso   1.00
C556   C     0.37586   0.83570   0.25246   0.00000  Uiso   1.00
C557   C     0.52179   0.68866   0.28223   0.00000  Uiso   1.00
C558   C     0.47821   0.97801   0.21777   0.00000  Uiso   1.00
C559   C     0.47735   0.69235   0.21840   0.00000  Uiso   1.00
C560   C     0.52265   0.97432   0.28160   0.00000  Uiso   1.00
N561   N     0.50000   0.95240   0.25000   0.00000  Uiso   1.00
N562   N     0.50000   0.71427   0.25000   0.00000  Uiso   1.00
N563   N     0.44512   0.89548   0.37916   0.00000  Uiso   1.00
O564   O     0.41661   0.88303   0.35077   0.00000  Uiso   1.00
O565   O     0.45526   0.93725   0.37929   0.00000  Uiso   1.00
N566   N     0.55487   0.77117   0.12083   0.00000  Uiso   1.00
O567   O     0.54477   0.72940   0.12058   0.00000  Uiso   1.00
O568   O     0.58335   0.78360   0.14928   0.00000  Uiso   1.00
N569   N     0.40432   0.91035   0.45314   0.00000  Uiso   1.00
O570   O     0.39977   0.95392   0.45395   0.00000  Uiso   1.00
O571   O     0.37432   0.88713   0.43679   0.00000  Uiso   1.00
N572   N     0.59579   0.75647   0.04686   0.00000  Uiso   1.00
O573   O     0.62569   0.77978   0.06331   0.00000  Uiso   1.00
O574   O     0.60045   0.71292   0.04601   0.00000  Uiso   1.00
Cl575  Cl    0.40469   0.92191   0.05045   0.00000  Uiso   1.00
Cl576  Cl    0.59539   0.74487   0.44954   0.00000  Uiso   1.00
N577   N     0.38134   0.77121   0.30627   0.00000  Uiso   1.00
O578   O     0.40505   0.78642   0.33807   0.00000  Uiso   1.00
O579   O     0.37992   0.72807   0.30103   0.00000  Uiso   1.00
N580   N     0.61867   0.89544   0.19372   0.00000  Uiso   1.00
O581   O     0.59496   0.88022   0.16192   0.00000  Uiso   1.00
O582   O     0.62008   0.93858   0.19895   0.00000  Uiso   1.00
N583   N     0.62897   0.76462   0.29842   0.00000  Uiso   1.00
O584   O     0.62584   0.72532   0.28073   0.00000  Uiso   1.00
O585   O     0.62582   0.76863   0.34134   0.00000  Uiso   1.00
N586   N     0.37103   0.90204   0.20156   0.00000  Uiso   1.00
O587   O     0.37414   0.94135   0.21923   0.00000  Uiso   1.00
O588   O     0.37421   0.89799   0.15865   0.00000  Uiso   1.00
Cl589  Cl    0.54713   0.71426   0.32693   0.00000  Uiso   1.00
Cl590  Cl    0.45287   0.95241   0.17307   0.00000  Uiso   1.00
Cl591  Cl    0.44506   0.72327   0.17923   0.00000  Uiso   1.00
Cl592  Cl    0.55494   0.94340   0.32077   0.00000  Uiso   1.00
O593   O     0.77226   0.87154   0.24999   0.00000  Uiso   1.00
O594   O     0.89441   0.79513   0.25000   0.00000  Uiso   1.00
O595   O     0.89441   0.87154   0.25000   0.00000  Uiso   1.00
O596   O     0.77226   0.79513   0.24999   0.00000  Uiso   1.00
C597   C     0.75343   0.83422   0.25059   0.00000  Uiso   1.00
C598   C     0.91324   0.83245   0.24941   0.00000  Uiso   1.00
O599   O     0.83333   0.87156   0.18393   0.00000  Uiso   1.00
O600   O     0.83334   0.79511   0.31607   0.00000  Uiso   1.00
O601   O     0.83334   0.87156   0.31607   0.00000  Uiso   1.00
O602   O     0.83333   0.79511   0.18392   0.00000  Uiso   1.00
C603   C     0.83443   0.83354   0.16365   0.00000  Uiso   1.00
C604   C     0.83224   0.83312   0.33635   0.00000  Uiso   1.00
Zn605  Zn    0.83333   0.88437   0.25000   0.00000  Uiso   1.00
Zn606  Zn    0.83333   0.78229   0.25000   0.00000  Uiso   1.00
C607   C     0.85775   0.80382   0.40787   0.00000  Uiso   1.00
C608   C     0.80894   0.86287   0.09213   0.00000  Uiso   1.00
C609   C     0.83014   0.83273   0.38405   0.00000  Uiso   1.00
C610   C     0.83653   0.83395   0.11595   0.00000  Uiso   1.00
C611   C     0.80291   0.86254   0.40537   0.00000  Uiso   1.00
C612   C     0.86377   0.80414   0.09463   0.00000  Uiso   1.00
C613   C     0.80219   0.86142   0.45236   0.00000  Uiso   1.00
C614   C     0.86452   0.80530   0.04764   0.00000  Uiso   1.00
C615   C     0.83226   0.83314   0.47663   0.00000  Uiso   1.00
C616   C     0.83445   0.83358   0.02337   0.00000  Uiso   1.00
C617   C     0.86028   0.80446   0.45405   0.00000  Uiso   1.00
C618   C     0.80642   0.86225   0.04595   0.00000  Uiso   1.00
C619   C     0.77272   0.88768   0.47577   0.00000  Uiso   1.00
C620   C     0.89401   0.77907   0.02423   0.00000  Uiso   1.00
C621   C     0.77555   0.88878   0.02231   0.00000  Uiso   1.00
C622   C     0.89117   0.77796   0.47769   0.00000  Uiso   1.00
H623   H     0.87885   0.78265   0.38955   0.00000  Uiso   1.00
H624   H     0.78783   0.88404   0.11045   0.00000  Uiso   1.00
C625   C     0.69055   0.80188   0.27695   0.00000  Uiso   1.00
C626   C     0.97611   0.86479   0.22305   0.00000  Uiso   1.00
C627   C     0.98125   0.79901   0.27363   0.00000  Uiso   1.00
C628   C     0.68542   0.86766   0.22637   0.00000  Uiso   1.00
C629   C     0.95747   0.83097   0.24753   0.00000  Uiso   1.00
C630   C     0.70920   0.83570   0.25246   0.00000  Uiso   1.00
C631   C     0.85512   0.68866   0.28223   0.00000  Uiso   1.00
C632   C     0.81154   0.97801   0.21777   0.00000  Uiso   1.00
C633   C     0.81069   0.69235   0.21840   0.00000  Uiso   1.00
C634   C     0.85598   0.97432   0.28160   0.00000  Uiso   1.00
N635   N     0.83333   0.95240   0.25000   0.00000  Uiso   1.00
N636   N     0.83333   0.71427   0.25000   0.00000  Uiso   1.00
N637   N     0.77845   0.89548   0.37916   0.00000  Uiso   1.00
O638   O     0.74994   0.88303   0.35077   0.00000  Uiso   1.00
O639   O     0.78859   0.93725   0.37929   0.00000  Uiso   1.00
N640   N     0.88821   0.77117   0.12083   0.00000  Uiso   1.00
O641   O     0.87810   0.72940   0.12058   0.00000  Uiso   1.00
O642   O     0.91668   0.78360   0.14928   0.00000  Uiso   1.00
N643   N     0.73765   0.91035   0.45314   0.00000  Uiso   1.00
O644   O     0.73310   0.95392   0.45395   0.00000  Uiso   1.00
O645   O     0.70765   0.88713   0.43679   0.00000  Uiso   1.00
N646   N     0.92912   0.75647   0.04686   0.00000  Uiso   1.00
O647   O     0.95902   0.77978   0.06331   0.00000  Uiso   1.00
O648   O     0.93378   0.71292   0.04601   0.00000  Uiso   1.00
Cl649  Cl    0.73802   0.92191   0.05045   0.00000  Uiso   1.00
Cl650  Cl    0.92873   0.74487   0.44954   0.00000  Uiso   1.00
N651   N     0.71467   0.77121   0.30627   0.00000  Uiso   1.00
O652   O     0.73838   0.78642   0.33807   0.00000  Uiso   1.00
O653   O     0.71325   0.72807   0.30103   0.00000  Uiso   1.00
N654   N     0.95200   0.89544   0.19372   0.00000  Uiso   1.00
O655   O     0.92829   0.88022   0.16192   0.00000  Uiso   1.00
O656   O     0.95341   0.93858   0.19895   0.00000  Uiso   1.00
N657   N     0.96230   0.76462   0.29842   0.00000  Uiso   1.00
O658   O     0.95918   0.72532   0.28073   0.00000  Uiso   1.00
O659   O     0.95916   0.76863   0.34134   0.00000  Uiso   1.00
N660   N     0.70437   0.90204   0.20156   0.00000  Uiso   1.00
O661   O     0.70747   0.94135   0.21923   0.00000  Uiso   1.00
O662   O     0.70754   0.89799   0.15865   0.00000  Uiso   1.00
Cl663  Cl    0.88046   0.71426   0.32693   0.00000  Uiso   1.00
Cl664  Cl    0.78620   0.95241   0.17307   0.00000  Uiso   1.00
Cl665  Cl    0.77839   0.72327   0.17923   0.00000  Uiso   1.00
Cl666  Cl    0.88828   0.94340   0.32077   0.00000  Uiso   1.00
O667   O     0.10559   0.20487   0.74999   0.00000  Uiso   1.00
O668   O     0.22774   0.12846   0.75000   0.00000  Uiso   1.00
O669   O     0.22774   0.20487   0.75000   0.00000  Uiso   1.00
O670   O     0.10559   0.12846   0.74999   0.00000  Uiso   1.00
C671   C     0.08677   0.16755   0.75059   0.00000  Uiso   1.00
C672   C     0.24657   0.16578   0.74941   0.00000  Uiso   1.00
O673   O     0.16666   0.20489   0.68393   0.00000  Uiso   1.00
O674   O     0.16667   0.12844   0.81607   0.00000  Uiso   1.00
O675   O     0.16667   0.20489   0.81607   0.00000  Uiso   1.00
O676   O     0.16666   0.12844   0.68392   0.00000  Uiso   1.00
C677   C     0.16776   0.16688   0.66365   0.00000  Uiso   1.00
C678   C     0.16557   0.16646   0.83635   0.00000  Uiso   1.00
Zn679  Zn    0.16667   0.21771   0.75000   0.00000  Uiso   1.00
Zn680  Zn    0.16667   0.11563   0.75000   0.00000  Uiso   1.00
C681   C     0.19108   0.13715   0.90787   0.00000  Uiso   1.00
C682   C     0.14227   0.19621   0.59213   0.00000  Uiso   1.00
C683   C     0.16348   0.16606   0.88405   0.00000  Uiso   1.00
C684   C     0.16987   0.16728   0.61595   0.00000  Uiso   1.00
C685   C     0.13624   0.19588   0.90537   0.00000  Uiso   1.00
C686   C     0.19711   0.13748   0.59463   0.00000  Uiso   1.00
C687   C     0.13552   0.19475   0.95236   0.00000  Uiso   1.00
C688   C     0.19785   0.13863   0.54764   0.00000  Uiso   1.00
C689   C     0.16559   0.16647   0.97663   0.00000  Uiso   1.00
C690   C     0.16778   0.16691   0.52337   0.00000  Uiso   1.00
C691   C     0.19362   0.13779   0.95405   0.00000  Uiso   1.00
C692   C     0.13975   0.19559   0.54595   0.00000  Uiso   1.00
C693   C     0.10605   0.22102   0.97577   0.00000  Uiso   1.00
C694   C     0.22734   0.11240   0.52423   0.00000  Uiso   1.00
C695   C     0.10889   0.22211   0.52231   0.00000  Uiso   1.00
C696   C     0.22450   0.11129   0.97769   0.00000  Uiso   1.00
H697   H     0.21218   0.11598   0.88955   0.00000  Uiso   1.00
H698   H     0.12117   0.21737   0.61045   0.00000  Uiso   1.00
C699   C     0.02389   0.13521   0.77695   0.00000  Uiso   1.00
C700   C     0.30945   0.19812   0.72305   0.00000  Uiso   1.00
C701   C     0.31458   0.13234   0.77363   0.00000  Uiso   1.00
C702   C     0.01875   0.20099   0.72637   0.00000  Uiso   1.00
C703   C     0.29080   0.16430   0.74753   0.00000  Uiso   1.00
C704   C     0.04253   0.16903   0.75246   0.00000  Uiso   1.00
C705   C     0.18846   0.02199   0.78223   0.00000  Uiso   1.00
C706   C     0.14488   0.31134   0.71777   0.00000  Uiso   1.00
C707   C     0.14402   0.02568   0.71840   0.00000  Uiso   1.00
C708   C     0.18931   0.30765   0.78160   0.00000  Uiso   1.00
N709   N     0.16667   0.28573   0.75000   0.00000  Uiso   1.00
N710   N     0.16667   0.04760   0.75000   0.00000  Uiso   1.00
N711   N     0.11179   0.22882   0.87916   0.00000  Uiso   1.00
O712   O     0.08327   0.21636   0.85077   0.00000  Uiso   1.00
O713   O     0.12193   0.27058   0.87929   0.00000  Uiso   1.00
N714   N     0.22154   0.10451   0.62083   0.00000  Uiso   1.00
O715   O     0.21144   0.06273   0.62058   0.00000  Uiso   1.00
O716   O     0.25002   0.11693   0.64928   0.00000  Uiso   1.00
N717   N     0.07098   0.24369   0.95314   0.00000  Uiso   1.00
O718   O     0.06643   0.28725   0.95395   0.00000  Uiso   1.00
O719   O     0.04099   0.22046   0.93679   0.00000  Uiso   1.00
N720   N     0.26245   0.08981   0.54686   0.00000  Uiso   1.00
O721   O     0.29236   0.11311   0.56331   0.00000  Uiso   1.00
O722   O     0.26712   0.04625   0.54601   0.00000  Uiso   1.00
Cl723  Cl    0.07135   0.25524   0.55045   0.00000  Uiso   1.00
Cl724  Cl    0.26206   0.07820   0.94954   0.00000  Uiso   1.00
N725   N     0.04800   0.10455   0.80627   0.00000  Uiso   1.00
O726   O     0.07171   0.11976   0.83807   0.00000  Uiso   1.00
O727   O     0.04658   0.06141   0.80103   0.00000  Uiso   1.00
N728   N     0.28533   0.22878   0.69372   0.00000  Uiso   1.00
O729   O     0.26162   0.21356   0.66192   0.00000  Uiso   1.00
O730   O     0.28674   0.27192   0.69895   0.00000  Uiso   1.00
N731   N     0.29563   0.09795   0.79842   0.00000  Uiso   1.00
O732   O     0.29251   0.05865   0.78073   0.00000  Uiso   1.00
O733   O     0.29249   0.10196   0.84134   0.00000  Uiso   1.00
N734   N     0.03770   0.23537   0.70156   0.00000  Uiso   1.00
O735   O     0.04080   0.27468   0.71923   0.00000  Uiso   1.00
O736   O     0.04087   0.23133   0.65865   0.00000  Uiso   1.00
Cl737  Cl    0.21380   0.04759   0.82693   0.00000  Uiso   1.00
Cl738  Cl    0.11953   0.28575   0.67307   0.00000  Uiso   1.00
Cl739  Cl    0.11172   0.05660   0.67923   0.00000  Uiso   1.00
Cl740  Cl    0.22161   0.27673   0.82077   0.00000  Uiso   1.00
O741   O     0.43892   0.20487   0.74999   0.00000  Uiso   1.00
O742   O     0.56108   0.12846   0.75000   0.00000  Uiso   1.00
O743   O     0.56108   0.20487   0.75000   0.00000  Uiso   1.00
O744   O     0.43892   0.12846   0.74999   0.00000  Uiso   1.00
C745   C     0.42010   0.16755   0.75059   0.00000  Uiso   1.00
C746   C     0.57990   0.16578   0.74941   0.00000  Uiso   1.00
O747   O     0.49999   0.20489   0.68393   0.00000  Uiso   1.00
O748   O     0.50001   0.12844   0.81607   0.00000  Uiso   1.00
O749   O     0.50001   0.20489   0.81607   0.00000  Uiso   1.00
O750   O     0.49999   0.12844   0.68392   0.00000  Uiso   1.00
C751   C     0.50109   0.16688   0.66365   0.00000  Uiso   1.00
C752   C     0.49891   0.16646   0.83635   0.00000  Uiso   1.00
Zn753  Zn    0.50000   0.21771   0.75000   0.00000  Uiso   1.00
Zn754  Zn    0.50000   0.11563   0.75000   0.00000  Uiso   1.00
C755   C     0.52441   0.13715   0.90787   0.00000  Uiso   1.00
C756   C     0.47561   0.19621   0.59213   0.00000  Uiso   1.00
C757   C     0.49681   0.16606   0.88405   0.00000  Uiso   1.00
C758   C     0.50320   0.16728   0.61595   0.00000  Uiso   1.00
C759   C     0.46957   0.19588   0.90537   0.00000  Uiso   1.00
C760   C     0.53044   0.13748   0.59463   0.00000  Uiso   1.00
C761   C     0.46885   0.19475   0.95236   0.00000  Uiso   1.00
C762   C     0.53118   0.13863   0.54764   0.00000  Uiso   1.00
C763   C     0.49892   0.16647   0.97663   0.00000  Uiso   1.00
C764   C     0.50111   0.16691   0.52337   0.00000  Uiso   1.00
C765   C     0.52695   0.13779   0.95405   0.00000  Uiso   1.00
C766   C     0.47309   0.19559   0.54595   0.00000  Uiso   1.00
C767   C     0.43938   0.22102   0.97577   0.00000  Uiso   1.00
C768   C     0.56068   0.11240   0.52423   0.00000  Uiso   1.00
C769   C     0.44222   0.22211   0.52231   0.00000  Uiso   1.00
C770   C     0.55784   0.11129   0.97769   0.00000  Uiso   1.00
H771   H     0.54551   0.11598   0.88955   0.00000  Uiso   1.00
H772   H     0.45450   0.21737   0.61045   0.00000  Uiso   1.00
C773   C     0.35722   0.13521   0.77695   0.00000  Uiso   1.00
C774   C     0.64278   0.19812   0.72305   0.00000  Uiso   1.00
C775   C     0.64791   0.13234   0.77363   0.00000  Uiso   1.00
C776   C     0.35209   0.20099   0.72637   0.00000  Uiso   1.00
C777   C     0.62414   0.16430   0.74753   0.00000  Uiso   1.00
C778   C     0.37586   0.16903   0.75246   0.00000  Uiso   1.00
C779   C     0.52179   0.02199   0.78223   0.00000  Uiso   1.00
C780   C     0.47821   0.31134   0.71777   0.00000  Uiso   1.00
C781   C     0.47735   0.02568   0.71840   0.00000  Uiso   1.00
C782   C     0.52265   0.30765   0.78160   0.00000  Uiso   1.00
N783   N     0.50000   0.28573   0.75000   0.00000  Uiso   1.00
N784   N     0.50000   0.04760   0.75000   0.00000  Uiso   1.00
N785   N     0.44512   0.22882   0.87916   0.00000  Uiso   1.00
O786   O     0.41661   0.21636   0.85077   0.00000  Uiso   1.00
O787   O     0.45526   0.27058   0.87929   0.00000  Uiso   1.00
N788   N     0.55487   0.10451   0.62083   0.00000  Uiso   1.00
O789   O     0.54477   0.06273   0.62058   0.00000  Uiso   1.00
O790   O     0.58335   0.11693   0.64928   0.00000  Uiso   1.00
N791   N     0.40432   0.24369   0.95314   0.00000  Uiso   1.00
O792   O     0.39977   0.28725   0.95395   0.00000  Uiso   1.00
O793   O     0.37432   0.22046   0.93679   0.00000  Uiso   1.00
N794   N     0.59579   0.08981   0.54686   0.00000  Uiso   1.00
O795   O     0.62569   0.11311   0.56331   0.00000  Uiso   1.00
O796   O     0.60045   0.04625   0.54601   0.00000  Uiso   1.00
Cl797  Cl    0.40469   0.25524   0.55045   0.00000  Uiso   1.00
Cl798  Cl    0.59539   0.07820   0.94954   0.00000  Uiso   1.00
N799   N     0.38134   0.10455   0.80627   0.00000  Uiso   1.00
O800   O     0.40505   0.11976   0.83807   0.00000  Uiso   1.00
O801   O     0.37992   0.06141   0.80103   0.00000  Uiso   1.00
N802   N     0.61867   0.22878   0.69372   0.00000  Uiso   1.00
O803   O     0.59496   0.21356   0.66192   0.00000  Uiso   1.00
O804   O     0.62008   0.27192   0.69895   0.00000  Uiso   1.00
N805   N     0.62897   0.09795   0.79842   0.00000  Uiso   1.00
O806   O     0.62584   0.05865   0.78073   0.00000  Uiso   1.00
O807   O     0.62582   0.10196   0.84134   0.00000  Uiso   1.00
N808   N     0.37103   0.23537   0.70156   0.00000  Uiso   1.00
O809   O     0.37414   0.27468   0.71923   0.00000  Uiso   1.00
O810   O     0.37421   0.23133   0.65865   0.00000  Uiso   1.00
Cl811  Cl    0.54713   0.04759   0.82693   0.00000  Uiso   1.00
Cl812  Cl    0.45287   0.28575   0.67307   0.00000  Uiso   1.00
Cl813  Cl    0.44506   0.05660   0.67923   0.00000  Uiso   1.00
Cl814  Cl    0.55494   0.27673   0.82077   0.00000  Uiso   1.00
O815   O     0.77226   0.20487   0.74999   0.00000  Uiso   1.00
O816   O     0.89441   0.12846   0.75000   0.00000  Uiso   1.00
O817   O     0.89441   0.20487   0.75000   0.00000  Uiso   1.00
O818   O     0.77226   0.12846   0.74999   0.00000  Uiso   1.00
C819   C     0.75343   0.16755   0.75059   0.00000  Uiso   1.00
C820   C     0.91324   0.16578   0.74941   0.00000  Uiso   1.00
O821   O     0.83333   0.20489   0.68393   0.00000  Uiso   1.00
O822   O     0.83334   0.12844   0.81607   0.00000  Uiso   1.00
O823   O     0.83334   0.20489   0.81607   0.00000  Uiso   1.00
O824   O     0.83333   0.12844   0.68392   0.00000  Uiso   1.00
C825   C     0.83443   0.16688   0.66365   0.00000  Uiso   1.00
C826   C     0.83224   0.16646   0.83635   0.00000  Uiso   1.00
Zn827  Zn    0.83333   0.21771   0.75000   0.00000  Uiso   1.00
Zn828  Zn    0.83333   0.11563   0.75000   0.00000  Uiso   1.00
C829   C     0.85775   0.13715   0.90787   0.00000  Uiso   1.00
C830   C     0.80894   0.19621   0.59213   0.00000  Uiso   1.00
C831   C     0.83014   0.16606   0.88405   0.00000  Uiso   1.00
C832   C     0.83653   0.16728   0.61595   0.00000  Uiso   1.00
C833   C     0.80291   0.19588   0.90537   0.00000  Uiso   1.00
C834   C     0.86377   0.13748   0.59463   0.00000  Uiso   1.00
C835   C     0.80219   0.19475   0.95236   0.00000  Uiso   1.00
C836   C     0.86452   0.13863   0.54764   0.00000  Uiso   1.00
C837   C     0.83226   0.16647   0.97663   0.00000  Uiso   1.00
C838   C     0.83445   0.16691   0.52337   0.00000  Uiso   1.00
C839   C     0.86028   0.13779   0.95405   0.00000  Uiso   1.00
C840   C     0.80642   0.19559   0.54595   0.00000  Uiso   1.00
C841   C     0.77272   0.22102   0.97577   0.00000  Uiso   1.00
C842   C     0.89401   0.11240   0.52423   0.00000  Uiso   1.00
C843   C     0.77555   0.22211   0.52231   0.00000  Uiso   1.00
C844   C     0.89117   0.11129   0.97769   0.00000  Uiso   1.00
H845   H     0.87885   0.11598   0.88955   0.00000  Uiso   1.00
H846   H     0.78783   0.21737   0.61045   0.00000  Uiso   1.00
C847   C     0.69055   0.13521   0.77695   0.00000  Uiso   1.00
C848   C     0.97611   0.19812   0.72305   0.00000  Uiso   1.00
C849   C     0.98125   0.13234   0.77363   0.00000  Uiso   1.00
C850   C     0.68542   0.20099   0.72637   0.00000  Uiso   1.00
C851   C     0.95747   0.16430   0.74753   0.00000  Uiso   1.00
C852   C     0.70920   0.16903   0.75246   0.00000  Uiso   1.00
C853   C     0.85512   0.02199   0.78223   0.00000  Uiso   1.00
C854   C     0.81154   0.31134   0.71777   0.00000  Uiso   1.00
C855   C     0.81069   0.02568   0.71840   0.00000  Uiso   1.00
C856   C     0.85598   0.30765   0.78160   0.00000  Uiso   1.00
N857   N     0.83333   0.28573   0.75000   0.00000  Uiso   1.00
N858   N     0.83333   0.04760   0.75000   0.00000  Uiso   1.00
N859   N     0.77845   0.22882   0.87916   0.00000  Uiso   1.00
O860   O     0.74994   0.21636   0.85077   0.00000  Uiso   1.00
O861   O     0.78859   0.27058   0.87929   0.00000  Uiso   1.00
N862   N     0.88821   0.10451   0.62083   0.00000  Uiso   1.00
O863   O     0.87810   0.06273   0.62058   0.00000  Uiso   1.00
O864   O     0.91668   0.11693   0.64928   0.00000  Uiso   1.00
N865   N     0.73765   0.24369   0.95314   0.00000  Uiso   1.00
O866   O     0.73310   0.28725   0.95395   0.00000  Uiso   1.00
O867   O     0.70765   0.22046   0.93679   0.00000  Uiso   1.00
N868   N     0.92912   0.08981   0.54686   0.00000  Uiso   1.00
O869   O     0.95902   0.11311   0.56331   0.00000  Uiso   1.00
O870   O     0.93378   0.04625   0.54601   0.00000  Uiso   1.00
Cl871  Cl    0.73802   0.25524   0.55045   0.00000  Uiso   1.00
Cl872  Cl    0.92873   0.07820   0.94954   0.00000  Uiso   1.00
N873   N     0.71467   0.10455   0.80627   0.00000  Uiso   1.00
O874   O     0.73838   0.11976   0.83807   0.00000  Uiso   1.00
O875   O     0.71325   0.06141   0.80103   0.00000  Uiso   1.00
N876   N     0.95200   0.22878   0.69372   0.00000  Uiso   1.00
O877   O     0.92829   0.21356   0.66192   0.00000  Uiso   1.00
O878   O     0.95341   0.27192   0.69895   0.00000  Uiso   1.00
N879   N     0.96230   0.09795   0.79842   0.00000  Uiso   1.00
O880   O     0.95918   0.05865   0.78073   0.00000  Uiso   1.00
O881   O     0.95916   0.10196   0.84134   0.00000  Uiso   1.00
N882   N     0.70437   0.23537   0.70156   0.00000  Uiso   1.00
O883   O     0.70747   0.27468   0.71923   0.00000  Uiso   1.00
O884   O     0.70754   0.23133   0.65865   0.00000  Uiso   1.00
Cl885  Cl    0.88046   0.04759   0.82693   0.00000  Uiso   1.00
Cl886  Cl    0.78620   0.28575   0.67307   0.00000  Uiso   1.00
Cl887  Cl    0.77839   0.05660   0.67923   0.00000  Uiso   1.00
Cl888  Cl    0.88828   0.27673   0.82077   0.00000  Uiso   1.00
O889   O     0.10559   0.53821   0.74999   0.00000  Uiso   1.00
O890   O     0.22774   0.46179   0.75000   0.00000  Uiso   1.00
O891   O     0.22774   0.53821   0.75000   0.00000  Uiso   1.00
O892   O     0.10559   0.46179   0.74999   0.00000  Uiso   1.00
C893   C     0.08677   0.50088   0.75059   0.00000  Uiso   1.00
C894   C     0.24657   0.49912   0.74941   0.00000  Uiso   1.00
O895   O     0.16666   0.53823   0.68393   0.00000  Uiso   1.00
O896   O     0.16667   0.46177   0.81607   0.00000  Uiso   1.00
O897   O     0.16667   0.53823   0.81607   0.00000  Uiso   1.00
O898   O     0.16666   0.46177   0.68392   0.00000  Uiso   1.00
C899   C     0.16776   0.50021   0.66365   0.00000  Uiso   1.00
C900   C     0.16557   0.49979   0.83635   0.00000  Uiso   1.00
Zn901  Zn    0.16667   0.55104   0.75000   0.00000  Uiso   1.00
Zn902  Zn    0.16667   0.44896   0.75000   0.00000  Uiso   1.00
C903   C     0.19108   0.47048   0.90787   0.00000  Uiso   1.00
C904   C     0.14227   0.52954   0.59213   0.00000  Uiso   1.00
C905   C     0.16348   0.49939   0.88405   0.00000  Uiso   1.00
C906   C     0.16987   0.50061   0.61595   0.00000  Uiso   1.00
C907   C     0.13624   0.52921   0.90537   0.00000  Uiso   1.00
C908   C     0.19711   0.47081   0.59463   0.00000  Uiso   1.00
C909   C     0.13552   0.52809   0.95236   0.00000  Uiso   1.00
C910   C     0.19785   0.47196   0.54764   0.00000  Uiso   1.00
C911   C     0.16559   0.49980   0.97663   0.00000  Uiso   1.00
C912   C     0.16778   0.50025   0.52337   0.00000  Uiso   1.00
C913   C     0.19362   0.47113   0.95405   0.00000  Uiso   1.00
C914   C     0.13975   0.52892   0.54595   0.00000  Uiso   1.00
C915   C     0.10605   0.55435   0.97577   0.00000  Uiso   1.00
C916   C     0.22734   0.44573   0.52423   0.00000  Uiso   1.00
C917   C     0.10889   0.55544   0.52231   0.00000  Uiso   1.00
C918   C     0.22450   0.44463   0.97769   0.00000  Uiso   1.00
H919   H     0.21218   0.44931   0.88955   0.00000  Uiso   1.00
H920   H     0.12117   0.55070   0.61045   0.00000  Uiso   1.00
C921   C     0.02389   0.46854   0.77695   0.00000  Uiso   1.00
C922   C     0.30945   0.53145   0.72305   0.00000  Uiso   1.00
C923   C     0.31458   0.46567   0.77363   0.00000  Uiso   1.00
C924   C     0.01875   0.53432   0.72637   0.00000  Uiso   1.00
C925   C     0.29080   0.49764   0.74753   0.00000  Uiso   1.00
C926   C     0.04253   0.50236   0.75246   0.00000  Uiso   1.00
C927   C     0.18846   0.35533   0.78223   0.00000  Uiso   1.00
C928   C     0.14488   0.64468   0.71777   0.00000  Uiso   1.00
C929   C     0.14402   0.35901   0.71840   0.00000  Uiso   1.00
C930   C     0.18931   0.64099   0.78160   0.00000  Uiso   1.00
N931   N     0.16667   0.61907   0.75000   0.00000  Uiso   1.00
N932   N     0.16667   0.38093   0.75000   0.00000  Uiso   1.00
N933   N     0.11179   0.56215   0.87916   0.00000  Uiso   1.00
O934   O     0.08327   0.54969   0.85077   0.00000  Uiso   1.00
O935   O     0.12193   0.60392   0.87929   0.00000  Uiso   1.00
N936   N     0.22154   0.43784   0.62083   0.00000  Uiso   1.00
O937   O     0.21144   0.39606   0.62058   0.00000  Uiso   1.00
O938   O     0.25002   0.45026   0.64928   0.00000  Uiso   1.00
N939   N     0.07098   0.57702   0.95314   0.00000  Uiso   1.00
O940   O     0.06643   0.62058   0.95395   0.00000  Uiso   1.00
O941   O     0.04099   0.55379   0.93679   0.00000  Uiso   1.00
N942   N     0.26245   0.42314   0.54686   0.00000  Uiso   1.00
O943   O     0.29236   0.44644   0.56331   0.00000  Uiso   1.00
O944   O     0.26712   0.37959   0.54601   0.00000  Uiso   1.00
Cl945  Cl    0.07135   0.58858   0.55045   0.00000  Uiso   1.00
Cl946  Cl    0.26206   0.41153   0.94954   0.00000  Uiso   1.00
N947   N     0.04800   0.43788   0.80627   0.00000  Uiso   1.00
O948   O     0.07171   0.45309   0.83807   0.00000  Uiso   1.00
O949   O     0.04658   0.39474   0.80103   0.00000  Uiso   1.00
N950   N     0.28533   0.56211   0.69372   0.00000  Uiso   1.00
O951   O     0.26162   0.54689   0.66192   0.00000  Uiso   1.00
O952   O     0.28674   0.60525   0.69895   0.00000  Uiso   1.00
N953   N     0.29563   0.43128   0.79842   0.00000  Uiso   1.00
O954   O     0.29251   0.39199   0.78073   0.00000  Uiso   1.00
O955   O     0.29249   0.43530   0.84134   0.00000  Uiso   1.00
N956   N     0.03770   0.56870   0.70156   0.00000  Uiso   1.00
O957   O     0.04080   0.60801   0.71923   0.00000  Uiso   1.00
O958   O     0.04087   0.56466   0.65865   0.00000  Uiso   1.00
Cl959  Cl    0.21380   0.38092   0.82693   0.00000  Uiso   1.00
Cl960  Cl    0.11953   0.61908   0.67307   0.00000  Uiso   1.00
Cl961  Cl    0.11172   0.38993   0.67923   0.00000  Uiso   1.00
Cl962  Cl    0.22161   0.61007   0.82077   0.00000  Uiso   1.00
O963   O     0.43892   0.53821   0.74999   0.00000  Uiso   1.00
O964   O     0.56108   0.46179   0.75000   0.00000  Uiso   1.00
O965   O     0.56108   0.53821   0.75000   0.00000  Uiso   1.00
O966   O     0.43892   0.46179   0.74999   0.00000  Uiso   1.00
C967   C     0.42010   0.50088   0.75059   0.00000  Uiso   1.00
C968   C     0.57990   0.49912   0.74941   0.00000  Uiso   1.00
O969   O     0.49999   0.53823   0.68393   0.00000  Uiso   1.00
O970   O     0.50001   0.46177   0.81607   0.00000  Uiso   1.00
O971   O     0.50001   0.53823   0.81607   0.00000  Uiso   1.00
O972   O     0.49999   0.46177   0.68392   0.00000  Uiso   1.00
C973   C     0.50109   0.50021   0.66365   0.00000  Uiso   1.00
C974   C     0.49891   0.49979   0.83635   0.00000  Uiso   1.00
Zn975  Zn    0.50000   0.55104   0.75000   0.00000  Uiso   1.00
Zn976  Zn    0.50000   0.44896   0.75000   0.00000  Uiso   1.00
C977   C     0.52441   0.47048   0.90787   0.00000  Uiso   1.00
C978   C     0.47561   0.52954   0.59213   0.00000  Uiso   1.00
C979   C     0.49681   0.49939   0.88405   0.00000  Uiso   1.00
C980   C     0.50320   0.50061   0.61595   0.00000  Uiso   1.00
C981   C     0.46957   0.52921   0.90537   0.00000  Uiso   1.00
C982   C     0.53044   0.47081   0.59463   0.00000  Uiso   1.00
C983   C     0.46885   0.52809   0.95236   0.00000  Uiso   1.00
C984   C     0.53118   0.47196   0.54764   0.00000  Uiso   1.00
C985   C     0.49892   0.49980   0.97663   0.00000  Uiso   1.00
C986   C     0.50111   0.50025   0.52337   0.00000  Uiso   1.00
C987   C     0.52695   0.47113   0.95405   0.00000  Uiso   1.00
C988   C     0.47309   0.52892   0.54595   0.00000  Uiso   1.00
C989   C     0.43938   0.55435   0.97577   0.00000  Uiso   1.00
C990   C     0.56068   0.44573   0.52423   0.00000  Uiso   1.00
C991   C     0.44222   0.55544   0.52231   0.00000  Uiso   1.00
C992   C     0.55784   0.44463   0.97769   0.00000  Uiso   1.00
H993   H     0.54551   0.44931   0.88955   0.00000  Uiso   1.00
H994   H     0.45450   0.55070   0.61045   0.00000  Uiso   1.00
C995   C     0.35722   0.46854   0.77695   0.00000  Uiso   1.00
C996   C     0.64278   0.53145   0.72305   0.00000  Uiso   1.00
C997   C     0.64791   0.46567   0.77363   0.00000  Uiso   1.00
C998   C     0.35209   0.53432   0.72637   0.00000  Uiso   1.00
C999   C     0.62414   0.49764   0.74753   0.00000  Uiso   1.00
C1000  C     0.37586   0.50236   0.75246   0.00000  Uiso   1.00
C1001  C     0.52179   0.35533   0.78223   0.00000  Uiso   1.00
C1002  C     0.47821   0.64468   0.71777   0.00000  Uiso   1.00
C1003  C     0.47735   0.35901   0.71840   0.00000  Uiso   1.00
C1004  C     0.52265   0.64099   0.78160   0.00000  Uiso   1.00
N1005  N     0.50000   0.61907   0.75000   0.00000  Uiso   1.00
N1006  N     0.50000   0.38093   0.75000   0.00000  Uiso   1.00
N1007  N     0.44512   0.56215   0.87916   0.00000  Uiso   1.00
O1008  O     0.41661   0.54969   0.85077   0.00000  Uiso   1.00
O1009  O     0.45526   0.60392   0.87929   0.00000  Uiso   1.00
N1010  N     0.55487   0.43784   0.62083   0.00000  Uiso   1.00
O1011  O     0.54477   0.39606   0.62058   0.00000  Uiso   1.00
O1012  O     0.58335   0.45026   0.64928   0.00000  Uiso   1.00
N1013  N     0.40432   0.57702   0.95314   0.00000  Uiso   1.00
O1014  O     0.39977   0.62058   0.95395   0.00000  Uiso   1.00
O1015  O     0.37432   0.55379   0.93679   0.00000  Uiso   1.00
N1016  N     0.59579   0.42314   0.54686   0.00000  Uiso   1.00
O1017  O     0.62569   0.44644   0.56331   0.00000  Uiso   1.00
O1018  O     0.60045   0.37959   0.54601   0.00000  Uiso   1.00
Cl1019 Cl    0.40469   0.58858   0.55045   0.00000  Uiso   1.00
Cl1020 Cl    0.59539   0.41153   0.94954   0.00000  Uiso   1.00
N1021  N     0.38134   0.43788   0.80627   0.00000  Uiso   1.00
O1022  O     0.40505   0.45309   0.83807   0.00000  Uiso   1.00
O1023  O     0.37992   0.39474   0.80103   0.00000  Uiso   1.00
N1024  N     0.61867   0.56211   0.69372   0.00000  Uiso   1.00
O1025  O     0.59496   0.54689   0.66192   0.00000  Uiso   1.00
O1026  O     0.62008   0.60525   0.69895   0.00000  Uiso   1.00
N1027  N     0.62897   0.43128   0.79842   0.00000  Uiso   1.00
O1028  O     0.62584   0.39199   0.78073   0.00000  Uiso   1.00
O1029  O     0.62582   0.43530   0.84134   0.00000  Uiso   1.00
N1030  N     0.37103   0.56870   0.70156   0.00000  Uiso   1.00
O1031  O     0.37414   0.60801   0.71923   0.00000  Uiso   1.00
O1032  O     0.37421   0.56466   0.65865   0.00000  Uiso   1.00
Cl1033 Cl    0.54713   0.38092   0.82693   0.00000  Uiso   1.00
Cl1034 Cl    0.45287   0.61908   0.67307   0.00000  Uiso   1.00
Cl1035 Cl    0.44506   0.38993   0.67923   0.00000  Uiso   1.00
Cl1036 Cl    0.55494   0.61007   0.82077   0.00000  Uiso   1.00
O1037  O     0.77226   0.53821   0.74999   0.00000  Uiso   1.00
O1038  O     0.89441   0.46179   0.75000   0.00000  Uiso   1.00
O1039  O     0.89441   0.53821   0.75000   0.00000  Uiso   1.00
O1040  O     0.77226   0.46179   0.74999   0.00000  Uiso   1.00
C1041  C     0.75343   0.50088   0.75059   0.00000  Uiso   1.00
C1042  C     0.91324   0.49912   0.74941   0.00000  Uiso   1.00
O1043  O     0.83333   0.53823   0.68393   0.00000  Uiso   1.00
O1044  O     0.83334   0.46177   0.81607   0.00000  Uiso   1.00
O1045  O     0.83334   0.53823   0.81607   0.00000  Uiso   1.00
O1046  O     0.83333   0.46177   0.68392   0.00000  Uiso   1.00
C1047  C     0.83443   0.50021   0.66365   0.00000  Uiso   1.00
C1048  C     0.83224   0.49979   0.83635   0.00000  Uiso   1.00
Zn1049 Zn    0.83333   0.55104   0.75000   0.00000  Uiso   1.00
Zn1050 Zn    0.83333   0.44896   0.75000   0.00000  Uiso   1.00
C1051  C     0.85775   0.47048   0.90787   0.00000  Uiso   1.00
C1052  C     0.80894   0.52954   0.59213   0.00000  Uiso   1.00
C1053  C     0.83014   0.49939   0.88405   0.00000  Uiso   1.00
C1054  C     0.83653   0.50061   0.61595   0.00000  Uiso   1.00
C1055  C     0.80291   0.52921   0.90537   0.00000  Uiso   1.00
C1056  C     0.86377   0.47081   0.59463   0.00000  Uiso   1.00
C1057  C     0.80219   0.52809   0.95236   0.00000  Uiso   1.00
C1058  C     0.86452   0.47196   0.54764   0.00000  Uiso   1.00
C1059  C     0.83226   0.49980   0.97663   0.00000  Uiso   1.00
C1060  C     0.83445   0.50025   0.52337   0.00000  Uiso   1.00
C1061  C     0.86028   0.47113   0.95405   0.00000  Uiso   1.00
C1062  C     0.80642   0.52892   0.54595   0.00000  Uiso   1.00
C1063  C     0.77272   0.55435   0.97577   0.00000  Uiso   1.00
C1064  C     0.89401   0.44573   0.52423   0.00000  Uiso   1.00
C1065  C     0.77555   0.55544   0.52231   0.00000  Uiso   1.00
C1066  C     0.89117   0.44463   0.97769   0.00000  Uiso   1.00
H1067  H     0.87885   0.44931   0.88955   0.00000  Uiso   1.00
H1068  H     0.78783   0.55070   0.61045   0.00000  Uiso   1.00
C1069  C     0.69055   0.46854   0.77695   0.00000  Uiso   1.00
C1070  C     0.97611   0.53145   0.72305   0.00000  Uiso   1.00
C1071  C     0.98125   0.46567   0.77363   0.00000  Uiso   1.00
C1072  C     0.68542   0.53432   0.72637   0.00000  Uiso   1.00
C1073  C     0.95747   0.49764   0.74753   0.00000  Uiso   1.00
C1074  C     0.70920   0.50236   0.75246   0.00000  Uiso   1.00
C1075  C     0.85512   0.35533   0.78223   0.00000  Uiso   1.00
C1076  C     0.81154   0.64468   0.71777   0.00000  Uiso   1.00
C1077  C     0.81069   0.35901   0.71840   0.00000  Uiso   1.00
C1078  C     0.85598   0.64099   0.78160   0.00000  Uiso   1.00
N1079  N     0.83333   0.61907   0.75000   0.00000  Uiso   1.00
N1080  N     0.83333   0.38093   0.75000   0.00000  Uiso   1.00
N1081  N     0.77845   0.56215   0.87916   0.00000  Uiso   1.00
O1082  O     0.74994   0.54969   0.85077   0.00000  Uiso   1.00
O1083  O     0.78859   0.60392   0.87929   0.00000  Uiso   1.00
N1084  N     0.88821   0.43784   0.62083   0.00000  Uiso   1.00
O1085  O     0.87810   0.39606   0.62058   0.00000  Uiso   1.00
O1086  O     0.91668   0.45026   0.64928   0.00000  Uiso   1.00
N1087  N     0.73765   0.57702   0.95314   0.00000  Uiso   1.00
O1088  O     0.73310   0.62058   0.95395   0.00000  Uiso   1.00
O1089  O     0.70765   0.55379   0.93679   0.00000  Uiso   1.00
N1090  N     0.92912   0.42314   0.54686   0.00000  Uiso   1.00
O1091  O     0.95902   0.44644   0.56331   0.00000  Uiso   1.00
O1092  O     0.93378   0.37959   0.54601   0.00000  Uiso   1.00
Cl1093 Cl    0.73802   0.58858   0.55045   0.00000  Uiso   1.00
Cl1094 Cl    0.92873   0.41153   0.94954   0.00000  Uiso   1.00
N1095  N     0.71467   0.43788   0.80627   0.00000  Uiso   1.00
O1096  O     0.73838   0.45309   0.83807   0.00000  Uiso   1.00
O1097  O     0.71325   0.39474   0.80103   0.00000  Uiso   1.00
N1098  N     0.95200   0.56211   0.69372   0.00000  Uiso   1.00
O1099  O     0.92829   0.54689   0.66192   0.00000  Uiso   1.00
O1100  O     0.95341   0.60525   0.69895   0.00000  Uiso   1.00
N1101  N     0.96230   0.43128   0.79842   0.00000  Uiso   1.00
O1102  O     0.95918   0.39199   0.78073   0.00000  Uiso   1.00
O1103  O     0.95916   0.43530   0.84134   0.00000  Uiso   1.00
N1104  N     0.70437   0.56870   0.70156   0.00000  Uiso   1.00
O1105  O     0.70747   0.60801   0.71923   0.00000  Uiso   1.00
O1106  O     0.70754   0.56466   0.65865   0.00000  Uiso   1.00
Cl1107 Cl    0.88046   0.38092   0.82693   0.00000  Uiso   1.00
Cl1108 Cl    0.78620   0.61908   0.67307   0.00000  Uiso   1.00
Cl1109 Cl    0.77839   0.38993   0.67923   0.00000  Uiso   1.00
Cl1110 Cl    0.88828   0.61007   0.82077   0.00000  Uiso   1.00
O1111  O     0.10559   0.87154   0.74999   0.00000  Uiso   1.00
O1112  O     0.22774   0.79513   0.75000   0.00000  Uiso   1.00
O1113  O     0.22774   0.87154   0.75000   0.00000  Uiso   1.00
O1114  O     0.10559   0.79513   0.74999   0.00000  Uiso   1.00
C1115  C     0.08677   0.83422   0.75059   0.00000  Uiso   1.00
C1116  C     0.24657   0.83245   0.74941   0.00000  Uiso   1.00
O1117  O     0.16666   0.87156   0.68393   0.00000  Uiso   1.00
O1118  O     0.16667   0.79511   0.81607   0.00000  Uiso   1.00
O1119  O     0.16667   0.87156   0.81607   0.00000  Uiso   1.00
O1120  O     0.16666   0.79511   0.68392   0.00000  Uiso   1.00
C1121  C     0.16776   0.83354   0.66365   0.00000  Uiso   1.00
C1122  C     0.16557   0.83312   0.83635   0.00000  Uiso   1.00
Zn1123 Zn    0.16667   0.88437   0.75000   0.00000  Uiso   1.00
Zn1124 Zn    0.16667   0.78229   0.75000   0.00000  Uiso   1.00
C1125  C     0.19108   0.80382   0.90787   0.00000  Uiso   1.00
C1126  C     0.14227   0.86287   0.59213   0.00000  Uiso   1.00
C1127  C     0.16348   0.83273   0.88405   0.00000  Uiso   1.00
C1128  C     0.16987   0.83395   0.61595   0.00000  Uiso   1.00
C1129  C     0.13624   0.86254   0.90537   0.00000  Uiso   1.00
C1130  C     0.19711   0.80414   0.59463   0.00000  Uiso   1.00
C1131  C     0.13552   0.86142   0.95236   0.00000  Uiso   1.00
C1132  C     0.19785   0.80530   0.54764   0.00000  Uiso   1.00
C1133  C     0.16559   0.83314   0.97663   0.00000  Uiso   1.00
C1134  C     0.16778   0.83358   0.52337   0.00000  Uiso   1.00
C1135  C     0.19362   0.80446   0.95405   0.00000  Uiso   1.00
C1136  C     0.13975   0.86225   0.54595   0.00000  Uiso   1.00
C1137  C     0.10605   0.88768   0.97577   0.00000  Uiso   1.00
C1138  C     0.22734   0.77907   0.52423   0.00000  Uiso   1.00
C1139  C     0.10889   0.88878   0.52231   0.00000  Uiso   1.00
C1140  C     0.22450   0.77796   0.97769   0.00000  Uiso   1.00
H1141  H     0.21218   0.78265   0.88955   0.00000  Uiso   1.00
H1142  H     0.12117   0.88404   0.61045   0.00000  Uiso   1.00
C1143  C     0.02389   0.80188   0.77695   0.00000  Uiso   1.00
C1144  C     0.30945   0.86479   0.72305   0.00000  Uiso   1.00
C1145  C     0.31458   0.79901   0.77363   0.00000  Uiso   1.00
C1146  C     0.01875   0.86766   0.72637   0.00000  Uiso   1.00
C1147  C     0.29080   0.83097   0.74753   0.00000  Uiso   1.00
C1148  C     0.04253   0.83570   0.75246   0.00000  Uiso   1.00
C1149  C     0.18846   0.68866   0.78223   0.00000  Uiso   1.00
C1150  C     0.14488   0.97801   0.71777   0.00000  Uiso   1.00
C1151  C     0.14402   0.69235   0.71840   0.00000  Uiso   1.00
C1152  C     0.18931   0.97432   0.78160   0.00000  Uiso   1.00
N1153  N     0.16667   0.95240   0.75000   0.00000  Uiso   1.00
N1154  N     0.16667   0.71427   0.75000   0.00000  Uiso   1.00
N1155  N     0.11179   0.89548   0.87916   0.00000  Uiso   1.00
O1156  O     0.08327   0.88303   0.85077   0.00000  Uiso   1.00
O1157  O     0.12193   0.93725   0.87929   0.00000  Uiso   1.00
N1158  N     0.22154   0.77117   0.62083   0.00000  Uiso   1.00
O1159  O     0.21144   0.72940   0.62058   0.00000  Uiso   1.00
O1160  O     0.25002   0.78360   0.64928   0.00000  Uiso   1.00
N1161  N     0.07098   0.91035   0.95314   0.00000  Uiso   1.00
O1162  O     0.06643   0.95392   0.95395   0.00000  Uiso   1.00
O1163  O     0.04099   0.88713   0.93679   0.00000  Uiso   1.00
N1164  N     0.26245   0.75647   0.54686   0.00000  Uiso   1.00
O1165  O     0.29236   0.77978   0.56331   0.00000  Uiso   1.00
O1166  O     0.26712   0.71292   0.54601   0.00000  Uiso   1.00
Cl1167 Cl    0.07135   0.92191   0.55045   0.00000  Uiso   1.00
Cl1168 Cl    0.26206   0.74487   0.94954   0.00000  Uiso   1.00
N1169  N     0.04800   0.77121   0.80627   0.00000  Uiso   1.00
O1170  O     0.07171   0.78642   0.83807   0.00000  Uiso   1.00
O1171  O     0.04658   0.72807   0.80103   0.00000  Uiso   1.00
N1172  N     0.28533   0.89544   0.69372   0.00000  Uiso   1.00
O1173  O     0.26162   0.88022   0.66192   0.00000  Uiso   1.00
O1174  O     0.28674   0.93858   0.69895   0.00000  Uiso   1.00
N1175  N     0.29563   0.76462   0.79842   0.00000  Uiso   1.00
O1176  O     0.29251   0.72532   0.78073   0.00000  Uiso   1.00
O1177  O     0.29249   0.76863   0.84134   0.00000  Uiso   1.00
N1178  N     0.03770   0.90204   0.70156   0.00000  Uiso   1.00
O1179  O     0.04080   0.94135   0.71923   0.00000  Uiso   1.00
O1180  O     0.04087   0.89799   0.65865   0.00000  Uiso   1.00
Cl1181 Cl    0.21380   0.71426   0.82693   0.00000  Uiso   1.00
Cl1182 Cl    0.11953   0.95241   0.67307   0.00000  Uiso   1.00
Cl1183 Cl    0.11172   0.72327   0.67923   0.00000  Uiso   1.00
Cl1184 Cl    0.22161   0.94340   0.82077   0.00000  Uiso   1.00
O1185  O     0.43892   0.87154   0.74999   0.00000  Uiso   1.00
O1186  O     0.56108   0.79513   0.75000   0.00000  Uiso   1.00
O1187  O     0.56108   0.87154   0.75000   0.00000  Uiso   1.00
O1188  O     0.43892   0.79513   0.74999   0.00000  Uiso   1.00
C1189  C     0.42010   0.83422   0.75059   0.00000  Uiso   1.00
C1190  C     0.57990   0.83245   0.74941   0.00000  Uiso   1.00
O1191  O     0.49999   0.87156   0.68393   0.00000  Uiso   1.00
O1192  O     0.50001   0.79511   0.81607   0.00000  Uiso   1.00
O1193  O     0.50001   0.87156   0.81607   0.00000  Uiso   1.00
O1194  O     0.49999   0.79511   0.68392   0.00000  Uiso   1.00
C1195  C     0.50109   0.83354   0.66365   0.00000  Uiso   1.00
C1196  C     0.49891   0.83312   0.83635   0.00000  Uiso   1.00
Zn1197 Zn    0.50000   0.88437   0.75000   0.00000  Uiso   1.00
Zn1198 Zn    0.50000   0.78229   0.75000   0.00000  Uiso   1.00
C1199  C     0.52441   0.80382   0.90787   0.00000  Uiso   1.00
C1200  C     0.47561   0.86287   0.59213   0.00000  Uiso   1.00
C1201  C     0.49681   0.83273   0.88405   0.00000  Uiso   1.00
C1202  C     0.50320   0.83395   0.61595   0.00000  Uiso   1.00
C1203  C     0.46957   0.86254   0.90537   0.00000  Uiso   1.00
C1204  C     0.53044   0.80414   0.59463   0.00000  Uiso   1.00
C1205  C     0.46885   0.86142   0.95236   0.00000  Uiso   1.00
C1206  C     0.53118   0.80530   0.54764   0.00000  Uiso   1.00
C1207  C     0.49892   0.83314   0.97663   0.00000  Uiso   1.00
C1208  C     0.50111   0.83358   0.52337   0.00000  Uiso   1.00
C1209  C     0.52695   0.80446   0.95405   0.00000  Uiso   1.00
C1210  C     0.47309   0.86225   0.54595   0.00000  Uiso   1.00
C1211  C     0.43938   0.88768   0.97577   0.00000  Uiso   1.00
C1212  C     0.56068   0.77907   0.52423   0.00000  Uiso   1.00
C1213  C     0.44222   0.88878   0.52231   0.00000  Uiso   1.00
C1214  C     0.55784   0.77796   0.97769   0.00000  Uiso   1.00
H1215  H     0.54551   0.78265   0.88955   0.00000  Uiso   1.00
H1216  H     0.45450   0.88404   0.61045   0.00000  Uiso   1.00
C1217  C     0.35722   0.80188   0.77695   0.00000  Uiso   1.00
C1218  C     0.64278   0.86479   0.72305   0.00000  Uiso   1.00
C1219  C     0.64791   0.79901   0.77363   0.00000  Uiso   1.00
C1220  C     0.35209   0.86766   0.72637   0.00000  Uiso   1.00
C1221  C     0.62414   0.83097   0.74753   0.00000  Uiso   1.00
C1222  C     0.37586   0.83570   0.75246   0.00000  Uiso   1.00
C1223  C     0.52179   0.68866   0.78223   0.00000  Uiso   1.00
C1224  C     0.47821   0.97801   0.71777   0.00000  Uiso   1.00
C1225  C     0.47735   0.69235   0.71840   0.00000  Uiso   1.00
C1226  C     0.52265   0.97432   0.78160   0.00000  Uiso   1.00
N1227  N     0.50000   0.95240   0.75000   0.00000  Uiso   1.00
N1228  N     0.50000   0.71427   0.75000   0.00000  Uiso   1.00
N1229  N     0.44512   0.89548   0.87916   0.00000  Uiso   1.00
O1230  O     0.41661   0.88303   0.85077   0.00000  Uiso   1.00
O1231  O     0.45526   0.93725   0.87929   0.00000  Uiso   1.00
N1232  N     0.55487   0.77117   0.62083   0.00000  Uiso   1.00
O1233  O     0.54477   0.72940   0.62058   0.00000  Uiso   1.00
O1234  O     0.58335   0.78360   0.64928   0.00000  Uiso   1.00
N1235  N     0.40432   0.91035   0.95314   0.00000  Uiso   1.00
O1236  O     0.39977   0.95392   0.95395   0.00000  Uiso   1.00
O1237  O     0.37432   0.88713   0.93679   0.00000  Uiso   1.00
N1238  N     0.59579   0.75647   0.54686   0.00000  Uiso   1.00
O1239  O     0.62569   0.77978   0.56331   0.00000  Uiso   1.00
O1240  O     0.60045   0.71292   0.54601   0.00000  Uiso   1.00
Cl1241 Cl    0.40469   0.92191   0.55045   0.00000  Uiso   1.00
Cl1242 Cl    0.59539   0.74487   0.94954   0.00000  Uiso   1.00
N1243  N     0.38134   0.77121   0.80627   0.00000  Uiso   1.00
O1244  O     0.40505   0.78642   0.83807   0.00000  Uiso   1.00
O1245  O     0.37992   0.72807   0.80103   0.00000  Uiso   1.00
N1246  N     0.61867   0.89544   0.69372   0.00000  Uiso   1.00
O1247  O     0.59496   0.88022   0.66192   0.00000  Uiso   1.00
O1248  O     0.62008   0.93858   0.69895   0.00000  Uiso   1.00
N1249  N     0.62897   0.76462   0.79842   0.00000  Uiso   1.00
O1250  O     0.62584   0.72532   0.78073   0.00000  Uiso   1.00
O1251  O     0.62582   0.76863   0.84134   0.00000  Uiso   1.00
N1252  N     0.37103   0.90204   0.70156   0.00000  Uiso   1.00
O1253  O     0.37414   0.94135   0.71923   0.00000  Uiso   1.00
O1254  O     0.37421   0.89799   0.65865   0.00000  Uiso   1.00
Cl1255 Cl    0.54713   0.71426   0.82693   0.00000  Uiso   1.00
Cl1256 Cl    0.45287   0.95241   0.67307   0.00000  Uiso   1.00
Cl1257 Cl    0.44506   0.72327   0.67923   0.00000  Uiso   1.00
Cl1258 Cl    0.55494   0.94340   0.82077   0.00000  Uiso   1.00
O1259  O     0.77226   0.87154   0.74999   0.00000  Uiso   1.00
O1260  O     0.89441   0.79513   0.75000   0.00000  Uiso   1.00
O1261  O     0.89441   0.87154   0.75000   0.00000  Uiso   1.00
O1262  O     0.77226   0.79513   0.74999   0.00000  Uiso   1.00
C1263  C     0.75343   0.83422   0.75059   0.00000  Uiso   1.00
C1264  C     0.91324   0.83245   0.74941   0.00000  Uiso   1.00
O1265  O     0.83333   0.87156   0.68393   0.00000  Uiso   1.00
O1266  O     0.83334   0.79511   0.81607   0.00000  Uiso   1.00
O1267  O     0.83334   0.87156   0.81607   0.00000  Uiso   1.00
O1268  O     0.83333   0.79511   0.68392   0.00000  Uiso   1.00
C1269  C     0.83443   0.83354   0.66365   0.00000  Uiso   1.00
C1270  C     0.83224   0.83312   0.83635   0.00000  Uiso   1.00
Zn1271 Zn    0.83333   0.88437   0.75000   0.00000  Uiso   1.00
Zn1272 Zn    0.83333   0.78229   0.75000   0.00000  Uiso   1.00
C1273  C     0.85775   0.80382   0.90787   0.00000  Uiso   1.00
C1274  C     0.80894   0.86287   0.59213   0.00000  Uiso   1.00
C1275  C     0.83014   0.83273   0.88405   0.00000  Uiso   1.00
C1276  C     0.83653   0.83395   0.61595   0.00000  Uiso   1.00
C1277  C     0.80291   0.86254   0.90537   0.00000  Uiso   1.00
C1278  C     0.86377   0.80414   0.59463   0.00000  Uiso   1.00
C1279  C     0.80219   0.86142   0.95236   0.00000  Uiso   1.00
C1280  C     0.86452   0.80530   0.54764   0.00000  Uiso   1.00
C1281  C     0.83226   0.83314   0.97663   0.00000  Uiso   1.00
C1282  C     0.83445   0.83358   0.52337   0.00000  Uiso   1.00
C1283  C     0.86028   0.80446   0.95405   0.00000  Uiso   1.00
C1284  C     0.80642   0.86225   0.54595   0.00000  Uiso   1.00
C1285  C     0.77272   0.88768   0.97577   0.00000  Uiso   1.00
C1286  C     0.89401   0.77907   0.52423   0.00000  Uiso   1.00
C1287  C     0.77555   0.88878   0.52231   0.00000  Uiso   1.00
C1288  C     0.89117   0.77796   0.97769   0.00000  Uiso   1.00
H1289  H     0.87885   0.78265   0.88955   0.00000  Uiso   1.00
H1290  H     0.78783   0.88404   0.61045   0.00000  Uiso   1.00
C1291  C     0.69055   0.80188   0.77695   0.00000  Uiso   1.00
C1292  C     0.97611   0.86479   0.72305   0.00000  Uiso   1.00
C1293  C     0.98125   0.79901   0.77363   0.00000  Uiso   1.00
C1294  C     0.68542   0.86766   0.72637   0.00000  Uiso   1.00
C1295  C     0.95747   0.83097   0.74753   0.00000  Uiso   1.00
C1296  C     0.70920   0.83570   0.75246   0.00000  Uiso   1.00
C1297  C     0.85512   0.68866   0.78223   0.00000  Uiso   1.00
C1298  C     0.81154   0.97801   0.71777   0.00000  Uiso   1.00
C1299  C     0.81069   0.69235   0.71840   0.00000  Uiso   1.00
C1300  C     0.85598   0.97432   0.78160   0.00000  Uiso   1.00
N1301  N     0.83333   0.95240   0.75000   0.00000  Uiso   1.00
N1302  N     0.83333   0.71427   0.75000   0.00000  Uiso   1.00
N1303  N     0.77845   0.89548   0.87916   0.00000  Uiso   1.00
O1304  O     0.74994   0.88303   0.85077   0.00000  Uiso   1.00
O1305  O     0.78859   0.93725   0.87929   0.00000  Uiso   1.00
N1306  N     0.88821   0.77117   0.62083   0.00000  Uiso   1.00
O1307  O     0.87810   0.72940   0.62058   0.00000  Uiso   1.00
O1308  O     0.91668   0.78360   0.64928   0.00000  Uiso   1.00
N1309  N     0.73765   0.91035   0.95314   0.00000  Uiso   1.00
O1310  O     0.73310   0.95392   0.95395   0.00000  Uiso   1.00
O1311  O     0.70765   0.88713   0.93679   0.00000  Uiso   1.00
N1312  N     0.92912   0.75647   0.54686   0.00000  Uiso   1.00
O1313  O     0.95902   0.77978   0.56331   0.00000  Uiso   1.00
O1314  O     0.93378   0.71292   0.54601   0.00000  Uiso   1.00
Cl1315 Cl    0.73802   0.92191   0.55045   0.00000  Uiso   1.00
Cl1316 Cl    0.92873   0.74487   0.94954   0.00000  Uiso   1.00
N1317  N     0.71467   0.77121   0.80627   0.00000  Uiso   1.00
O1318  O     0.73838   0.78642   0.83807   0.00000  Uiso   1.00
O1319  O     0.71325   0.72807   0.80103   0.00000  Uiso   1.00
N1320  N     0.95200   0.89544   0.69372   0.00000  Uiso   1.00
O1321  O     0.92829   0.88022   0.66192   0.00000  Uiso   1.00
O1322  O     0.95341   0.93858   0.69895   0.00000  Uiso   1.00
N1323  N     0.96230   0.76462   0.79842   0.00000  Uiso   1.00
O1324  O     0.95918   0.72532   0.78073   0.00000  Uiso   1.00
O1325  O     0.95916   0.76863   0.84134   0.00000  Uiso   1.00
N1326  N     0.70437   0.90204   0.70156   0.00000  Uiso   1.00
O1327  O     0.70747   0.94135   0.71923   0.00000  Uiso   1.00
O1328  O     0.70754   0.89799   0.65865   0.00000  Uiso   1.00
Cl1329 Cl    0.88046   0.71426   0.82693   0.00000  Uiso   1.00
Cl1330 Cl    0.78620   0.95241   0.67307   0.00000  Uiso   1.00
Cl1331 Cl    0.77839   0.72327   0.67923   0.00000  Uiso   1.00
Cl1332 Cl    0.88828   0.94340   0.82077   0.00000  Uiso   1.00
loop_
_geom_bond_atom_site_label_1
_geom_bond_atom_site_label_2
_geom_bond_distance
_geom_bond_site_symmetry_2
_ccdc_geom_bond_type
O1     C5      1.291   .     A
O1     Zn13    2.024   .     S
O2     Zn14    2.024   .     S
O2     C6      1.291   .     A
O3     Zn13    1.991   .     S
O3     C6      1.291   .     A
O4     Zn14    1.991   .     S
O4     C5      1.291   .     A
C5     C38     1.429   .     S
C6     C37     1.429   .     S
O7     Zn13    2.023   .     S
O7     C11     1.295   .     A
O8     Zn14    2.023   .     S
O8     C12     1.295   .     A
O9     Zn13    2.009   .     S
O9     C12     1.290   .     A
O10    C11     1.290   .     A
O10    Zn14    2.009   .     S
C11    C18     1.433   .     S
C12    C17     1.433   .     S
Zn13   N43     2.028   .     S
Zn14   N44     2.028   .     S
C15    C25     1.384   .     A
C15    C17     1.382   .     A
C15    H31     1.080   .     S
C16    H32     1.080   .     S
C16    C18     1.382   .     A
C16    C26     1.384   .     A
C17    C19     1.401   .     A
C18    C20     1.401   .     A
C19    N45     1.436   .     S
C19    C21     1.409   .     A
C20    C22     1.409   .     A
C20    N48     1.436   .     S
C21    C27     1.419   .     A
C21    C23     1.427   .     A
C22    C28     1.419   .     A
C22    C24     1.427   .     A
C23    C25     1.416   .     A
C23    C690    1.400   .     S
C24    C26     1.416   .     A
C24    C689    1.400   1_554 S
C25    C30     1.407   .     A
C26    C29     1.407   .     A
C27    N51     1.434   .     S
C27    C695    1.395   .     S
C28    N54     1.434   .     S
C28    C696    1.395   1_554 S
C29    Cl57    1.776   .     S
C29    C693    1.395   1_554 S
C30    Cl58    1.776   .     S
C30    C694    1.395   .     S
C33    C38     1.405   .     A
C33    N59     1.439   .     S
C33    C183    1.382   1_455 S
C34    C37     1.405   .     A
C34    N62     1.439   .     S
C34    C110    1.382   .     S
C35    N65     1.427   .     S
C35    C37     1.405   .     A
C35    C107    1.382   .     S
C36    N68     1.427   .     S
C36    C38     1.405   .     A
C36    C182    1.382   1_455 S
C39    N44     1.373   .     A
C39    Cl71    1.748   .     S
C39    C486    1.421   1_545 S
C40    Cl72    1.748   .     S
C40    N43     1.373   .     A
C40    C263    1.421   .     S
C41    N44     1.368   .     A
C41    Cl73    1.761   .     S
C41    C484    1.421   1_545 S
C42    Cl74    1.761   .     S
C42    N43     1.368   .     A
C42    C261    1.421   .     S
N45    O46     1.301   .     A
N45    O47     1.301   .     A
N48    O50     1.301   .     A
N48    O49     1.301   .     A
N51    O53     1.301   .     A
N51    O52     1.301   .     A
N54    O56     1.301   .     A
N54    O55     1.301   .     A
N59    O61     1.301   .     A
N59    O60     1.301   .     A
N62    O63     1.301   .     A
N62    O64     1.301   .     A
N65    O66     1.301   .     A
N65    O67     1.301   .     A
N68    O70     1.301   .     A
N68    O69     1.301   .     A
O75    C79     1.291   .     A
O75    Zn87    2.024   .     S
O76    Zn88    2.024   .     S
O76    C80     1.291   .     A
O77    Zn87    1.991   .     S
O77    C80     1.291   .     A
O78    Zn88    1.991   .     S
O78    C79     1.291   .     A
C79    C112    1.429   .     S
C80    C111    1.429   .     S
O81    Zn87    2.023   .     S
O81    C85     1.295   .     A
O82    Zn88    2.023   .     S
O82    C86     1.295   .     A
O83    Zn87    2.009   .     S
O83    C86     1.290   .     A
O84    C85     1.290   .     A
O84    Zn88    2.009   .     S
C85    C92     1.433   .     S
C86    C91     1.433   .     S
Zn87   N117    2.028   .     S
Zn88   N118    2.028   .     S
C89    C99     1.384   .     A
C89    C91     1.382   .     A
C89    H105    1.080   .     S
C90    H106    1.080   .     S
C90    C92     1.382   .     A
C90    C100    1.384   .     A
C91    C93     1.401   .     A
C92    C94     1.401   .     A
C93    N119    1.436   .     S
C93    C95     1.409   .     A
C94    C96     1.409   .     A
C94    N122    1.436   .     S
C95    C101    1.419   .     A
C95    C97     1.427   .     A
C96    C102    1.419   .     A
C96    C98     1.427   .     A
C97    C99     1.416   .     A
C97    C764    1.400   .     S
C98    C100    1.416   .     A
C98    C763    1.400   1_554 S
C99    C104    1.407   .     A
C100   C103    1.407   .     A
C101   N125    1.434   .     S
C101   C769    1.395   .     S
C102   N128    1.434   .     S
C102   C770    1.395   1_554 S
C103   Cl131   1.776   .     S
C103   C767    1.395   1_554 S
C104   Cl132   1.776   .     S
C104   C768    1.395   .     S
C107   C112    1.405   .     A
C107   N133    1.439   .     S
C108   C111    1.405   .     A
C108   N136    1.439   .     S
C108   C184    1.382   .     S
C109   N139    1.427   .     S
C109   C111    1.405   .     A
C109   C181    1.382   .     S
C110   N142    1.427   .     S
C110   C112    1.405   .     A
C113   N118    1.373   .     A
C113   Cl145   1.748   .     S
C113   C560    1.421   1_545 S
C114   Cl146   1.748   .     S
C114   N117    1.373   .     A
C114   C337    1.421   .     S
C115   N118    1.368   .     A
C115   Cl147   1.761   .     S
C115   C558    1.421   1_545 S
C116   Cl148   1.761   .     S
C116   N117    1.368   .     A
C116   C335    1.421   .     S
N119   O120    1.301   .     A
N119   O121    1.301   .     A
N122   O124    1.301   .     A
N122   O123    1.301   .     A
N125   O127    1.301   .     A
N125   O126    1.301   .     A
N128   O130    1.301   .     A
N128   O129    1.301   .     A
N133   O135    1.301   .     A
N133   O134    1.301   .     A
N136   O137    1.301   .     A
N136   O138    1.301   .     A
N139   O140    1.301   .     A
N139   O141    1.301   .     A
N142   O144    1.301   .     A
N142   O143    1.301   .     A
O149   C153    1.291   .     A
O149   Zn161   2.024   .     S
O150   Zn162   2.024   .     S
O150   C154    1.291   .     A
O151   Zn161   1.991   .     S
O151   C154    1.291   .     A
O152   Zn162   1.991   .     S
O152   C153    1.291   .     A
C153   C186    1.429   .     S
C154   C185    1.429   .     S
O155   Zn161   2.023   .     S
O155   C159    1.295   .     A
O156   Zn162   2.023   .     S
O156   C160    1.295   .     A
O157   Zn161   2.009   .     S
O157   C160    1.290   .     A
O158   C159    1.290   .     A
O158   Zn162   2.009   .     S
C159   C166    1.433   .     S
C160   C165    1.433   .     S
Zn161  N191    2.028   .     S
Zn162  N192    2.028   .     S
C163   C173    1.384   .     A
C163   C165    1.382   .     A
C163   H179    1.080   .     S
C164   H180    1.080   .     S
C164   C166    1.382   .     A
C164   C174    1.384   .     A
C165   C167    1.401   .     A
C166   C168    1.401   .     A
C167   N193    1.436   .     S
C167   C169    1.409   .     A
C168   C170    1.409   .     A
C168   N196    1.436   .     S
C169   C175    1.419   .     A
C169   C171    1.427   .     A
C170   C176    1.419   .     A
C170   C172    1.427   .     A
C171   C173    1.416   .     A
C171   C838    1.400   .     S
C172   C174    1.416   .     A
C172   C837    1.400   1_554 S
C173   C178    1.407   .     A
C174   C177    1.407   .     A
C175   N199    1.434   .     S
C175   C843    1.395   .     S
C176   N202    1.434   .     S
C176   C844    1.395   1_554 S
C177   Cl205   1.776   .     S
C177   C841    1.395   1_554 S
C178   Cl206   1.776   .     S
C178   C842    1.395   .     S
C181   C186    1.405   .     A
C181   N207    1.439   .     S
C182   C185    1.405   .     A
C182   N210    1.439   .     S
C182   C36     1.382   1_655 S
C183   N213    1.427   .     S
C183   C185    1.405   .     A
C183   C33     1.382   1_655 S
C184   N216    1.427   .     S
C184   C186    1.405   .     A
C187   N192    1.373   .     A
C187   Cl219   1.748   .     S
C187   C634    1.421   1_545 S
C188   Cl220   1.748   .     S
C188   N191    1.373   .     A
C188   C411    1.421   .     S
C189   N192    1.368   .     A
C189   Cl221   1.761   .     S
C189   C632    1.421   1_545 S
C190   Cl222   1.761   .     S
C190   N191    1.368   .     A
C190   C409    1.421   .     S
N193   O194    1.301   .     A
N193   O195    1.301   .     A
N196   O198    1.301   .     A
N196   O197    1.301   .     A
N199   O201    1.301   .     A
N199   O200    1.301   .     A
N202   O204    1.301   .     A
N202   O203    1.301   .     A
N207   O209    1.301   .     A
N207   O208    1.301   .     A
N210   O211    1.301   .     A
N210   O212    1.301   .     A
N213   O214    1.301   .     A
N213   O215    1.301   .     A
N216   O218    1.301   .     A
N216   O217    1.301   .     A
O223   C227    1.291   .     A
O223   Zn235   2.024   .     S
O224   Zn236   2.024   .     S
O224   C228    1.291   .     A
O225   Zn235   1.991   .     S
O225   C228    1.291   .     A
O226   Zn236   1.991   .     S
O226   C227    1.291   .     A
C227   C260    1.429   .     S
C228   C259    1.429   .     S
O229   Zn235   2.023   .     S
O229   C233    1.295   .     A
O230   Zn236   2.023   .     S
O230   C234    1.295   .     A
O231   Zn235   2.009   .     S
O231   C234    1.290   .     A
O232   C233    1.290   .     A
O232   Zn236   2.009   .     S
C233   C240    1.433   .     S
C234   C239    1.433   .     S
Zn235  N265    2.028   .     S
Zn236  N266    2.028   .     S
C237   C247    1.384   .     A
C237   C239    1.382   .     A
C237   H253    1.080   .     S
C238   H254    1.080   .     S
C238   C240    1.382   .     A
C238   C248    1.384   .     A
C239   C241    1.401   .     A
C240   C242    1.401   .     A
C241   N267    1.436   .     S
C241   C243    1.409   .     A
C242   C244    1.409   .     A
C242   N270    1.436   .     S
C243   C249    1.419   .     A
C243   C245    1.427   .     A
C244   C250    1.419   .     A
C244   C246    1.427   .     A
C245   C247    1.416   .     A
C245   C912    1.400   .     S
C246   C248    1.416   .     A
C246   C911    1.400   1_554 S
C247   C252    1.407   .     A
C248   C251    1.407   .     A
C249   N273    1.434   .     S
C249   C917    1.395   .     S
C250   N276    1.434   .     S
C250   C918    1.395   1_554 S
C251   Cl279   1.776   .     S
C251   C915    1.395   1_554 S
C252   Cl280   1.776   .     S
C252   C916    1.395   .     S
C255   C260    1.405   .     A
C255   N281    1.439   .     S
C255   C405    1.382   1_455 S
C256   C259    1.405   .     A
C256   N284    1.439   .     S
C256   C332    1.382   .     S
C257   N287    1.427   .     S
C257   C259    1.405   .     A
C257   C329    1.382   .     S
C258   N290    1.427   .     S
C258   C260    1.405   .     A
C258   C404    1.382   1_455 S
C261   N266    1.373   .     A
C261   Cl293   1.748   .     S
C262   Cl294   1.748   .     S
C262   N265    1.373   .     A
C262   C485    1.421   .     S
C263   N266    1.368   .     A
C263   Cl295   1.761   .     S
C264   Cl296   1.761   .     S
C264   N265    1.368   .     A
C264   C483    1.421   .     S
N267   O268    1.301   .     A
N267   O269    1.301   .     A
N270   O272    1.301   .     A
N270   O271    1.301   .     A
N273   O275    1.301   .     A
N273   O274    1.301   .     A
N276   O278    1.301   .     A
N276   O277    1.301   .     A
N281   O283    1.301   .     A
N281   O282    1.301   .     A
N284   O285    1.301   .     A
N284   O286    1.301   .     A
N287   O288    1.301   .     A
N287   O289    1.301   .     A
N290   O292    1.301   .     A
N290   O291    1.301   .     A
O297   C301    1.291   .     A
O297   Zn309   2.024   .     S
O298   Zn310   2.024   .     S
O298   C302    1.291   .     A
O299   Zn309   1.991   .     S
O299   C302    1.291   .     A
O300   Zn310   1.991   .     S
O300   C301    1.291   .     A
C301   C334    1.429   .     S
C302   C333    1.429   .     S
O303   Zn309   2.023   .     S
O303   C307    1.295   .     A
O304   Zn310   2.023   .     S
O304   C308    1.295   .     A
O305   Zn309   2.009   .     S
O305   C308    1.290   .     A
O306   C307    1.290   .     A
O306   Zn310   2.009   .     S
C307   C314    1.433   .     S
C308   C313    1.433   .     S
Zn309  N339    2.028   .     S
Zn310  N340    2.028   .     S
C311   C321    1.384   .     A
C311   C313    1.382   .     A
C311   H327    1.080   .     S
C312   H328    1.080   .     S
C312   C314    1.382   .     A
C312   C322    1.384   .     A
C313   C315    1.401   .     A
C314   C316    1.401   .     A
C315   N341    1.436   .     S
C315   C317    1.409   .     A
C316   C318    1.409   .     A
C316   N344    1.436   .     S
C317   C323    1.419   .     A
C317   C319    1.427   .     A
C318   C324    1.419   .     A
C318   C320    1.427   .     A
C319   C321    1.416   .     A
C319   C986    1.400   .     S
C320   C322    1.416   .     A
C320   C985    1.400   1_554 S
C321   C326    1.407   .     A
C322   C325    1.407   .     A
C323   N347    1.434   .     S
C323   C991    1.395   .     S
C324   N350    1.434   .     S
C324   C992    1.395   1_554 S
C325   Cl353   1.776   .     S
C325   C989    1.395   1_554 S
C326   Cl354   1.776   .     S
C326   C990    1.395   .     S
C329   C334    1.405   .     A
C329   N355    1.439   .     S
C330   C333    1.405   .     A
C330   N358    1.439   .     S
C330   C406    1.382   .     S
C331   N361    1.427   .     S
C331   C333    1.405   .     A
C331   C403    1.382   .     S
C332   N364    1.427   .     S
C332   C334    1.405   .     A
C335   N340    1.373   .     A
C335   Cl367   1.748   .     S
C336   Cl368   1.748   .     S
C336   N339    1.373   .     A
C336   C559    1.421   .     S
C337   N340    1.368   .     A
C337   Cl369   1.761   .     S
C338   Cl370   1.761   .     S
C338   N339    1.368   .     A
C338   C557    1.421   .     S
N341   O342    1.301   .     A
N341   O343    1.301   .     A
N344   O346    1.301   .     A
N344   O345    1.301   .     A
N347   O349    1.301   .     A
N347   O348    1.301   .     A
N350   O352    1.301   .     A
N350   O351    1.301   .     A
N355   O357    1.301   .     A
N355   O356    1.301   .     A
N358   O359    1.301   .     A
N358   O360    1.301   .     A
N361   O362    1.301   .     A
N361   O363    1.301   .     A
N364   O366    1.301   .     A
N364   O365    1.301   .     A
O371   C375    1.291   .     A
O371   Zn383   2.024   .     S
O372   Zn384   2.024   .     S
O372   C376    1.291   .     A
O373   Zn383   1.991   .     S
O373   C376    1.291   .     A
O374   Zn384   1.991   .     S
O374   C375    1.291   .     A
C375   C408    1.429   .     S
C376   C407    1.429   .     S
O377   Zn383   2.023   .     S
O377   C381    1.295   .     A
O378   Zn384   2.023   .     S
O378   C382    1.295   .     A
O379   Zn383   2.009   .     S
O379   C382    1.290   .     A
O380   C381    1.290   .     A
O380   Zn384   2.009   .     S
C381   C388    1.433   .     S
C382   C387    1.433   .     S
Zn383  N413    2.028   .     S
Zn384  N414    2.028   .     S
C385   C395    1.384   .     A
C385   C387    1.382   .     A
C385   H401    1.080   .     S
C386   H402    1.080   .     S
C386   C388    1.382   .     A
C386   C396    1.384   .     A
C387   C389    1.401   .     A
C388   C390    1.401   .     A
C389   N415    1.436   .     S
C389   C391    1.409   .     A
C390   C392    1.409   .     A
C390   N418    1.436   .     S
C391   C397    1.419   .     A
C391   C393    1.427   .     A
C392   C398    1.419   .     A
C392   C394    1.427   .     A
C393   C395    1.416   .     A
C393   C1060   1.400   .     S
C394   C396    1.416   .     A
C394   C1059   1.400   1_554 S
C395   C400    1.407   .     A
C396   C399    1.407   .     A
C397   N421    1.434   .     S
C397   C1065   1.395   .     S
C398   N424    1.434   .     S
C398   C1066   1.395   1_554 S
C399   Cl427   1.776   .     S
C399   C1063   1.395   1_554 S
C400   Cl428   1.776   .     S
C400   C1064   1.395   .     S
C403   C408    1.405   .     A
C403   N429    1.439   .     S
C404   C407    1.405   .     A
C404   N432    1.439   .     S
C404   C258    1.382   1_655 S
C405   N435    1.427   .     S
C405   C407    1.405   .     A
C405   C255    1.382   1_655 S
C406   N438    1.427   .     S
C406   C408    1.405   .     A
C409   N414    1.373   .     A
C409   Cl441   1.748   .     S
C410   Cl442   1.748   .     S
C410   N413    1.373   .     A
C410   C633    1.421   .     S
C411   N414    1.368   .     A
C411   Cl443   1.761   .     S
C412   Cl444   1.761   .     S
C412   N413    1.368   .     A
C412   C631    1.421   .     S
N415   O416    1.301   .     A
N415   O417    1.301   .     A
N418   O420    1.301   .     A
N418   O419    1.301   .     A
N421   O423    1.301   .     A
N421   O422    1.301   .     A
N424   O426    1.301   .     A
N424   O425    1.301   .     A
N429   O431    1.301   .     A
N429   O430    1.301   .     A
N432   O433    1.301   .     A
N432   O434    1.301   .     A
N435   O436    1.301   .     A
N435   O437    1.301   .     A
N438   O440    1.301   .     A
N438   O439    1.301   .     A
O445   C449    1.291   .     A
O445   Zn457   2.024   .     S
O446   Zn458   2.024   .     S
O446   C450    1.291   .     A
O447   Zn457   1.991   .     S
O447   C450    1.291   .     A
O448   Zn458   1.991   .     S
O448   C449    1.291   .     A
C449   C482    1.429   .     S
C450   C481    1.429   .     S
O451   Zn457   2.023   .     S
O451   C455    1.295   .     A
O452   Zn458   2.023   .     S
O452   C456    1.295   .     A
O453   Zn457   2.009   .     S
O453   C456    1.290   .     A
O454   C455    1.290   .     A
O454   Zn458   2.009   .     S
C455   C462    1.433   .     S
C456   C461    1.433   .     S
Zn457  N487    2.028   .     S
Zn458  N488    2.028   .     S
C459   C469    1.384   .     A
C459   C461    1.382   .     A
C459   H475    1.080   .     S
C460   H476    1.080   .     S
C460   C462    1.382   .     A
C460   C470    1.384   .     A
C461   C463    1.401   .     A
C462   C464    1.401   .     A
C463   N489    1.436   .     S
C463   C465    1.409   .     A
C464   C466    1.409   .     A
C464   N492    1.436   .     S
C465   C471    1.419   .     A
C465   C467    1.427   .     A
C466   C472    1.419   .     A
C466   C468    1.427   .     A
C467   C469    1.416   .     A
C467   C1134   1.400   .     S
C468   C470    1.416   .     A
C468   C1133   1.400   1_554 S
C469   C474    1.407   .     A
C470   C473    1.407   .     A
C471   N495    1.434   .     S
C471   C1139   1.395   .     S
C472   N498    1.434   .     S
C472   C1140   1.395   1_554 S
C473   Cl501   1.776   .     S
C473   C1137   1.395   1_554 S
C474   Cl502   1.776   .     S
C474   C1138   1.395   .     S
C477   C482    1.405   .     A
C477   N503    1.439   .     S
C477   C627    1.382   1_455 S
C478   C481    1.405   .     A
C478   N506    1.439   .     S
C478   C554    1.382   .     S
C479   N509    1.427   .     S
C479   C481    1.405   .     A
C479   C551    1.382   .     S
C480   N512    1.427   .     S
C480   C482    1.405   .     A
C480   C626    1.382   1_455 S
C483   N488    1.373   .     A
C483   Cl515   1.748   .     S
C484   Cl516   1.748   .     S
C484   N487    1.373   .     A
C484   C41     1.421   1_565 S
C485   N488    1.368   .     A
C485   Cl517   1.761   .     S
C486   Cl518   1.761   .     S
C486   N487    1.368   .     A
C486   C39     1.421   1_565 S
N489   O490    1.301   .     A
N489   O491    1.301   .     A
N492   O494    1.301   .     A
N492   O493    1.301   .     A
N495   O497    1.301   .     A
N495   O496    1.301   .     A
N498   O500    1.301   .     A
N498   O499    1.301   .     A
N503   O505    1.301   .     A
N503   O504    1.301   .     A
N506   O507    1.301   .     A
N506   O508    1.301   .     A
N509   O510    1.301   .     A
N509   O511    1.301   .     A
N512   O514    1.301   .     A
N512   O513    1.301   .     A
O519   C523    1.291   .     A
O519   Zn531   2.024   .     S
O520   Zn532   2.024   .     S
O520   C524    1.291   .     A
O521   Zn531   1.991   .     S
O521   C524    1.291   .     A
O522   Zn532   1.991   .     S
O522   C523    1.291   .     A
C523   C556    1.429   .     S
C524   C555    1.429   .     S
O525   Zn531   2.023   .     S
O525   C529    1.295   .     A
O526   Zn532   2.023   .     S
O526   C530    1.295   .     A
O527   Zn531   2.009   .     S
O527   C530    1.290   .     A
O528   C529    1.290   .     A
O528   Zn532   2.009   .     S
C529   C536    1.433   .     S
C530   C535    1.433   .     S
Zn531  N561    2.028   .     S
Zn532  N562    2.028   .     S
C533   C543    1.384   .     A
C533   C535    1.382   .     A
C533   H549    1.080   .     S
C534   H550    1.080   .     S
C534   C536    1.382   .     A
C534   C544    1.384   .     A
C535   C537    1.401   .     A
C536   C538    1.401   .     A
C537   N563    1.436   .     S
C537   C539    1.409   .     A
C538   C540    1.409   .     A
C538   N566    1.436   .     S
C539   C545    1.419   .     A
C539   C541    1.427   .     A
C540   C546    1.419   .     A
C540   C542    1.427   .     A
C541   C543    1.416   .     A
C541   C1208   1.400   .     S
C542   C544    1.416   .     A
C542   C1207   1.400   1_554 S
C543   C548    1.407   .     A
C544   C547    1.407   .     A
C545   N569    1.434   .     S
C545   C1213   1.395   .     S
C546   N572    1.434   .     S
C546   C1214   1.395   1_554 S
C547   Cl575   1.776   .     S
C547   C1211   1.395   1_554 S
C548   Cl576   1.776   .     S
C548   C1212   1.395   .     S
C551   C556    1.405   .     A
C551   N577    1.439   .     S
C552   C555    1.405   .     A
C552   N580    1.439   .     S
C552   C628    1.382   .     S
C553   N583    1.427   .     S
C553   C555    1.405   .     A
C553   C625    1.382   .     S
C554   N586    1.427   .     S
C554   C556    1.405   .     A
C557   N562    1.373   .     A
C557   Cl589   1.748   .     S
C558   Cl590   1.748   .     S
C558   N561    1.373   .     A
C558   C115    1.421   1_565 S
C559   N562    1.368   .     A
C559   Cl591   1.761   .     S
C560   Cl592   1.761   .     S
C560   N561    1.368   .     A
C560   C113    1.421   1_565 S
N563   O564    1.301   .     A
N563   O565    1.301   .     A
N566   O568    1.301   .     A
N566   O567    1.301   .     A
N569   O571    1.301   .     A
N569   O570    1.301   .     A
N572   O574    1.301   .     A
N572   O573    1.301   .     A
N577   O579    1.301   .     A
N577   O578    1.301   .     A
N580   O581    1.301   .     A
N580   O582    1.301   .     A
N583   O584    1.301   .     A
N583   O585    1.301   .     A
N586   O588    1.301   .     A
N586   O587    1.301   .     A
O593   C597    1.291   .     A
O593   Zn605   2.024   .     S
O594   Zn606   2.024   .     S
O594   C598    1.291   .     A
O595   Zn605   1.991   .     S
O595   C598    1.291   .     A
O596   Zn606   1.991   .     S
O596   C597    1.291   .     A
C597   C630    1.429   .     S
C598   C629    1.429   .     S
O599   Zn605   2.023   .     S
O599   C603    1.295   .     A
O600   Zn606   2.023   .     S
O600   C604    1.295   .     A
O601   Zn605   2.009   .     S
O601   C604    1.290   .     A
O602   C603    1.290   .     A
O602   Zn606   2.009   .     S
C603   C610    1.433   .     S
C604   C609    1.433   .     S
Zn605  N635    2.028   .     S
Zn606  N636    2.028   .     S
C607   C617    1.384   .     A
C607   C609    1.382   .     A
C607   H623    1.080   .     S
C608   H624    1.080   .     S
C608   C610    1.382   .     A
C608   C618    1.384   .     A
C609   C611    1.401   .     A
C610   C612    1.401   .     A
C611   N637    1.436   .     S
C611   C613    1.409   .     A
C612   C614    1.409   .     A
C612   N640    1.436   .     S
C613   C619    1.419   .     A
C613   C615    1.427   .     A
C614   C620    1.419   .     A
C614   C616    1.427   .     A
C615   C617    1.416   .     A
C615   C1282   1.400   .     S
C616   C618    1.416   .     A
C616   C1281   1.400   1_554 S
C617   C622    1.407   .     A
C618   C621    1.407   .     A
C619   N643    1.434   .     S
C619   C1287   1.395   .     S
C620   N646    1.434   .     S
C620   C1288   1.395   1_554 S
C621   Cl649   1.776   .     S
C621   C1285   1.395   1_554 S
C622   Cl650   1.776   .     S
C622   C1286   1.395   .     S
C625   C630    1.405   .     A
C625   N651    1.439   .     S
C626   C629    1.405   .     A
C626   N654    1.439   .     S
C626   C480    1.382   1_655 S
C627   N657    1.427   .     S
C627   C629    1.405   .     A
C627   C477    1.382   1_655 S
C628   N660    1.427   .     S
C628   C630    1.405   .     A
C631   N636    1.373   .     A
C631   Cl663   1.748   .     S
C632   Cl664   1.748   .     S
C632   N635    1.373   .     A
C632   C189    1.421   1_565 S
C633   N636    1.368   .     A
C633   Cl665   1.761   .     S
C634   Cl666   1.761   .     S
C634   N635    1.368   .     A
C634   C187    1.421   1_565 S
N637   O638    1.301   .     A
N637   O639    1.301   .     A
N640   O642    1.301   .     A
N640   O641    1.301   .     A
N643   O645    1.301   .     A
N643   O644    1.301   .     A
N646   O648    1.301   .     A
N646   O647    1.301   .     A
N651   O653    1.301   .     A
N651   O652    1.301   .     A
N654   O655    1.301   .     A
N654   O656    1.301   .     A
N657   O658    1.301   .     A
N657   O659    1.301   .     A
N660   O662    1.301   .     A
N660   O661    1.301   .     A
O667   C671    1.291   .     A
O667   Zn679   2.024   .     S
O668   Zn680   2.024   .     S
O668   C672    1.291   .     A
O669   Zn679   1.991   .     S
O669   C672    1.291   .     A
O670   Zn680   1.991   .     S
O670   C671    1.291   .     A
C671   C704    1.429   .     S
C672   C703    1.429   .     S
O673   Zn679   2.023   .     S
O673   C677    1.295   .     A
O674   Zn680   2.023   .     S
O674   C678    1.295   .     A
O675   Zn679   2.009   .     S
O675   C678    1.290   .     A
O676   C677    1.290   .     A
O676   Zn680   2.009   .     S
C677   C684    1.433   .     S
C678   C683    1.433   .     S
Zn679  N709    2.028   .     S
Zn680  N710    2.028   .     S
C681   C691    1.384   .     A
C681   C683    1.382   .     A
C681   H697    1.080   .     S
C682   H698    1.080   .     S
C682   C684    1.382   .     A
C682   C692    1.384   .     A
C683   C685    1.401   .     A
C684   C686    1.401   .     A
C685   N711    1.436   .     S
C685   C687    1.409   .     A
C686   C688    1.409   .     A
C686   N714    1.436   .     S
C687   C693    1.419   .     A
C687   C689    1.427   .     A
C688   C694    1.419   .     A
C688   C690    1.427   .     A
C689   C691    1.416   .     A
C689   C24     1.400   1_556 S
C690   C692    1.416   .     A
C691   C696    1.407   .     A
C692   C695    1.407   .     A
C693   N717    1.434   .     S
C693   C29     1.395   1_556 S
C694   N720    1.434   .     S
C695   Cl723   1.776   .     S
C696   Cl724   1.776   .     S
C696   C28     1.395   1_556 S
C699   C704    1.405   .     A
C699   N725    1.439   .     S
C699   C849    1.382   1_455 S
C700   C703    1.405   .     A
C700   N728    1.439   .     S
C700   C776    1.382   .     S
C701   N731    1.427   .     S
C701   C703    1.405   .     A
C701   C773    1.382   .     S
C702   N734    1.427   .     S
C702   C704    1.405   .     A
C702   C848    1.382   1_455 S
C705   N710    1.373   .     A
C705   Cl737   1.748   .     S
C705   C1152   1.421   1_545 S
C706   Cl738   1.748   .     S
C706   N709    1.373   .     A
C706   C929    1.421   .     S
C707   N710    1.368   .     A
C707   Cl739   1.761   .     S
C707   C1150   1.421   1_545 S
C708   Cl740   1.761   .     S
C708   N709    1.368   .     A
C708   C927    1.421   .     S
N711   O712    1.301   .     A
N711   O713    1.301   .     A
N714   O716    1.301   .     A
N714   O715    1.301   .     A
N717   O719    1.301   .     A
N717   O718    1.301   .     A
N720   O722    1.301   .     A
N720   O721    1.301   .     A
N725   O727    1.301   .     A
N725   O726    1.301   .     A
N728   O729    1.301   .     A
N728   O730    1.301   .     A
N731   O732    1.301   .     A
N731   O733    1.301   .     A
N734   O736    1.301   .     A
N734   O735    1.301   .     A
O741   C745    1.291   .     A
O741   Zn753   2.024   .     S
O742   Zn754   2.024   .     S
O742   C746    1.291   .     A
O743   Zn753   1.991   .     S
O743   C746    1.291   .     A
O744   Zn754   1.991   .     S
O744   C745    1.291   .     A
C745   C778    1.429   .     S
C746   C777    1.429   .     S
O747   Zn753   2.023   .     S
O747   C751    1.295   .     A
O748   Zn754   2.023   .     S
O748   C752    1.295   .     A
O749   Zn753   2.009   .     S
O749   C752    1.290   .     A
O750   C751    1.290   .     A
O750   Zn754   2.009   .     S
C751   C758    1.433   .     S
C752   C757    1.433   .     S
Zn753  N783    2.028   .     S
Zn754  N784    2.028   .     S
C755   C765    1.384   .     A
C755   C757    1.382   .     A
C755   H771    1.080   .     S
C756   H772    1.080   .     S
C756   C758    1.382   .     A
C756   C766    1.384   .     A
C757   C759    1.401   .     A
C758   C760    1.401   .     A
C759   N785    1.436   .     S
C759   C761    1.409   .     A
C760   C762    1.409   .     A
C760   N788    1.436   .     S
C761   C767    1.419   .     A
C761   C763    1.427   .     A
C762   C768    1.419   .     A
C762   C764    1.427   .     A
C763   C765    1.416   .     A
C763   C98     1.400   1_556 S
C764   C766    1.416   .     A
C765   C770    1.407   .     A
C766   C769    1.407   .     A
C767   N791    1.434   .     S
C767   C103    1.395   1_556 S
C768   N794    1.434   .     S
C769   Cl797   1.776   .     S
C770   Cl798   1.776   .     S
C770   C102    1.395   1_556 S
C773   C778    1.405   .     A
C773   N799    1.439   .     S
C774   C777    1.405   .     A
C774   N802    1.439   .     S
C774   C850    1.382   .     S
C775   N805    1.427   .     S
C775   C777    1.405   .     A
C775   C847    1.382   .     S
C776   N808    1.427   .     S
C776   C778    1.405   .     A
C779   N784    1.373   .     A
C779   Cl811   1.748   .     S
C779   C1226   1.421   1_545 S
C780   Cl812   1.748   .     S
C780   N783    1.373   .     A
C780   C1003   1.421   .     S
C781   N784    1.368   .     A
C781   Cl813   1.761   .     S
C781   C1224   1.421   1_545 S
C782   Cl814   1.761   .     S
C782   N783    1.368   .     A
C782   C1001   1.421   .     S
N785   O786    1.301   .     A
N785   O787    1.301   .     A
N788   O790    1.301   .     A
N788   O789    1.301   .     A
N791   O793    1.301   .     A
N791   O792    1.301   .     A
N794   O796    1.301   .     A
N794   O795    1.301   .     A
N799   O801    1.301   .     A
N799   O800    1.301   .     A
N802   O803    1.301   .     A
N802   O804    1.301   .     A
N805   O806    1.301   .     A
N805   O807    1.301   .     A
N808   O810    1.301   .     A
N808   O809    1.301   .     A
O815   C819    1.291   .     A
O815   Zn827   2.024   .     S
O816   Zn828   2.024   .     S
O816   C820    1.291   .     A
O817   Zn827   1.991   .     S
O817   C820    1.291   .     A
O818   Zn828   1.991   .     S
O818   C819    1.291   .     A
C819   C852    1.429   .     S
C820   C851    1.429   .     S
O821   Zn827   2.023   .     S
O821   C825    1.295   .     A
O822   Zn828   2.023   .     S
O822   C826    1.295   .     A
O823   Zn827   2.009   .     S
O823   C826    1.290   .     A
O824   C825    1.290   .     A
O824   Zn828   2.009   .     S
C825   C832    1.433   .     S
C826   C831    1.433   .     S
Zn827  N857    2.028   .     S
Zn828  N858    2.028   .     S
C829   C839    1.384   .     A
C829   C831    1.382   .     A
C829   H845    1.080   .     S
C830   H846    1.080   .     S
C830   C832    1.382   .     A
C830   C840    1.384   .     A
C831   C833    1.401   .     A
C832   C834    1.401   .     A
C833   N859    1.436   .     S
C833   C835    1.409   .     A
C834   C836    1.409   .     A
C834   N862    1.436   .     S
C835   C841    1.419   .     A
C835   C837    1.427   .     A
C836   C842    1.419   .     A
C836   C838    1.427   .     A
C837   C839    1.416   .     A
C837   C172    1.400   1_556 S
C838   C840    1.416   .     A
C839   C844    1.407   .     A
C840   C843    1.407   .     A
C841   N865    1.434   .     S
C841   C177    1.395   1_556 S
C842   N868    1.434   .     S
C843   Cl871   1.776   .     S
C844   Cl872   1.776   .     S
C844   C176    1.395   1_556 S
C847   C852    1.405   .     A
C847   N873    1.439   .     S
C848   C851    1.405   .     A
C848   N876    1.439   .     S
C848   C702    1.382   1_655 S
C849   N879    1.427   .     S
C849   C851    1.405   .     A
C849   C699    1.382   1_655 S
C850   N882    1.427   .     S
C850   C852    1.405   .     A
C853   N858    1.373   .     A
C853   Cl885   1.748   .     S
C853   C1300   1.421   1_545 S
C854   Cl886   1.748   .     S
C854   N857    1.373   .     A
C854   C1077   1.421   .     S
C855   N858    1.368   .     A
C855   Cl887   1.761   .     S
C855   C1298   1.421   1_545 S
C856   Cl888   1.761   .     S
C856   N857    1.368   .     A
C856   C1075   1.421   .     S
N859   O860    1.301   .     A
N859   O861    1.301   .     A
N862   O864    1.301   .     A
N862   O863    1.301   .     A
N865   O867    1.301   .     A
N865   O866    1.301   .     A
N868   O870    1.301   .     A
N868   O869    1.301   .     A
N873   O875    1.301   .     A
N873   O874    1.301   .     A
N876   O877    1.301   .     A
N876   O878    1.301   .     A
N879   O880    1.301   .     A
N879   O881    1.301   .     A
N882   O884    1.301   .     A
N882   O883    1.301   .     A
O889   C893    1.291   .     A
O889   Zn901   2.024   .     S
O890   Zn902   2.024   .     S
O890   C894    1.291   .     A
O891   Zn901   1.991   .     S
O891   C894    1.291   .     A
O892   Zn902   1.991   .     S
O892   C893    1.291   .     A
C893   C926    1.429   .     S
C894   C925    1.429   .     S
O895   Zn901   2.023   .     S
O895   C899    1.295   .     A
O896   Zn902   2.023   .     S
O896   C900    1.295   .     A
O897   Zn901   2.009   .     S
O897   C900    1.290   .     A
O898   C899    1.290   .     A
O898   Zn902   2.009   .     S
C899   C906    1.433   .     S
C900   C905    1.433   .     S
Zn901  N931    2.028   .     S
Zn902  N932    2.028   .     S
C903   C913    1.384   .     A
C903   C905    1.382   .     A
C903   H919    1.080   .     S
C904   H920    1.080   .     S
C904   C906    1.382   .     A
C904   C914    1.384   .     A
C905   C907    1.401   .     A
C906   C908    1.401   .     A
C907   N933    1.436   .     S
C907   C909    1.409   .     A
C908   C910    1.409   .     A
C908   N936    1.436   .     S
C909   C915    1.419   .     A
C909   C911    1.427   .     A
C910   C916    1.419   .     A
C910   C912    1.427   .     A
C911   C913    1.416   .     A
C911   C246    1.400   1_556 S
C912   C914    1.416   .     A
C913   C918    1.407   .     A
C914   C917    1.407   .     A
C915   N939    1.434   .     S
C915   C251    1.395   1_556 S
C916   N942    1.434   .     S
C917   Cl945   1.776   .     S
C918   Cl946   1.776   .     S
C918   C250    1.395   1_556 S
C921   C926    1.405   .     A
C921   N947    1.439   .     S
C921   C1071   1.382   1_455 S
C922   C925    1.405   .     A
C922   N950    1.439   .     S
C922   C998    1.382   .     S
C923   N953    1.427   .     S
C923   C925    1.405   .     A
C923   C995    1.382   .     S
C924   N956    1.427   .     S
C924   C926    1.405   .     A
C924   C1070   1.382   1_455 S
C927   N932    1.373   .     A
C927   Cl959   1.748   .     S
C928   Cl960   1.748   .     S
C928   N931    1.373   .     A
C928   C1151   1.421   .     S
C929   N932    1.368   .     A
C929   Cl961   1.761   .     S
C930   Cl962   1.761   .     S
C930   N931    1.368   .     A
C930   C1149   1.421   .     S
N933   O934    1.301   .     A
N933   O935    1.301   .     A
N936   O938    1.301   .     A
N936   O937    1.301   .     A
N939   O941    1.301   .     A
N939   O940    1.301   .     A
N942   O944    1.301   .     A
N942   O943    1.301   .     A
N947   O949    1.301   .     A
N947   O948    1.301   .     A
N950   O951    1.301   .     A
N950   O952    1.301   .     A
N953   O954    1.301   .     A
N953   O955    1.301   .     A
N956   O958    1.301   .     A
N956   O957    1.301   .     A
O963   C967    1.291   .     A
O963   Zn975   2.024   .     S
O964   Zn976   2.024   .     S
O964   C968    1.291   .     A
O965   Zn975   1.991   .     S
O965   C968    1.291   .     A
O966   Zn976   1.991   .     S
O966   C967    1.291   .     A
C967   C1000   1.429   .     S
C968   C999    1.429   .     S
O969   Zn975   2.023   .     S
O969   C973    1.295   .     A
O970   Zn976   2.023   .     S
O970   C974    1.295   .     A
O971   Zn975   2.009   .     S
O971   C974    1.290   .     A
O972   C973    1.290   .     A
O972   Zn976   2.009   .     S
C973   C980    1.433   .     S
C974   C979    1.433   .     S
Zn975  N1005   2.028   .     S
Zn976  N1006   2.028   .     S
C977   C987    1.384   .     A
C977   C979    1.382   .     A
C977   H993    1.080   .     S
C978   H994    1.080   .     S
C978   C980    1.382   .     A
C978   C988    1.384   .     A
C979   C981    1.401   .     A
C980   C982    1.401   .     A
C981   N1007   1.436   .     S
C981   C983    1.409   .     A
C982   C984    1.409   .     A
C982   N1010   1.436   .     S
C983   C989    1.419   .     A
C983   C985    1.427   .     A
C984   C990    1.419   .     A
C984   C986    1.427   .     A
C985   C987    1.416   .     A
C985   C320    1.400   1_556 S
C986   C988    1.416   .     A
C987   C992    1.407   .     A
C988   C991    1.407   .     A
C989   N1013   1.434   .     S
C989   C325    1.395   1_556 S
C990   N1016   1.434   .     S
C991   Cl1019  1.776   .     S
C992   Cl1020  1.776   .     S
C992   C324    1.395   1_556 S
C995   C1000   1.405   .     A
C995   N1021   1.439   .     S
C996   C999    1.405   .     A
C996   N1024   1.439   .     S
C996   C1072   1.382   .     S
C997   N1027   1.427   .     S
C997   C999    1.405   .     A
C997   C1069   1.382   .     S
C998   N1030   1.427   .     S
C998   C1000   1.405   .     A
C1001  N1006   1.373   .     A
C1001  Cl1033  1.748   .     S
C1002  Cl1034  1.748   .     S
C1002  N1005   1.373   .     A
C1002  C1225   1.421   .     S
C1003  N1006   1.368   .     A
C1003  Cl1035  1.761   .     S
C1004  Cl1036  1.761   .     S
C1004  N1005   1.368   .     A
C1004  C1223   1.421   .     S
N1007  O1008   1.301   .     A
N1007  O1009   1.301   .     A
N1010  O1012   1.301   .     A
N1010  O1011   1.301   .     A
N1013  O1015   1.301   .     A
N1013  O1014   1.301   .     A
N1016  O1018   1.301   .     A
N1016  O1017   1.301   .     A
N1021  O1023   1.301   .     A
N1021  O1022   1.301   .     A
N1024  O1025   1.301   .     A
N1024  O1026   1.301   .     A
N1027  O1028   1.301   .     A
N1027  O1029   1.301   .     A
N1030  O1032   1.301   .     A
N1030  O1031   1.301   .     A
O1037  C1041   1.291   .     A
O1037  Zn1049  2.024   .     S
O1038  Zn1050  2.024   .     S
O1038  C1042   1.291   .     A
O1039  Zn1049  1.991   .     S
O1039  C1042   1.291   .     A
O1040  Zn1050  1.991   .     S
O1040  C1041   1.291   .     A
C1041  C1074   1.429   .     S
C1042  C1073   1.429   .     S
O1043  Zn1049  2.023   .     S
O1043  C1047   1.295   .     A
O1044  Zn1050  2.023   .     S
O1044  C1048   1.295   .     A
O1045  Zn1049  2.009   .     S
O1045  C1048   1.290   .     A
O1046  C1047   1.290   .     A
O1046  Zn1050  2.009   .     S
C1047  C1054   1.433   .     S
C1048  C1053   1.433   .     S
Zn1049 N1079   2.028   .     S
Zn1050 N1080   2.028   .     S
C1051  C1061   1.384   .     A
C1051  C1053   1.382   .     A
C1051  H1067   1.080   .     S
C1052  H1068   1.080   .     S
C1052  C1054   1.382   .     A
C1052  C1062   1.384   .     A
C1053  C1055   1.401   .     A
C1054  C1056   1.401   .     A
C1055  N1081   1.436   .     S
C1055  C1057   1.409   .     A
C1056  C1058   1.409   .     A
C1056  N1084   1.436   .     S
C1057  C1063   1.419   .     A
C1057  C1059   1.427   .     A
C1058  C1064   1.419   .     A
C1058  C1060   1.427   .     A
C1059  C1061   1.416   .     A
C1059  C394    1.400   1_556 S
C1060  C1062   1.416   .     A
C1061  C1066   1.407   .     A
C1062  C1065   1.407   .     A
C1063  N1087   1.434   .     S
C1063  C399    1.395   1_556 S
C1064  N1090   1.434   .     S
C1065  Cl1093  1.776   .     S
C1066  Cl1094  1.776   .     S
C1066  C398    1.395   1_556 S
C1069  C1074   1.405   .     A
C1069  N1095   1.439   .     S
C1070  C1073   1.405   .     A
C1070  N1098   1.439   .     S
C1070  C924    1.382   1_655 S
C1071  N1101   1.427   .     S
C1071  C1073   1.405   .     A
C1071  C921    1.382   1_655 S
C1072  N1104   1.427   .     S
C1072  C1074   1.405   .     A
C1075  N1080   1.373   .     A
C1075  Cl1107  1.748   .     S
C1076  Cl1108  1.748   .     S
C1076  N1079   1.373   .     A
C1076  C1299   1.421   .     S
C1077  N1080   1.368   .     A
C1077  Cl1109  1.761   .     S
C1078  Cl1110  1.761   .     S
C1078  N1079   1.368   .     A
C1078  C1297   1.421   .     S
N1081  O1082   1.301   .     A
N1081  O1083   1.301   .     A
N1084  O1086   1.301   .     A
N1084  O1085   1.301   .     A
N1087  O1089   1.301   .     A
N1087  O1088   1.301   .     A
N1090  O1092   1.301   .     A
N1090  O1091   1.301   .     A
N1095  O1097   1.301   .     A
N1095  O1096   1.301   .     A
N1098  O1099   1.301   .     A
N1098  O1100   1.301   .     A
N1101  O1102   1.301   .     A
N1101  O1103   1.301   .     A
N1104  O1106   1.301   .     A
N1104  O1105   1.301   .     A
O1111  C1115   1.291   .     A
O1111  Zn1123  2.024   .     S
O1112  Zn1124  2.024   .     S
O1112  C1116   1.291   .     A
O1113  Zn1123  1.991   .     S
O1113  C1116   1.291   .     A
O1114  Zn1124  1.991   .     S
O1114  C1115   1.291   .     A
C1115  C1148   1.429   .     S
C1116  C1147   1.429   .     S
O1117  Zn1123  2.023   .     S
O1117  C1121   1.295   .     A
O1118  Zn1124  2.023   .     S
O1118  C1122   1.295   .     A
O1119  Zn1123  2.009   .     S
O1119  C1122   1.290   .     A
O1120  C1121   1.290   .     A
O1120  Zn1124  2.009   .     S
C1121  C1128   1.433   .     S
C1122  C1127   1.433   .     S
Zn1123 N1153   2.028   .     S
Zn1124 N1154   2.028   .     S
C1125  C1135   1.384   .     A
C1125  C1127   1.382   .     A
C1125  H1141   1.080   .     S
C1126  H1142   1.080   .     S
C1126  C1128   1.382   .     A
C1126  C1136   1.384   .     A
C1127  C1129   1.401   .     A
C1128  C1130   1.401   .     A
C1129  N1155   1.436   .     S
C1129  C1131   1.409   .     A
C1130  C1132   1.409   .     A
C1130  N1158   1.436   .     S
C1131  C1137   1.419   .     A
C1131  C1133   1.427   .     A
C1132  C1138   1.419   .     A
C1132  C1134   1.427   .     A
C1133  C1135   1.416   .     A
C1133  C468    1.400   1_556 S
C1134  C1136   1.416   .     A
C1135  C1140   1.407   .     A
C1136  C1139   1.407   .     A
C1137  N1161   1.434   .     S
C1137  C473    1.395   1_556 S
C1138  N1164   1.434   .     S
C1139  Cl1167  1.776   .     S
C1140  Cl1168  1.776   .     S
C1140  C472    1.395   1_556 S
C1143  C1148   1.405   .     A
C1143  N1169   1.439   .     S
C1143  C1293   1.382   1_455 S
C1144  C1147   1.405   .     A
C1144  N1172   1.439   .     S
C1144  C1220   1.382   .     S
C1145  N1175   1.427   .     S
C1145  C1147   1.405   .     A
C1145  C1217   1.382   .     S
C1146  N1178   1.427   .     S
C1146  C1148   1.405   .     A
C1146  C1292   1.382   1_455 S
C1149  N1154   1.373   .     A
C1149  Cl1181  1.748   .     S
C1150  Cl1182  1.748   .     S
C1150  N1153   1.373   .     A
C1150  C707    1.421   1_565 S
C1151  N1154   1.368   .     A
C1151  Cl1183  1.761   .     S
C1152  Cl1184  1.761   .     S
C1152  N1153   1.368   .     A
C1152  C705    1.421   1_565 S
N1155  O1156   1.301   .     A
N1155  O1157   1.301   .     A
N1158  O1160   1.301   .     A
N1158  O1159   1.301   .     A
N1161  O1163   1.301   .     A
N1161  O1162   1.301   .     A
N1164  O1166   1.301   .     A
N1164  O1165   1.301   .     A
N1169  O1171   1.301   .     A
N1169  O1170   1.301   .     A
N1172  O1173   1.301   .     A
N1172  O1174   1.301   .     A
N1175  O1176   1.301   .     A
N1175  O1177   1.301   .     A
N1178  O1180   1.301   .     A
N1178  O1179   1.301   .     A
O1185  C1189   1.291   .     A
O1185  Zn1197  2.024   .     S
O1186  Zn1198  2.024   .     S
O1186  C1190   1.291   .     A
O1187  Zn1197  1.991   .     S
O1187  C1190   1.291   .     A
O1188  Zn1198  1.991   .     S
O1188  C1189   1.291   .     A
C1189  C1222   1.429   .     S
C1190  C1221   1.429   .     S
O1191  Zn1197  2.023   .     S
O1191  C1195   1.295   .     A
O1192  Zn1198  2.023   .     S
O1192  C1196   1.295   .     A
O1193  Zn1197  2.009   .     S
O1193  C1196   1.290   .     A
O1194  C1195   1.290   .     A
O1194  Zn1198  2.009   .     S
C1195  C1202   1.433   .     S
C1196  C1201   1.433   .     S
Zn1197 N1227   2.028   .     S
Zn1198 N1228   2.028   .     S
C1199  C1209   1.384   .     A
C1199  C1201   1.382   .     A
C1199  H1215   1.080   .     S
C1200  H1216   1.080   .     S
C1200  C1202   1.382   .     A
C1200  C1210   1.384   .     A
C1201  C1203   1.401   .     A
C1202  C1204   1.401   .     A
C1203  N1229   1.436   .     S
C1203  C1205   1.409   .     A
C1204  C1206   1.409   .     A
C1204  N1232   1.436   .     S
C1205  C1211   1.419   .     A
C1205  C1207   1.427   .     A
C1206  C1212   1.419   .     A
C1206  C1208   1.427   .     A
C1207  C1209   1.416   .     A
C1207  C542    1.400   1_556 S
C1208  C1210   1.416   .     A
C1209  C1214   1.407   .     A
C1210  C1213   1.407   .     A
C1211  N1235   1.434   .     S
C1211  C547    1.395   1_556 S
C1212  N1238   1.434   .     S
C1213  Cl1241  1.776   .     S
C1214  Cl1242  1.776   .     S
C1214  C546    1.395   1_556 S
C1217  C1222   1.405   .     A
C1217  N1243   1.439   .     S
C1218  C1221   1.405   .     A
C1218  N1246   1.439   .     S
C1218  C1294   1.382   .     S
C1219  N1249   1.427   .     S
C1219  C1221   1.405   .     A
C1219  C1291   1.382   .     S
C1220  N1252   1.427   .     S
C1220  C1222   1.405   .     A
C1223  N1228   1.373   .     A
C1223  Cl1255  1.748   .     S
C1224  Cl1256  1.748   .     S
C1224  N1227   1.373   .     A
C1224  C781    1.421   1_565 S
C1225  N1228   1.368   .     A
C1225  Cl1257  1.761   .     S
C1226  Cl1258  1.761   .     S
C1226  N1227   1.368   .     A
C1226  C779    1.421   1_565 S
N1229  O1230   1.301   .     A
N1229  O1231   1.301   .     A
N1232  O1234   1.301   .     A
N1232  O1233   1.301   .     A
N1235  O1237   1.301   .     A
N1235  O1236   1.301   .     A
N1238  O1240   1.301   .     A
N1238  O1239   1.301   .     A
N1243  O1245   1.301   .     A
N1243  O1244   1.301   .     A
N1246  O1247   1.301   .     A
N1246  O1248   1.301   .     A
N1249  O1250   1.301   .     A
N1249  O1251   1.301   .     A
N1252  O1254   1.301   .     A
N1252  O1253   1.301   .     A
O1259  C1263   1.291   .     A
O1259  Zn1271  2.024   .     S
O1260  Zn1272  2.024   .     S
O1260  C1264   1.291   .     A
O1261  Zn1271  1.991   .     S
O1261  C1264   1.291   .     A
O1262  Zn1272  1.991   .     S
O1262  C1263   1.291   .     A
C1263  C1296   1.429   .     S
C1264  C1295   1.429   .     S
O1265  Zn1271  2.023   .     S
O1265  C1269   1.295   .     A
O1266  Zn1272  2.023   .     S
O1266  C1270   1.295   .     A
O1267  Zn1271  2.009   .     S
O1267  C1270   1.290   .     A
O1268  C1269   1.290   .     A
O1268  Zn1272  2.009   .     S
C1269  C1276   1.433   .     S
C1270  C1275   1.433   .     S
Zn1271 N1301   2.028   .     S
Zn1272 N1302   2.028   .     S
C1273  C1283   1.384   .     A
C1273  C1275   1.382   .     A
C1273  H1289   1.080   .     S
C1274  H1290   1.080   .     S
C1274  C1276   1.382   .     A
C1274  C1284   1.384   .     A
C1275  C1277   1.401   .     A
C1276  C1278   1.401   .     A
C1277  N1303   1.436   .     S
C1277  C1279   1.409   .     A
C1278  C1280   1.409   .     A
C1278  N1306   1.436   .     S
C1279  C1285   1.419   .     A
C1279  C1281   1.427   .     A
C1280  C1286   1.419   .     A
C1280  C1282   1.427   .     A
C1281  C1283   1.416   .     A
C1281  C616    1.400   1_556 S
C1282  C1284   1.416   .     A
C1283  C1288   1.407   .     A
C1284  C1287   1.407   .     A
C1285  N1309   1.434   .     S
C1285  C621    1.395   1_556 S
C1286  N1312   1.434   .     S
C1287  Cl1315  1.776   .     S
C1288  Cl1316  1.776   .     S
C1288  C620    1.395   1_556 S
C1291  C1296   1.405   .     A
C1291  N1317   1.439   .     S
C1292  C1295   1.405   .     A
C1292  N1320   1.439   .     S
C1292  C1146   1.382   1_655 S
C1293  N1323   1.427   .     S
C1293  C1295   1.405   .     A
C1293  C1143   1.382   1_655 S
C1294  N1326   1.427   .     S
C1294  C1296   1.405   .     A
C1297  N1302   1.373   .     A
C1297  Cl1329  1.748   .     S
C1298  Cl1330  1.748   .     S
C1298  N1301   1.373   .     A
C1298  C855    1.421   1_565 S
C1299  N1302   1.368   .     A
C1299  Cl1331  1.761   .     S
C1300  Cl1332  1.761   .     S
C1300  N1301   1.368   .     A
C1300  C853    1.421   1_565 S
N1303  O1304   1.301   .     A
N1303  O1305   1.301   .     A
N1306  O1308   1.301   .     A
N1306  O1307   1.301   .     A
N1309  O1311   1.301   .     A
N1309  O1310   1.301   .     A
N1312  O1314   1.301   .     A
N1312  O1313   1.301   .     A
N1317  O1319   1.301   .     A
N1317  O1318   1.301   .     A
N1320  O1321   1.301   .     A
N1320  O1322   1.301   .     A
N1323  O1324   1.301   .     A
N1323  O1325   1.301   .     A
N1326  O1328   1.301   .     A
N1326  O1327   1.301   .     A
