data_str_m1_o1_o17_pcu_sym.157
_audit_creation_date              2020-01-03
_audit_creation_method            'Materials Studio'
_symmetry_space_group_name_H-M    'P1'
_symmetry_Int_Tables_number       1
_symmetry_cell_setting            triclinic
loop_
_symmetry_equiv_pos_as_xyz
  x,y,z
_cell_length_a                    36.6144
_cell_length_b                    36.6168
_cell_length_c                    34.3347
_cell_angle_alpha                 90.0005
_cell_angle_beta                  89.9985
_cell_angle_gamma                 90.1186
loop_
_atom_site_label
_atom_site_type_symbol
_atom_site_fract_x
_atom_site_fract_y
_atom_site_fract_z
_atom_site_U_iso_or_equiv
_atom_site_adp_type
_atom_site_occupancy
C1     C     0.49328   0.28302   0.41828   0.00000  Uiso   1.00
C2     C     0.00252   0.21705   0.58158   0.00000  Uiso   1.00
C3     C     0.21680   0.00271   0.41829   0.00000  Uiso   1.00
C4     C     0.28278   0.49302   0.58163   0.00000  Uiso   1.00
C5     C     0.00711   0.21744   0.41844   0.00000  Uiso   1.00
C6     C     0.49831   0.28356   0.58189   0.00000  Uiso   1.00
C7     C     0.28322   0.49730   0.41829   0.00000  Uiso   1.00
C8     C     0.21722   0.00698   0.58163   0.00000  Uiso   1.00
C9     C     0.24320   0.03300   0.91829   0.00000  Uiso   1.00
C10    C     0.25261   0.46705   0.08158   0.00000  Uiso   1.00
C11    C     0.46679   0.25263   0.91829   0.00000  Uiso   1.00
C12    C     0.03279   0.24309   0.08163   0.00000  Uiso   1.00
C13    C     0.25718   0.46745   0.91844   0.00000  Uiso   1.00
C14    C     0.24824   0.03356   0.08189   0.00000  Uiso   1.00
C15    C     0.03322   0.24736   0.91829   0.00000  Uiso   1.00
C16    C     0.46721   0.25692   0.08163   0.00000  Uiso   1.00
C17    C     0.00005   0.25015   0.39812   0.00000  Uiso   1.00
C18    C     0.00009   0.25019   0.60198   0.00000  Uiso   1.00
C19    C     0.25001  -0.00000   0.39802   0.00000  Uiso   1.00
C20    C     0.25000   0.00000   0.60188   0.00000  Uiso   1.00
C21    C     0.25005   0.00015   0.89812   0.00000  Uiso   1.00
C22    C     0.25009   0.00019   0.10198   0.00000  Uiso   1.00
C23    C     0.00001   0.25000   0.89802   0.00000  Uiso   1.00
C24    C    -0.00000   0.25000   0.10188   0.00000  Uiso   1.00
C25    C     0.02977   0.19015   0.48024   0.00000  Uiso   1.00
C26    C     0.47432   0.31193   0.52133   0.00000  Uiso   1.00
C27    C     0.31061   0.47193   0.47870   0.00000  Uiso   1.00
C28    C     0.18994   0.02962   0.51979   0.00000  Uiso   1.00
C29    C     0.47173   0.31082   0.48024   0.00000  Uiso   1.00
C30    C     0.02806   0.18957   0.52133   0.00000  Uiso   1.00
C31    C     0.18941   0.02808   0.47869   0.00000  Uiso   1.00
C32    C     0.31006   0.47036   0.51980   0.00000  Uiso   1.00
C33    C     0.27991   0.44022   0.98024   0.00000  Uiso   1.00
C34    C     0.22418   0.06186   0.02134   0.00000  Uiso   1.00
C35    C     0.06067   0.22205   0.97870   0.00000  Uiso   1.00
C36    C     0.43987   0.27949   0.01979   0.00000  Uiso   1.00
C37    C     0.22159   0.06075   0.98024   0.00000  Uiso   1.00
C38    C     0.27821   0.43964   0.02133   0.00000  Uiso   1.00
C39    C     0.43935   0.27794   0.97869   0.00000  Uiso   1.00
C40    C     0.06012   0.22049   0.01981   0.00000  Uiso   1.00
C41    C     0.25000  -0.00000   0.35572   0.00000  Uiso   1.00
C42    C     0.25000  -0.00000   0.64424   0.00000  Uiso   1.00
C43    C     0.00000   0.25003   0.35576   0.00000  Uiso   1.00
C44    C     0.00001   0.24998   0.64428   0.00000  Uiso   1.00
C45    C     0.00001   0.25000   0.85572   0.00000  Uiso   1.00
C46    C    -0.00000   0.25000   0.14424   0.00000  Uiso   1.00
C47    C     0.25000   0.00003   0.85576   0.00000  Uiso   1.00
C48    C     0.25001   0.49998   0.14428   0.00000  Uiso   1.00
C49    C     0.18002   0.06999   0.24998   0.00000  Uiso   1.00
C50    C     0.32006   0.42995   0.74999   0.00000  Uiso   1.00
C51    C     0.43002   0.18002   0.25000   0.00000  Uiso   1.00
C52    C     0.07004   0.32003   0.75000   0.00000  Uiso   1.00
C53    C     0.31999   0.43002   0.25000   0.00000  Uiso   1.00
C54    C     0.17994   0.07005   0.75000   0.00000  Uiso   1.00
C55    C     0.06998   0.31997   0.25000   0.00000  Uiso   1.00
C56    C     0.42996   0.17997   0.75000   0.00000  Uiso   1.00
C57    C     0.18002   0.43002   0.75000   0.00000  Uiso   1.00
C58    C     0.32004   0.07003   0.25000   0.00000  Uiso   1.00
C59    C     0.43002   0.31999   0.74998   0.00000  Uiso   1.00
C60    C     0.07006   0.17995   0.24999   0.00000  Uiso   1.00
C61    C     0.31998   0.06997   0.75000   0.00000  Uiso   1.00
C62    C     0.17996   0.42997   0.25000   0.00000  Uiso   1.00
C63    C     0.06999   0.18002   0.75000   0.00000  Uiso   1.00
C64    C     0.42994   0.32005   0.25000   0.00000  Uiso   1.00
C65    C     0.14275   0.38418   0.21480   0.00000  Uiso   1.00
C66    C     0.35581   0.11683   0.78476   0.00000  Uiso   1.00
C67    C     0.11174   0.13853   0.21418   0.00000  Uiso   1.00
C68    C     0.38702   0.35969   0.78561   0.00000  Uiso   1.00
C69    C     0.35760   0.11547   0.21471   0.00000  Uiso   1.00
C70    C     0.14400   0.38335   0.78483   0.00000  Uiso   1.00
C71    C     0.38790   0.36112   0.21421   0.00000  Uiso   1.00
C72    C     0.11330   0.14063   0.78560   0.00000  Uiso   1.00
C73    C     0.13885   0.11207   0.78579   0.00000  Uiso   1.00
C74    C     0.35936   0.38669   0.21440   0.00000  Uiso   1.00
C75    C     0.11547   0.35760   0.78532   0.00000  Uiso   1.00
C76    C     0.38333   0.14402   0.21520   0.00000  Uiso   1.00
C77    C     0.36148   0.38826   0.78577   0.00000  Uiso   1.00
C78    C     0.14027   0.11295   0.21432   0.00000  Uiso   1.00
C79    C     0.38433   0.14259   0.78526   0.00000  Uiso   1.00
C80    C     0.11700   0.35566   0.21531   0.00000  Uiso   1.00
C81    C     0.39258   0.13435   0.71475   0.00000  Uiso   1.00
C82    C     0.10565   0.36699   0.28469   0.00000  Uiso   1.00
C83    C     0.36171   0.38850   0.71417   0.00000  Uiso   1.00
C84    C     0.13700   0.10967   0.28560   0.00000  Uiso   1.00
C85    C     0.10765   0.36543   0.71469   0.00000  Uiso   1.00
C86    C     0.39404   0.13331   0.28481   0.00000  Uiso   1.00
C87    C     0.13791   0.11113   0.71421   0.00000  Uiso   1.00
C88    C     0.36332   0.39065   0.28560   0.00000  Uiso   1.00
C89    C     0.38887   0.36208   0.28579   0.00000  Uiso   1.00
C90    C     0.10937   0.13671   0.71439   0.00000  Uiso   1.00
C91    C     0.36552   0.10756   0.28530   0.00000  Uiso   1.00
C92    C     0.13337   0.39398   0.71518   0.00000  Uiso   1.00
C93    C     0.11146   0.13824   0.28577   0.00000  Uiso   1.00
C94    C     0.39025   0.36292   0.71431   0.00000  Uiso   1.00
C95    C     0.13416   0.39276   0.28521   0.00000  Uiso   1.00
C96    C     0.36683   0.10582   0.71525   0.00000  Uiso   1.00
C97    C     0.01243   0.21890   0.45927   0.00000  Uiso   1.00
C98    C     0.49153   0.28272   0.54129   0.00000  Uiso   1.00
C99    C     0.28196   0.49002   0.45874   0.00000  Uiso   1.00
C100   C     0.21858   0.01209   0.54077   0.00000  Uiso   1.00
C101   C     0.48873   0.28190   0.45924   0.00000  Uiso   1.00
C102   C     0.01018   0.21839   0.54123   0.00000  Uiso   1.00
C103   C     0.21806   0.00998   0.45874   0.00000  Uiso   1.00
C104   C     0.28142   0.48791   0.54077   0.00000  Uiso   1.00
C105   C     0.26251   0.46893   0.95927   0.00000  Uiso   1.00
C106   C     0.24146   0.03270   0.04129   0.00000  Uiso   1.00
C107   C     0.03197   0.24008   0.95874   0.00000  Uiso   1.00
C108   C     0.46856   0.26202   0.04077   0.00000  Uiso   1.00
C109   C     0.23866   0.03187   0.95924   0.00000  Uiso   1.00
C110   C     0.26026   0.46841   0.04123   0.00000  Uiso   1.00
C111   C     0.46804   0.25991   0.95874   0.00000  Uiso   1.00
C112   C     0.03144   0.23797   0.04077   0.00000  Uiso   1.00
C113   C     0.09803   0.34803   0.25000   0.00000  Uiso   1.00
C114   C     0.40183   0.15184   0.75001   0.00000  Uiso   1.00
C115   C     0.15197   0.09803   0.24997   0.00000  Uiso   1.00
C116   C     0.34821   0.40180   0.74998   0.00000  Uiso   1.00
C117   C     0.40197   0.15197   0.25001   0.00000  Uiso   1.00
C118   C     0.09818   0.34815   0.75001   0.00000  Uiso   1.00
C119   C     0.34803   0.40197   0.25000   0.00000  Uiso   1.00
C120   C     0.15178   0.09819   0.75000   0.00000  Uiso   1.00
C121   C     0.09803   0.15197   0.75000   0.00000  Uiso   1.00
C122   C     0.40178   0.34820   0.25000   0.00000  Uiso   1.00
C123   C     0.15197   0.40197   0.75001   0.00000  Uiso   1.00
C124   C     0.34818   0.09815   0.25001   0.00000  Uiso   1.00
C125   C     0.40197   0.34803   0.74996   0.00000  Uiso   1.00
C126   C     0.09821   0.15180   0.24998   0.00000  Uiso   1.00
C127   C     0.34803   0.09803   0.75000   0.00000  Uiso   1.00
C128   C     0.15183   0.40184   0.25000   0.00000  Uiso   1.00
C129   C     0.00075   0.25049   0.47968   0.00000  Uiso   1.00
C130   C     0.00084   0.25055   0.52064   0.00000  Uiso   1.00
C131   C     0.25001  -0.00000   0.47937   0.00000  Uiso   1.00
C132   C     0.25000  -0.00000   0.52033   0.00000  Uiso   1.00
C133   C     0.25075   0.00049   0.97969   0.00000  Uiso   1.00
C134   C     0.25084   0.00055   0.02064   0.00000  Uiso   1.00
C135   C     0.00001   0.24999   0.97937   0.00000  Uiso   1.00
C136   C     0.00000   0.25000   0.02033   0.00000  Uiso   1.00
O137   O     0.25000  -0.00000   0.25000   0.00000  Uiso   1.00
O138   O     0.25000  -0.00000   0.75000   0.00000  Uiso   1.00
O139   O     0.00000   0.25000   0.25000   0.00000  Uiso   1.00
O140   O     0.00000   0.25000   0.75000   0.00000  Uiso   1.00
O141   O     0.25000   0.46963   0.33755   0.00000  Uiso   1.00
O142   O     0.25000   0.03036   0.66245   0.00000  Uiso   1.00
O143   O     0.03037   0.25000   0.33755   0.00000  Uiso   1.00
O144   O     0.46964   0.25000   0.66245   0.00000  Uiso   1.00
O145   O     0.25000   0.03036   0.33755   0.00000  Uiso   1.00
O146   O     0.25000   0.46963   0.66245   0.00000  Uiso   1.00
O147   O     0.46964   0.25000   0.33755   0.00000  Uiso   1.00
O148   O     0.03037   0.25000   0.66245   0.00000  Uiso   1.00
O149   O     0.00000   0.21963   0.83755   0.00000  Uiso   1.00
O150   O     0.00000   0.28036   0.16245   0.00000  Uiso   1.00
O151   O     0.28037  -0.00000   0.83755   0.00000  Uiso   1.00
O152   O     0.21964  -0.00000   0.16245   0.00000  Uiso   1.00
O153   O     0.00000   0.28036   0.83755   0.00000  Uiso   1.00
O154   O     0.00000   0.21963   0.16245   0.00000  Uiso   1.00
O155   O     0.21964  -0.00000   0.83755   0.00000  Uiso   1.00
O156   O     0.28037  -0.00000   0.16245   0.00000  Uiso   1.00
O157   O     0.20725   0.07307   0.27302   0.00000  Uiso   1.00
O158   O     0.29276   0.42692   0.72698   0.00000  Uiso   1.00
O159   O     0.42693   0.20724   0.27302   0.00000  Uiso   1.00
O160   O     0.07308   0.29275   0.72698   0.00000  Uiso   1.00
O161   O     0.29276   0.42692   0.27302   0.00000  Uiso   1.00
O162   O     0.20725   0.07307   0.72698   0.00000  Uiso   1.00
O163   O     0.07308   0.29275   0.27302   0.00000  Uiso   1.00
O164   O     0.42693   0.20724   0.72698   0.00000  Uiso   1.00
O165   O     0.20725   0.42692   0.72698   0.00000  Uiso   1.00
O166   O     0.29276   0.07307   0.27302   0.00000  Uiso   1.00
O167   O     0.42693   0.29275   0.72698   0.00000  Uiso   1.00
O168   O     0.07308   0.20724   0.27302   0.00000  Uiso   1.00
O169   O     0.29276   0.07307   0.72698   0.00000  Uiso   1.00
O170   O     0.20725   0.42692   0.27302   0.00000  Uiso   1.00
O171   O     0.07308   0.20724   0.72698   0.00000  Uiso   1.00
O172   O     0.42693   0.29275   0.27302   0.00000  Uiso   1.00
O173   O     0.45725   0.32307   0.77302   0.00000  Uiso   1.00
O174   O     0.04276   0.17692   0.22698   0.00000  Uiso   1.00
O175   O     0.17693   0.45724   0.77302   0.00000  Uiso   1.00
O176   O     0.32308   0.04275   0.22698   0.00000  Uiso   1.00
O177   O     0.04276   0.17692   0.77302   0.00000  Uiso   1.00
O178   O     0.45725   0.32307   0.22698   0.00000  Uiso   1.00
O179   O     0.32308   0.04275   0.77302   0.00000  Uiso   1.00
O180   O     0.17693   0.45724   0.22698   0.00000  Uiso   1.00
O181   O     0.45725   0.17692   0.22698   0.00000  Uiso   1.00
O182   O     0.04276   0.32307   0.77302   0.00000  Uiso   1.00
O183   O     0.17693   0.04275   0.22698   0.00000  Uiso   1.00
O184   O     0.32308   0.45724   0.77302   0.00000  Uiso   1.00
O185   O     0.04276   0.32307   0.22698   0.00000  Uiso   1.00
O186   O     0.45725   0.17692   0.77302   0.00000  Uiso   1.00
O187   O     0.32308   0.45724   0.22698   0.00000  Uiso   1.00
O188   O     0.17693   0.04275   0.77302   0.00000  Uiso   1.00
Zn189  Zn    0.20660  -0.00000   0.21735   0.00000  Uiso   1.00
Zn190  Zn    0.29341  -0.00000   0.78265   0.00000  Uiso   1.00
Zn191  Zn    0.00000   0.20659   0.21735   0.00000  Uiso   1.00
Zn192  Zn    0.00000   0.29340   0.78265   0.00000  Uiso   1.00
Zn193  Zn    0.29341  -0.00000   0.21735   0.00000  Uiso   1.00
Zn194  Zn    0.20660  -0.00000   0.78265   0.00000  Uiso   1.00
Zn195  Zn    0.00000   0.29340   0.21735   0.00000  Uiso   1.00
Zn196  Zn    0.00000   0.20659   0.78265   0.00000  Uiso   1.00
Zn197  Zn    0.45660   0.25000   0.71735   0.00000  Uiso   1.00
Zn198  Zn    0.04341   0.25000   0.28265   0.00000  Uiso   1.00
Zn199  Zn    0.25000   0.45659   0.71735   0.00000  Uiso   1.00
Zn200  Zn    0.25000   0.04340   0.28265   0.00000  Uiso   1.00
Zn201  Zn    0.04341   0.25000   0.71735   0.00000  Uiso   1.00
Zn202  Zn    0.45660   0.25000   0.28265   0.00000  Uiso   1.00
Zn203  Zn    0.25000   0.04340   0.71735   0.00000  Uiso   1.00
Zn204  Zn    0.25000   0.45659   0.28265   0.00000  Uiso   1.00
C205   C     0.05450   0.16387   0.46023   0.00000  Uiso   1.00
H206   H     0.05427   0.13517   0.46793   0.00000  Uiso   1.00
O207   O     0.07612   0.17448   0.43560   0.00000  Uiso   1.00
C208   C     0.45335   0.33964   0.54396   0.00000  Uiso   1.00
H209   H     0.43840   0.33133   0.56980   0.00000  Uiso   1.00
O210   O     0.45396   0.37193   0.53518   0.00000  Uiso   1.00
C211   C     0.33775   0.44941   0.45697   0.00000  Uiso   1.00
H212   H     0.36599   0.44827   0.46635   0.00000  Uiso   1.00
O213   O     0.32842   0.43114   0.42891   0.00000  Uiso   1.00
C214   C     0.16377   0.05445   0.53984   0.00000  Uiso   1.00
H215   H     0.13504   0.05424   0.53222   0.00000  Uiso   1.00
O216   O     0.17450   0.07611   0.56435   0.00000  Uiso   1.00
C217   C     0.44607   0.33615   0.46022   0.00000  Uiso   1.00
H218   H     0.44711   0.36528   0.46555   0.00000  Uiso   1.00
O219   O     0.42315   0.32429   0.43767   0.00000  Uiso   1.00
C220   C     0.05022   0.16221   0.54313   0.00000  Uiso   1.00
H221   H     0.05118   0.13397   0.53370   0.00000  Uiso   1.00
O222   O     0.06842   0.17133   0.57134   0.00000  Uiso   1.00
C223   C     0.16232   0.05065   0.45696   0.00000  Uiso   1.00
H224   H     0.13407   0.05181   0.46631   0.00000  Uiso   1.00
O225   O     0.17170   0.06895   0.42894   0.00000  Uiso   1.00
C226   C     0.33619   0.44551   0.53985   0.00000  Uiso   1.00
H227   H     0.36492   0.44564   0.53221   0.00000  Uiso   1.00
O228   O     0.32545   0.42391   0.56443   0.00000  Uiso   1.00
C229   C     0.30471   0.41400   0.96022   0.00000  Uiso   1.00
H230   H     0.30455   0.38530   0.96792   0.00000  Uiso   1.00
O231   O     0.32629   0.42466   0.93558   0.00000  Uiso   1.00
C232   C     0.20315   0.08953   0.04396   0.00000  Uiso   1.00
H233   H     0.18822   0.08119   0.06981   0.00000  Uiso   1.00
O234   O     0.20368   0.12182   0.03518   0.00000  Uiso   1.00
C235   C     0.08784   0.19958   0.95698   0.00000  Uiso   1.00
H236   H     0.11609   0.19849   0.96635   0.00000  Uiso   1.00
O237   O     0.07854   0.18127   0.92893   0.00000  Uiso   1.00
C238   C     0.41365   0.30425   0.03983   0.00000  Uiso   1.00
H239   H     0.38492   0.30398   0.03222   0.00000  Uiso   1.00
O240   O     0.42433   0.32595   0.06434   0.00000  Uiso   1.00
C241   C     0.19587   0.08602   0.96022   0.00000  Uiso   1.00
H242   H     0.19683   0.11515   0.96556   0.00000  Uiso   1.00
O243   O     0.17297   0.07410   0.93768   0.00000  Uiso   1.00
C244   C     0.30044   0.41232   0.04313   0.00000  Uiso   1.00
H245   H     0.30148   0.38410   0.03369   0.00000  Uiso   1.00
O246   O     0.31860   0.42148   0.07135   0.00000  Uiso   1.00
C247   C     0.41221   0.30045   0.95696   0.00000  Uiso   1.00
H248   H     0.38395   0.30154   0.96630   0.00000  Uiso   1.00
O249   O     0.42155   0.31879   0.92895   0.00000  Uiso   1.00
C250   C     0.08631   0.19570   0.03986   0.00000  Uiso   1.00
H251   H     0.11503   0.19589   0.03222   0.00000  Uiso   1.00
O252   O     0.07561   0.17408   0.06444   0.00000  Uiso   1.00
N253   N     0.16180   0.39341   0.17988   0.00000  Uiso   1.00
H254   H     0.17159   0.37130   0.16454   0.00000  Uiso   1.00
C255   C     0.14354   0.41976   0.15518   0.00000  Uiso   1.00
H256   H     0.11942   0.40734   0.14077   0.00000  Uiso   1.00
H257   H     0.16277   0.42936   0.13236   0.00000  Uiso   1.00
H258   H     0.13428   0.44378   0.17221   0.00000  Uiso   1.00
N259   N     0.33423   0.11013   0.81864   0.00000  Uiso   1.00
H260   H     0.34810   0.11106   0.84468   0.00000  Uiso   1.00
C261   C     0.30036   0.13041   0.81983   0.00000  Uiso   1.00
H262   H     0.30595   0.16025   0.81981   0.00000  Uiso   1.00
H263   H     0.28292   0.12338   0.79444   0.00000  Uiso   1.00
H264   H     0.28520   0.12345   0.84680   0.00000  Uiso   1.00
N265   N     0.09831   0.15312   0.17841   0.00000  Uiso   1.00
H266   H     0.11824   0.16117   0.15900   0.00000  Uiso   1.00
C267   C     0.06942   0.13208   0.16018   0.00000  Uiso   1.00
H268   H     0.08066   0.10768   0.14530   0.00000  Uiso   1.00
H269   H     0.05535   0.14931   0.13826   0.00000  Uiso   1.00
H270   H     0.04892   0.12289   0.18194   0.00000  Uiso   1.00
N271   N     0.39710   0.34176   0.82090   0.00000  Uiso   1.00
H272   H     0.39928   0.35837   0.84497   0.00000  Uiso   1.00
C273   C     0.37657   0.30877   0.82876   0.00000  Uiso   1.00
H274   H     0.34695   0.31494   0.83105   0.00000  Uiso   1.00
H275   H     0.38574   0.29680   0.85675   0.00000  Uiso   1.00
H276   H     0.38102   0.28835   0.80532   0.00000  Uiso   1.00
N277   N     0.33893   0.10589   0.17967   0.00000  Uiso   1.00
H278   H     0.32924   0.12783   0.16398   0.00000  Uiso   1.00
C279   C     0.35749   0.07934   0.15546   0.00000  Uiso   1.00
H280   H     0.38167   0.09171   0.14112   0.00000  Uiso   1.00
H281   H     0.33849   0.06942   0.13258   0.00000  Uiso   1.00
H282   H     0.36671   0.05555   0.17287   0.00000  Uiso   1.00
N283   N     0.16542   0.39019   0.81879   0.00000  Uiso   1.00
H284   H     0.15142   0.38943   0.84476   0.00000  Uiso   1.00
C285   C     0.19923   0.36984   0.82029   0.00000  Uiso   1.00
H286   H     0.19359   0.34001   0.82030   0.00000  Uiso   1.00
H287   H     0.21686   0.37678   0.79502   0.00000  Uiso   1.00
H288   H     0.21422   0.37681   0.84737   0.00000  Uiso   1.00
N289   N     0.40102   0.34620   0.17847   0.00000  Uiso   1.00
H290   H     0.38092   0.33796   0.15935   0.00000  Uiso   1.00
C291   C     0.42972   0.36713   0.15975   0.00000  Uiso   1.00
H292   H     0.41829   0.39130   0.14463   0.00000  Uiso   1.00
H293   H     0.44371   0.34968   0.13797   0.00000  Uiso   1.00
H294   H     0.45033   0.37663   0.18124   0.00000  Uiso   1.00
N295   N     0.10349   0.15885   0.82082   0.00000  Uiso   1.00
H296   H     0.10154   0.14244   0.84506   0.00000  Uiso   1.00
C297   C     0.12404   0.19192   0.82817   0.00000  Uiso   1.00
H298   H     0.15369   0.18582   0.83022   0.00000  Uiso   1.00
H299   H     0.11511   0.20410   0.85615   0.00000  Uiso   1.00
H300   H     0.11935   0.21215   0.80460   0.00000  Uiso   1.00
N301   N     0.15377   0.09896   0.82153   0.00000  Uiso   1.00
H302   H     0.16205   0.11908   0.84061   0.00000  Uiso   1.00
C303   C     0.13278   0.07035   0.84033   0.00000  Uiso   1.00
H304   H     0.15003   0.05672   0.86255   0.00000  Uiso   1.00
H305   H     0.12369   0.04945   0.81897   0.00000  Uiso   1.00
H306   H     0.10834   0.08179   0.85493   0.00000  Uiso   1.00
N307   N     0.34122   0.39659   0.17916   0.00000  Uiso   1.00
H308   H     0.35766   0.39850   0.15495   0.00000  Uiso   1.00
C309   C     0.30806   0.37620   0.17175   0.00000  Uiso   1.00
H310   H     0.29585   0.38535   0.14386   0.00000  Uiso   1.00
H311   H     0.28788   0.38081   0.19539   0.00000  Uiso   1.00
H312   H     0.31407   0.34655   0.16948   0.00000  Uiso   1.00
N313   N     0.10594   0.33887   0.82034   0.00000  Uiso   1.00
H314   H     0.12792   0.32921   0.83599   0.00000  Uiso   1.00
C315   C     0.07937   0.35733   0.84460   0.00000  Uiso   1.00
H316   H     0.06950   0.33826   0.86745   0.00000  Uiso   1.00
H317   H     0.05554   0.36653   0.82723   0.00000  Uiso   1.00
H318   H     0.09169   0.38151   0.85899   0.00000  Uiso   1.00
N319   N     0.39011   0.16548   0.18126   0.00000  Uiso   1.00
H320   H     0.38936   0.15150   0.15528   0.00000  Uiso   1.00
C321   C     0.36969   0.19924   0.17981   0.00000  Uiso   1.00
H322   H     0.37659   0.21427   0.15274   0.00000  Uiso   1.00
H323   H     0.37662   0.21687   0.20509   0.00000  Uiso   1.00
H324   H     0.33987   0.19353   0.17983   0.00000  Uiso   1.00
N325   N     0.34693   0.40171   0.82154   0.00000  Uiso   1.00
H326   H     0.33880   0.38178   0.84092   0.00000  Uiso   1.00
C327   C     0.36813   0.43046   0.83980   0.00000  Uiso   1.00
H328   H     0.35110   0.44437   0.86201   0.00000  Uiso   1.00
H329   H     0.37710   0.45112   0.81811   0.00000  Uiso   1.00
H330   H     0.39267   0.41912   0.85432   0.00000  Uiso   1.00
N331   N     0.15797   0.10263   0.17896   0.00000  Uiso   1.00
H332   H     0.14120   0.10036   0.15504   0.00000  Uiso   1.00
C333   C     0.19097   0.12299   0.17071   0.00000  Uiso   1.00
H334   H     0.20260   0.11374   0.14258   0.00000  Uiso   1.00
H335   H     0.21160   0.11845   0.19393   0.00000  Uiso   1.00
H336   H     0.18494   0.15264   0.16846   0.00000  Uiso   1.00
N337   N     0.39367   0.16151   0.82022   0.00000  Uiso   1.00
H338   H     0.37161   0.17123   0.83570   0.00000  Uiso   1.00
C339   C     0.42014   0.14320   0.84474   0.00000  Uiso   1.00
H340   H     0.42987   0.16238   0.86755   0.00000  Uiso   1.00
H341   H     0.44407   0.13395   0.82756   0.00000  Uiso   1.00
H342   H     0.40777   0.11907   0.85918   0.00000  Uiso   1.00
N343   N     0.11049   0.33390   0.18151   0.00000  Uiso   1.00
H344   H     0.11151   0.34766   0.15541   0.00000  Uiso   1.00
C345   C     0.13085   0.30009   0.18062   0.00000  Uiso   1.00
H346   H     0.12413   0.28482   0.15365   0.00000  Uiso   1.00
H347   H     0.12370   0.28272   0.20602   0.00000  Uiso   1.00
H348   H     0.16068   0.30575   0.18085   0.00000  Uiso   1.00
N349   N     0.41147   0.14373   0.67978   0.00000  Uiso   1.00
H350   H     0.42121   0.12169   0.66428   0.00000  Uiso   1.00
C351   C     0.39310   0.17018   0.65529   0.00000  Uiso   1.00
H352   H     0.36895   0.15780   0.64091   0.00000  Uiso   1.00
H353   H     0.41224   0.17991   0.63244   0.00000  Uiso   1.00
H354   H     0.38387   0.19411   0.67248   0.00000  Uiso   1.00
N355   N     0.08391   0.36044   0.31850   0.00000  Uiso   1.00
H356   H     0.09766   0.36150   0.34460   0.00000  Uiso   1.00
C357   C     0.05004   0.38071   0.31940   0.00000  Uiso   1.00
H358   H     0.05561   0.41056   0.31926   0.00000  Uiso   1.00
H359   H     0.03272   0.37357   0.29395   0.00000  Uiso   1.00
H360   H     0.03474   0.37388   0.34632   0.00000  Uiso   1.00
N361   N     0.34826   0.40307   0.67840   0.00000  Uiso   1.00
H362   H     0.36818   0.41110   0.65897   0.00000  Uiso   1.00
C363   C     0.31935   0.38201   0.66022   0.00000  Uiso   1.00
H364   H     0.33058   0.35761   0.64534   0.00000  Uiso   1.00
H365   H     0.30526   0.39923   0.63830   0.00000  Uiso   1.00
H366   H     0.29887   0.37284   0.68201   0.00000  Uiso   1.00
N367   N     0.14705   0.09172   0.32090   0.00000  Uiso   1.00
H368   H     0.14922   0.10831   0.34497   0.00000  Uiso   1.00
C369   C     0.12650   0.05873   0.32871   0.00000  Uiso   1.00
H370   H     0.09687   0.06490   0.33096   0.00000  Uiso   1.00
H371   H     0.13561   0.04676   0.35672   0.00000  Uiso   1.00
H372   H     0.13098   0.03831   0.30528   0.00000  Uiso   1.00
N373   N     0.08902   0.35581   0.67964   0.00000  Uiso   1.00
H374   H     0.07935   0.37773   0.66392   0.00000  Uiso   1.00
C375   C     0.10761   0.32924   0.65549   0.00000  Uiso   1.00
H376   H     0.13183   0.34159   0.64119   0.00000  Uiso   1.00
H377   H     0.08865   0.31931   0.63257   0.00000  Uiso   1.00
H378   H     0.11679   0.30545   0.67293   0.00000  Uiso   1.00
N379   N     0.41551   0.14011   0.31876   0.00000  Uiso   1.00
H380   H     0.40153   0.13931   0.34474   0.00000  Uiso   1.00
C381   C     0.44931   0.11975   0.32018   0.00000  Uiso   1.00
H382   H     0.44366   0.08992   0.32015   0.00000  Uiso   1.00
H383   H     0.46691   0.12671   0.29490   0.00000  Uiso   1.00
H384   H     0.46433   0.12667   0.34725   0.00000  Uiso   1.00
N385   N     0.15104   0.09623   0.67847   0.00000  Uiso   1.00
H386   H     0.13096   0.08799   0.65933   0.00000  Uiso   1.00
C387   C     0.17976   0.11715   0.65978   0.00000  Uiso   1.00
H388   H     0.16834   0.14129   0.64459   0.00000  Uiso   1.00
H389   H     0.19381   0.09968   0.63806   0.00000  Uiso   1.00
H390   H     0.20033   0.12670   0.68129   0.00000  Uiso   1.00
N391   N     0.35354   0.40889   0.32081   0.00000  Uiso   1.00
H392   H     0.35160   0.39249   0.34506   0.00000  Uiso   1.00
C393   C     0.37410   0.44196   0.32813   0.00000  Uiso   1.00
H394   H     0.40376   0.43585   0.33014   0.00000  Uiso   1.00
H395   H     0.36521   0.45415   0.35612   0.00000  Uiso   1.00
H396   H     0.36940   0.46218   0.30456   0.00000  Uiso   1.00
N397   N     0.40382   0.34900   0.32153   0.00000  Uiso   1.00
H398   H     0.41210   0.36913   0.34059   0.00000  Uiso   1.00
C399   C     0.38284   0.32040   0.34036   0.00000  Uiso   1.00
H400   H     0.40010   0.30680   0.36259   0.00000  Uiso   1.00
H401   H     0.37374   0.29948   0.31903   0.00000  Uiso   1.00
H402   H     0.35839   0.33185   0.35497   0.00000  Uiso   1.00
N403   N     0.09126   0.14664   0.67915   0.00000  Uiso   1.00
H404   H     0.10772   0.14856   0.65495   0.00000  Uiso   1.00
C405   C     0.05809   0.12628   0.67170   0.00000  Uiso   1.00
H406   H     0.04589   0.13548   0.64383   0.00000  Uiso   1.00
H407   H     0.03792   0.13087   0.69535   0.00000  Uiso   1.00
H408   H     0.06408   0.09662   0.66939   0.00000  Uiso   1.00
N409   N     0.35603   0.08878   0.32031   0.00000  Uiso   1.00
H410   H     0.37802   0.07911   0.33593   0.00000  Uiso   1.00
C411   C     0.32948   0.10721   0.34463   0.00000  Uiso   1.00
H412   H     0.31965   0.08812   0.36748   0.00000  Uiso   1.00
H413   H     0.30563   0.11641   0.32731   0.00000  Uiso   1.00
H414   H     0.34181   0.13138   0.35902   0.00000  Uiso   1.00
N415   N     0.14020   0.41540   0.68122   0.00000  Uiso   1.00
H416   H     0.13947   0.40139   0.65526   0.00000  Uiso   1.00
C417   C     0.11978   0.44917   0.67971   0.00000  Uiso   1.00
H418   H     0.12671   0.46416   0.65263   0.00000  Uiso   1.00
H419   H     0.12667   0.46682   0.70497   0.00000  Uiso   1.00
H420   H     0.08996   0.44346   0.67970   0.00000  Uiso   1.00
N421   N     0.09687   0.15166   0.32154   0.00000  Uiso   1.00
H422   H     0.08874   0.13172   0.34090   0.00000  Uiso   1.00
C423   C     0.11806   0.18040   0.33984   0.00000  Uiso   1.00
H424   H     0.10101   0.19429   0.36205   0.00000  Uiso   1.00
H425   H     0.12704   0.20108   0.31818   0.00000  Uiso   1.00
H426   H     0.14259   0.16905   0.35437   0.00000  Uiso   1.00
N427   N     0.40791   0.35257   0.67895   0.00000  Uiso   1.00
H428   H     0.39113   0.35028   0.65504   0.00000  Uiso   1.00
C429   C     0.44092   0.37290   0.67066   0.00000  Uiso   1.00
H430   H     0.45254   0.36360   0.64254   0.00000  Uiso   1.00
H431   H     0.46155   0.36840   0.69387   0.00000  Uiso   1.00
H432   H     0.43489   0.40255   0.66834   0.00000  Uiso   1.00
N433   N     0.14334   0.41185   0.32011   0.00000  Uiso   1.00
H434   H     0.12121   0.42163   0.33543   0.00000  Uiso   1.00
C435   C     0.16971   0.39366   0.34485   0.00000  Uiso   1.00
H436   H     0.17931   0.41294   0.36763   0.00000  Uiso   1.00
H437   H     0.19373   0.38437   0.32785   0.00000  Uiso   1.00
H438   H     0.15730   0.36958   0.35933   0.00000  Uiso   1.00
N439   N     0.36017   0.08422   0.68137   0.00000  Uiso   1.00
H440   H     0.36106   0.09810   0.65533   0.00000  Uiso   1.00
C441   C     0.38055   0.05042   0.68019   0.00000  Uiso   1.00
H442   H     0.37371   0.03528   0.65317   0.00000  Uiso   1.00
H443   H     0.37350   0.03292   0.70553   0.00000  Uiso   1.00
H444   H     0.41037   0.05608   0.68030   0.00000  Uiso   1.00
C445   C     0.49466   0.31893   0.39759   0.00000  Uiso   1.00
H446   H     0.00491   0.34283   0.41282   0.00000  Uiso   1.00
O447   O     0.48366   0.32258   0.36425   0.00000  Uiso   1.00
C448   C     0.49410   0.18205   0.60201   0.00000  Uiso   1.00
H449   H     0.49683   0.17986   0.63337   0.00000  Uiso   1.00
O450   O     0.48212   0.15578   0.58415   0.00000  Uiso   1.00
C451   C     0.18180   0.49481   0.39763   0.00000  Uiso   1.00
H452   H     0.17980   0.49774   0.36627   0.00000  Uiso   1.00
O453   O     0.15531   0.48304   0.41526   0.00000  Uiso   1.00
C454   C     0.31880   0.49483   0.60206   0.00000  Uiso   1.00
H455   H     0.34257   0.00490   0.58650   0.00000  Uiso   1.00
O456   O     0.32266   0.48437   0.63557   0.00000  Uiso   1.00
C457   C     0.00512   0.18137   0.39812   0.00000  Uiso   1.00
H458   H     0.49494   0.15769   0.41376   0.00000  Uiso   1.00
O459   O     0.01556   0.17737   0.36463   0.00000  Uiso   1.00
C460   C     0.00667   0.31820   0.60301   0.00000  Uiso   1.00
H461   H     0.00231   0.32034   0.63416   0.00000  Uiso   1.00
O462   O     0.02052   0.34409   0.58608   0.00000  Uiso   1.00
C463   C     0.31821   0.00521   0.39762   0.00000  Uiso   1.00
H464   H     0.32021   0.00226   0.36627   0.00000  Uiso   1.00
O465   O     0.34469   0.01703   0.41525   0.00000  Uiso   1.00
C466   C     0.18120   0.00518   0.60206   0.00000  Uiso   1.00
H467   H     0.15742   0.49511   0.58650   0.00000  Uiso   1.00
O468   O     0.17734   0.01562   0.63557   0.00000  Uiso   1.00
C469   C     0.24450   0.06892   0.89760   0.00000  Uiso   1.00
H470   H     0.25469   0.09284   0.91284   0.00000  Uiso   1.00
O471   O     0.23352   0.07255   0.86426   0.00000  Uiso   1.00
C472   C     0.24426   0.43203   0.10200   0.00000  Uiso   1.00
H473   H     0.24698   0.42986   0.13337   0.00000  Uiso   1.00
O474   O     0.23237   0.40573   0.08415   0.00000  Uiso   1.00
C475   C     0.43181   0.24467   0.89762   0.00000  Uiso   1.00
H476   H     0.42980   0.24762   0.86627   0.00000  Uiso   1.00
O477   O     0.40534   0.23282   0.91525   0.00000  Uiso   1.00
C478   C     0.06881   0.24498   0.10207   0.00000  Uiso   1.00
H479   H     0.09256   0.25511   0.08651   0.00000  Uiso   1.00
O480   O     0.07268   0.23453   0.13557   0.00000  Uiso   1.00
C481   C     0.25526   0.43138   0.89813   0.00000  Uiso   1.00
H482   H     0.24515   0.40767   0.91379   0.00000  Uiso   1.00
O483   O     0.26567   0.42740   0.86463   0.00000  Uiso   1.00
C484   C     0.25654   0.06821   0.10301   0.00000  Uiso   1.00
H485   H     0.25219   0.07034   0.13416   0.00000  Uiso   1.00
O486   O     0.27031   0.09413   0.08607   0.00000  Uiso   1.00
C487   C     0.06820   0.25533   0.89762   0.00000  Uiso   1.00
H488   H     0.07021   0.25236   0.86627   0.00000  Uiso   1.00
O489   O     0.09465   0.26720   0.91524   0.00000  Uiso   1.00
C490   C     0.43120   0.25505   0.10207   0.00000  Uiso   1.00
H491   H     0.40744   0.24491   0.08653   0.00000  Uiso   1.00
O492   O     0.42732   0.26553   0.13557   0.00000  Uiso   1.00
C493   C     0.99328   0.28302   0.41828   0.00000  Uiso   1.00
C494   C     0.50252   0.21705   0.58158   0.00000  Uiso   1.00
C495   C     0.71680   0.00271   0.41829   0.00000  Uiso   1.00
C496   C     0.78278   0.49302   0.58163   0.00000  Uiso   1.00
C497   C     0.50711   0.21744   0.41844   0.00000  Uiso   1.00
C498   C     0.99831   0.28356   0.58189   0.00000  Uiso   1.00
C499   C     0.78322   0.49730   0.41829   0.00000  Uiso   1.00
C500   C     0.71722   0.00698   0.58163   0.00000  Uiso   1.00
C501   C     0.74320   0.03300   0.91829   0.00000  Uiso   1.00
C502   C     0.75261   0.46705   0.08158   0.00000  Uiso   1.00
C503   C     0.96679   0.25263   0.91829   0.00000  Uiso   1.00
C504   C     0.53279   0.24309   0.08163   0.00000  Uiso   1.00
C505   C     0.75718   0.46745   0.91844   0.00000  Uiso   1.00
C506   C     0.74824   0.03356   0.08189   0.00000  Uiso   1.00
C507   C     0.53322   0.24736   0.91829   0.00000  Uiso   1.00
C508   C     0.96721   0.25692   0.08163   0.00000  Uiso   1.00
C509   C     0.50005   0.25015   0.39812   0.00000  Uiso   1.00
C510   C     0.50009   0.25019   0.60198   0.00000  Uiso   1.00
C511   C     0.75001  -0.00000   0.39802   0.00000  Uiso   1.00
C512   C     0.75000   0.00000   0.60188   0.00000  Uiso   1.00
C513   C     0.75005   0.00015   0.89812   0.00000  Uiso   1.00
C514   C     0.75009   0.00019   0.10198   0.00000  Uiso   1.00
C515   C     0.50001   0.25000   0.89802   0.00000  Uiso   1.00
C516   C     0.50000   0.25000   0.10188   0.00000  Uiso   1.00
C517   C     0.52977   0.19015   0.48024   0.00000  Uiso   1.00
C518   C     0.97432   0.31193   0.52133   0.00000  Uiso   1.00
C519   C     0.81061   0.47193   0.47870   0.00000  Uiso   1.00
C520   C     0.68994   0.02962   0.51979   0.00000  Uiso   1.00
C521   C     0.97173   0.31082   0.48024   0.00000  Uiso   1.00
C522   C     0.52806   0.18957   0.52133   0.00000  Uiso   1.00
C523   C     0.68941   0.02808   0.47869   0.00000  Uiso   1.00
C524   C     0.81006   0.47036   0.51980   0.00000  Uiso   1.00
C525   C     0.77991   0.44022   0.98024   0.00000  Uiso   1.00
C526   C     0.72418   0.06186   0.02134   0.00000  Uiso   1.00
C527   C     0.56067   0.22205   0.97870   0.00000  Uiso   1.00
C528   C     0.93987   0.27949   0.01979   0.00000  Uiso   1.00
C529   C     0.72159   0.06075   0.98024   0.00000  Uiso   1.00
C530   C     0.77821   0.43964   0.02133   0.00000  Uiso   1.00
C531   C     0.93935   0.27794   0.97869   0.00000  Uiso   1.00
C532   C     0.56012   0.22049   0.01981   0.00000  Uiso   1.00
C533   C     0.75000  -0.00000   0.35572   0.00000  Uiso   1.00
C534   C     0.75000  -0.00000   0.64424   0.00000  Uiso   1.00
C535   C     0.50000   0.25003   0.35576   0.00000  Uiso   1.00
C536   C     0.50001   0.24998   0.64428   0.00000  Uiso   1.00
C537   C     0.50001   0.25000   0.85572   0.00000  Uiso   1.00
C538   C     0.50000   0.25000   0.14424   0.00000  Uiso   1.00
C539   C     0.75000   0.00003   0.85576   0.00000  Uiso   1.00
C540   C     0.75001   0.49998   0.14428   0.00000  Uiso   1.00
C541   C     0.68002   0.06999   0.24998   0.00000  Uiso   1.00
C542   C     0.82006   0.42995   0.74999   0.00000  Uiso   1.00
C543   C     0.93002   0.18002   0.25000   0.00000  Uiso   1.00
C544   C     0.57004   0.32003   0.75000   0.00000  Uiso   1.00
C545   C     0.81999   0.43002   0.25000   0.00000  Uiso   1.00
C546   C     0.67994   0.07005   0.75000   0.00000  Uiso   1.00
C547   C     0.56998   0.31997   0.25000   0.00000  Uiso   1.00
C548   C     0.92996   0.17997   0.75000   0.00000  Uiso   1.00
C549   C     0.68002   0.43002   0.75000   0.00000  Uiso   1.00
C550   C     0.82004   0.07003   0.25000   0.00000  Uiso   1.00
C551   C     0.93002   0.31999   0.74998   0.00000  Uiso   1.00
C552   C     0.57006   0.17995   0.24999   0.00000  Uiso   1.00
C553   C     0.81998   0.06997   0.75000   0.00000  Uiso   1.00
C554   C     0.67996   0.42997   0.25000   0.00000  Uiso   1.00
C555   C     0.56999   0.18002   0.75000   0.00000  Uiso   1.00
C556   C     0.92994   0.32005   0.25000   0.00000  Uiso   1.00
C557   C     0.64275   0.38418   0.21480   0.00000  Uiso   1.00
C558   C     0.85581   0.11683   0.78476   0.00000  Uiso   1.00
C559   C     0.61174   0.13853   0.21418   0.00000  Uiso   1.00
C560   C     0.88702   0.35969   0.78561   0.00000  Uiso   1.00
C561   C     0.85760   0.11547   0.21471   0.00000  Uiso   1.00
C562   C     0.64400   0.38335   0.78483   0.00000  Uiso   1.00
C563   C     0.88790   0.36112   0.21421   0.00000  Uiso   1.00
C564   C     0.61330   0.14063   0.78560   0.00000  Uiso   1.00
C565   C     0.63885   0.11207   0.78579   0.00000  Uiso   1.00
C566   C     0.85936   0.38669   0.21440   0.00000  Uiso   1.00
C567   C     0.61547   0.35760   0.78532   0.00000  Uiso   1.00
C568   C     0.88333   0.14402   0.21520   0.00000  Uiso   1.00
C569   C     0.86148   0.38826   0.78577   0.00000  Uiso   1.00
C570   C     0.64027   0.11295   0.21432   0.00000  Uiso   1.00
C571   C     0.88433   0.14259   0.78526   0.00000  Uiso   1.00
C572   C     0.61700   0.35566   0.21531   0.00000  Uiso   1.00
C573   C     0.89258   0.13435   0.71475   0.00000  Uiso   1.00
C574   C     0.60565   0.36699   0.28469   0.00000  Uiso   1.00
C575   C     0.86171   0.38850   0.71417   0.00000  Uiso   1.00
C576   C     0.63700   0.10967   0.28560   0.00000  Uiso   1.00
C577   C     0.60765   0.36543   0.71469   0.00000  Uiso   1.00
C578   C     0.89404   0.13331   0.28481   0.00000  Uiso   1.00
C579   C     0.63791   0.11113   0.71421   0.00000  Uiso   1.00
C580   C     0.86332   0.39065   0.28560   0.00000  Uiso   1.00
C581   C     0.88887   0.36208   0.28579   0.00000  Uiso   1.00
C582   C     0.60937   0.13671   0.71439   0.00000  Uiso   1.00
C583   C     0.86552   0.10756   0.28530   0.00000  Uiso   1.00
C584   C     0.63337   0.39398   0.71518   0.00000  Uiso   1.00
C585   C     0.61146   0.13824   0.28577   0.00000  Uiso   1.00
C586   C     0.89025   0.36292   0.71431   0.00000  Uiso   1.00
C587   C     0.63416   0.39276   0.28521   0.00000  Uiso   1.00
C588   C     0.86683   0.10582   0.71525   0.00000  Uiso   1.00
C589   C     0.51243   0.21890   0.45927   0.00000  Uiso   1.00
C590   C     0.99153   0.28272   0.54129   0.00000  Uiso   1.00
C591   C     0.78196   0.49002   0.45874   0.00000  Uiso   1.00
C592   C     0.71858   0.01209   0.54077   0.00000  Uiso   1.00
C593   C     0.98873   0.28190   0.45924   0.00000  Uiso   1.00
C594   C     0.51018   0.21839   0.54123   0.00000  Uiso   1.00
C595   C     0.71806   0.00998   0.45874   0.00000  Uiso   1.00
C596   C     0.78142   0.48791   0.54077   0.00000  Uiso   1.00
C597   C     0.76251   0.46893   0.95927   0.00000  Uiso   1.00
C598   C     0.74146   0.03270   0.04129   0.00000  Uiso   1.00
C599   C     0.53197   0.24008   0.95874   0.00000  Uiso   1.00
C600   C     0.96856   0.26202   0.04077   0.00000  Uiso   1.00
C601   C     0.73866   0.03187   0.95924   0.00000  Uiso   1.00
C602   C     0.76026   0.46841   0.04123   0.00000  Uiso   1.00
C603   C     0.96804   0.25991   0.95874   0.00000  Uiso   1.00
C604   C     0.53144   0.23797   0.04077   0.00000  Uiso   1.00
C605   C     0.59803   0.34803   0.25000   0.00000  Uiso   1.00
C606   C     0.90183   0.15184   0.75001   0.00000  Uiso   1.00
C607   C     0.65197   0.09803   0.24997   0.00000  Uiso   1.00
C608   C     0.84821   0.40180   0.74998   0.00000  Uiso   1.00
C609   C     0.90197   0.15197   0.25001   0.00000  Uiso   1.00
C610   C     0.59818   0.34815   0.75001   0.00000  Uiso   1.00
C611   C     0.84803   0.40197   0.25000   0.00000  Uiso   1.00
C612   C     0.65178   0.09819   0.75000   0.00000  Uiso   1.00
C613   C     0.59803   0.15197   0.75000   0.00000  Uiso   1.00
C614   C     0.90178   0.34820   0.25000   0.00000  Uiso   1.00
C615   C     0.65197   0.40197   0.75001   0.00000  Uiso   1.00
C616   C     0.84818   0.09815   0.25001   0.00000  Uiso   1.00
C617   C     0.90197   0.34803   0.74996   0.00000  Uiso   1.00
C618   C     0.59821   0.15180   0.24998   0.00000  Uiso   1.00
C619   C     0.84803   0.09803   0.75000   0.00000  Uiso   1.00
C620   C     0.65183   0.40184   0.25000   0.00000  Uiso   1.00
C621   C     0.50075   0.25049   0.47968   0.00000  Uiso   1.00
C622   C     0.50084   0.25055   0.52064   0.00000  Uiso   1.00
C623   C     0.75001  -0.00000   0.47937   0.00000  Uiso   1.00
C624   C     0.75000  -0.00000   0.52033   0.00000  Uiso   1.00
C625   C     0.75075   0.00049   0.97969   0.00000  Uiso   1.00
C626   C     0.75084   0.00055   0.02064   0.00000  Uiso   1.00
C627   C     0.50001   0.24999   0.97937   0.00000  Uiso   1.00
C628   C     0.50000   0.25000   0.02033   0.00000  Uiso   1.00
O629   O     0.75000  -0.00000   0.25000   0.00000  Uiso   1.00
O630   O     0.75000  -0.00000   0.75000   0.00000  Uiso   1.00
O631   O     0.50000   0.25000   0.25000   0.00000  Uiso   1.00
O632   O     0.50000   0.25000   0.75000   0.00000  Uiso   1.00
O633   O     0.75000   0.46963   0.33755   0.00000  Uiso   1.00
O634   O     0.75000   0.03036   0.66245   0.00000  Uiso   1.00
O635   O     0.53037   0.25000   0.33755   0.00000  Uiso   1.00
O636   O     0.96964   0.25000   0.66245   0.00000  Uiso   1.00
O637   O     0.75000   0.03036   0.33755   0.00000  Uiso   1.00
O638   O     0.75000   0.46963   0.66245   0.00000  Uiso   1.00
O639   O     0.96964   0.25000   0.33755   0.00000  Uiso   1.00
O640   O     0.53037   0.25000   0.66245   0.00000  Uiso   1.00
O641   O     0.50000   0.21963   0.83755   0.00000  Uiso   1.00
O642   O     0.50000   0.28036   0.16245   0.00000  Uiso   1.00
O643   O     0.78037  -0.00000   0.83755   0.00000  Uiso   1.00
O644   O     0.71964  -0.00000   0.16245   0.00000  Uiso   1.00
O645   O     0.50000   0.28036   0.83755   0.00000  Uiso   1.00
O646   O     0.50000   0.21963   0.16245   0.00000  Uiso   1.00
O647   O     0.71964  -0.00000   0.83755   0.00000  Uiso   1.00
O648   O     0.78037  -0.00000   0.16245   0.00000  Uiso   1.00
O649   O     0.70725   0.07307   0.27302   0.00000  Uiso   1.00
O650   O     0.79276   0.42692   0.72698   0.00000  Uiso   1.00
O651   O     0.92693   0.20724   0.27302   0.00000  Uiso   1.00
O652   O     0.57308   0.29275   0.72698   0.00000  Uiso   1.00
O653   O     0.79276   0.42692   0.27302   0.00000  Uiso   1.00
O654   O     0.70725   0.07307   0.72698   0.00000  Uiso   1.00
O655   O     0.57308   0.29275   0.27302   0.00000  Uiso   1.00
O656   O     0.92693   0.20724   0.72698   0.00000  Uiso   1.00
O657   O     0.70725   0.42692   0.72698   0.00000  Uiso   1.00
O658   O     0.79276   0.07307   0.27302   0.00000  Uiso   1.00
O659   O     0.92693   0.29275   0.72698   0.00000  Uiso   1.00
O660   O     0.57308   0.20724   0.27302   0.00000  Uiso   1.00
O661   O     0.79276   0.07307   0.72698   0.00000  Uiso   1.00
O662   O     0.70725   0.42692   0.27302   0.00000  Uiso   1.00
O663   O     0.57308   0.20724   0.72698   0.00000  Uiso   1.00
O664   O     0.92693   0.29275   0.27302   0.00000  Uiso   1.00
O665   O     0.95725   0.32307   0.77302   0.00000  Uiso   1.00
O666   O     0.54276   0.17692   0.22698   0.00000  Uiso   1.00
O667   O     0.67693   0.45724   0.77302   0.00000  Uiso   1.00
O668   O     0.82308   0.04275   0.22698   0.00000  Uiso   1.00
O669   O     0.54276   0.17692   0.77302   0.00000  Uiso   1.00
O670   O     0.95725   0.32307   0.22698   0.00000  Uiso   1.00
O671   O     0.82308   0.04275   0.77302   0.00000  Uiso   1.00
O672   O     0.67693   0.45724   0.22698   0.00000  Uiso   1.00
O673   O     0.95725   0.17692   0.22698   0.00000  Uiso   1.00
O674   O     0.54276   0.32307   0.77302   0.00000  Uiso   1.00
O675   O     0.67693   0.04275   0.22698   0.00000  Uiso   1.00
O676   O     0.82308   0.45724   0.77302   0.00000  Uiso   1.00
O677   O     0.54276   0.32307   0.22698   0.00000  Uiso   1.00
O678   O     0.95725   0.17692   0.77302   0.00000  Uiso   1.00
O679   O     0.82308   0.45724   0.22698   0.00000  Uiso   1.00
O680   O     0.67693   0.04275   0.77302   0.00000  Uiso   1.00
Zn681  Zn    0.70660  -0.00000   0.21735   0.00000  Uiso   1.00
Zn682  Zn    0.79341  -0.00000   0.78265   0.00000  Uiso   1.00
Zn683  Zn    0.50000   0.20659   0.21735   0.00000  Uiso   1.00
Zn684  Zn    0.50000   0.29340   0.78265   0.00000  Uiso   1.00
Zn685  Zn    0.79341  -0.00000   0.21735   0.00000  Uiso   1.00
Zn686  Zn    0.70660  -0.00000   0.78265   0.00000  Uiso   1.00
Zn687  Zn    0.50000   0.29340   0.21735   0.00000  Uiso   1.00
Zn688  Zn    0.50000   0.20659   0.78265   0.00000  Uiso   1.00
Zn689  Zn    0.95660   0.25000   0.71735   0.00000  Uiso   1.00
Zn690  Zn    0.54341   0.25000   0.28265   0.00000  Uiso   1.00
Zn691  Zn    0.75000   0.45659   0.71735   0.00000  Uiso   1.00
Zn692  Zn    0.75000   0.04340   0.28265   0.00000  Uiso   1.00
Zn693  Zn    0.54341   0.25000   0.71735   0.00000  Uiso   1.00
Zn694  Zn    0.95660   0.25000   0.28265   0.00000  Uiso   1.00
Zn695  Zn    0.75000   0.04340   0.71735   0.00000  Uiso   1.00
Zn696  Zn    0.75000   0.45659   0.28265   0.00000  Uiso   1.00
C697   C     0.55450   0.16387   0.46023   0.00000  Uiso   1.00
H698   H     0.55427   0.13517   0.46793   0.00000  Uiso   1.00
O699   O     0.57612   0.17448   0.43560   0.00000  Uiso   1.00
C700   C     0.95335   0.33964   0.54396   0.00000  Uiso   1.00
H701   H     0.93840   0.33133   0.56980   0.00000  Uiso   1.00
O702   O     0.95396   0.37193   0.53518   0.00000  Uiso   1.00
C703   C     0.83775   0.44941   0.45697   0.00000  Uiso   1.00
H704   H     0.86599   0.44827   0.46635   0.00000  Uiso   1.00
O705   O     0.82842   0.43114   0.42891   0.00000  Uiso   1.00
C706   C     0.66377   0.05445   0.53984   0.00000  Uiso   1.00
H707   H     0.63504   0.05424   0.53222   0.00000  Uiso   1.00
O708   O     0.67450   0.07611   0.56435   0.00000  Uiso   1.00
C709   C     0.94607   0.33615   0.46022   0.00000  Uiso   1.00
H710   H     0.94711   0.36528   0.46555   0.00000  Uiso   1.00
O711   O     0.92315   0.32429   0.43767   0.00000  Uiso   1.00
C712   C     0.55022   0.16221   0.54313   0.00000  Uiso   1.00
H713   H     0.55118   0.13397   0.53370   0.00000  Uiso   1.00
O714   O     0.56842   0.17133   0.57134   0.00000  Uiso   1.00
C715   C     0.66232   0.05065   0.45696   0.00000  Uiso   1.00
H716   H     0.63407   0.05181   0.46631   0.00000  Uiso   1.00
O717   O     0.67170   0.06895   0.42894   0.00000  Uiso   1.00
C718   C     0.83619   0.44551   0.53985   0.00000  Uiso   1.00
H719   H     0.86492   0.44564   0.53221   0.00000  Uiso   1.00
O720   O     0.82545   0.42391   0.56443   0.00000  Uiso   1.00
C721   C     0.80471   0.41400   0.96022   0.00000  Uiso   1.00
H722   H     0.80455   0.38530   0.96792   0.00000  Uiso   1.00
O723   O     0.82629   0.42466   0.93558   0.00000  Uiso   1.00
C724   C     0.70315   0.08953   0.04396   0.00000  Uiso   1.00
H725   H     0.68822   0.08119   0.06981   0.00000  Uiso   1.00
O726   O     0.70368   0.12182   0.03518   0.00000  Uiso   1.00
C727   C     0.58784   0.19958   0.95698   0.00000  Uiso   1.00
H728   H     0.61609   0.19849   0.96635   0.00000  Uiso   1.00
O729   O     0.57854   0.18127   0.92893   0.00000  Uiso   1.00
C730   C     0.91365   0.30425   0.03983   0.00000  Uiso   1.00
H731   H     0.88492   0.30398   0.03222   0.00000  Uiso   1.00
O732   O     0.92433   0.32595   0.06434   0.00000  Uiso   1.00
C733   C     0.69587   0.08602   0.96022   0.00000  Uiso   1.00
H734   H     0.69683   0.11515   0.96556   0.00000  Uiso   1.00
O735   O     0.67297   0.07410   0.93768   0.00000  Uiso   1.00
C736   C     0.80044   0.41232   0.04313   0.00000  Uiso   1.00
H737   H     0.80148   0.38410   0.03369   0.00000  Uiso   1.00
O738   O     0.81860   0.42148   0.07135   0.00000  Uiso   1.00
C739   C     0.91221   0.30045   0.95696   0.00000  Uiso   1.00
H740   H     0.88395   0.30154   0.96630   0.00000  Uiso   1.00
O741   O     0.92155   0.31879   0.92895   0.00000  Uiso   1.00
C742   C     0.58631   0.19570   0.03986   0.00000  Uiso   1.00
H743   H     0.61503   0.19589   0.03222   0.00000  Uiso   1.00
O744   O     0.57561   0.17408   0.06444   0.00000  Uiso   1.00
N745   N     0.66180   0.39341   0.17988   0.00000  Uiso   1.00
H746   H     0.67159   0.37130   0.16454   0.00000  Uiso   1.00
C747   C     0.64354   0.41976   0.15518   0.00000  Uiso   1.00
H748   H     0.61942   0.40734   0.14077   0.00000  Uiso   1.00
H749   H     0.66277   0.42936   0.13236   0.00000  Uiso   1.00
H750   H     0.63428   0.44378   0.17221   0.00000  Uiso   1.00
N751   N     0.83423   0.11013   0.81864   0.00000  Uiso   1.00
H752   H     0.84810   0.11106   0.84468   0.00000  Uiso   1.00
C753   C     0.80036   0.13041   0.81983   0.00000  Uiso   1.00
H754   H     0.80595   0.16025   0.81981   0.00000  Uiso   1.00
H755   H     0.78292   0.12338   0.79444   0.00000  Uiso   1.00
H756   H     0.78520   0.12345   0.84680   0.00000  Uiso   1.00
N757   N     0.59831   0.15312   0.17841   0.00000  Uiso   1.00
H758   H     0.61824   0.16117   0.15900   0.00000  Uiso   1.00
C759   C     0.56942   0.13208   0.16018   0.00000  Uiso   1.00
H760   H     0.58066   0.10768   0.14530   0.00000  Uiso   1.00
H761   H     0.55535   0.14931   0.13826   0.00000  Uiso   1.00
H762   H     0.54892   0.12289   0.18194   0.00000  Uiso   1.00
N763   N     0.89710   0.34176   0.82090   0.00000  Uiso   1.00
H764   H     0.89928   0.35837   0.84497   0.00000  Uiso   1.00
C765   C     0.87657   0.30877   0.82876   0.00000  Uiso   1.00
H766   H     0.84695   0.31494   0.83105   0.00000  Uiso   1.00
H767   H     0.88574   0.29680   0.85675   0.00000  Uiso   1.00
H768   H     0.88102   0.28835   0.80532   0.00000  Uiso   1.00
N769   N     0.83893   0.10589   0.17967   0.00000  Uiso   1.00
H770   H     0.82924   0.12783   0.16398   0.00000  Uiso   1.00
C771   C     0.85749   0.07934   0.15546   0.00000  Uiso   1.00
H772   H     0.88167   0.09171   0.14112   0.00000  Uiso   1.00
H773   H     0.83849   0.06942   0.13258   0.00000  Uiso   1.00
H774   H     0.86671   0.05555   0.17287   0.00000  Uiso   1.00
N775   N     0.66542   0.39019   0.81879   0.00000  Uiso   1.00
H776   H     0.65142   0.38943   0.84476   0.00000  Uiso   1.00
C777   C     0.69923   0.36984   0.82029   0.00000  Uiso   1.00
H778   H     0.69359   0.34001   0.82030   0.00000  Uiso   1.00
H779   H     0.71686   0.37678   0.79502   0.00000  Uiso   1.00
H780   H     0.71422   0.37681   0.84737   0.00000  Uiso   1.00
N781   N     0.90102   0.34620   0.17847   0.00000  Uiso   1.00
H782   H     0.88092   0.33796   0.15935   0.00000  Uiso   1.00
C783   C     0.92972   0.36713   0.15975   0.00000  Uiso   1.00
H784   H     0.91829   0.39130   0.14463   0.00000  Uiso   1.00
H785   H     0.94371   0.34968   0.13797   0.00000  Uiso   1.00
H786   H     0.95033   0.37663   0.18124   0.00000  Uiso   1.00
N787   N     0.60349   0.15885   0.82082   0.00000  Uiso   1.00
H788   H     0.60154   0.14244   0.84506   0.00000  Uiso   1.00
C789   C     0.62404   0.19192   0.82817   0.00000  Uiso   1.00
H790   H     0.65369   0.18582   0.83022   0.00000  Uiso   1.00
H791   H     0.61511   0.20410   0.85615   0.00000  Uiso   1.00
H792   H     0.61935   0.21215   0.80460   0.00000  Uiso   1.00
N793   N     0.65377   0.09896   0.82153   0.00000  Uiso   1.00
H794   H     0.66205   0.11908   0.84061   0.00000  Uiso   1.00
C795   C     0.63278   0.07035   0.84033   0.00000  Uiso   1.00
H796   H     0.65003   0.05672   0.86255   0.00000  Uiso   1.00
H797   H     0.62369   0.04945   0.81897   0.00000  Uiso   1.00
H798   H     0.60834   0.08179   0.85493   0.00000  Uiso   1.00
N799   N     0.84122   0.39659   0.17916   0.00000  Uiso   1.00
H800   H     0.85766   0.39850   0.15495   0.00000  Uiso   1.00
C801   C     0.80806   0.37620   0.17175   0.00000  Uiso   1.00
H802   H     0.79585   0.38535   0.14386   0.00000  Uiso   1.00
H803   H     0.78788   0.38081   0.19539   0.00000  Uiso   1.00
H804   H     0.81407   0.34655   0.16948   0.00000  Uiso   1.00
N805   N     0.60594   0.33887   0.82034   0.00000  Uiso   1.00
H806   H     0.62792   0.32921   0.83599   0.00000  Uiso   1.00
C807   C     0.57937   0.35733   0.84460   0.00000  Uiso   1.00
H808   H     0.56950   0.33826   0.86745   0.00000  Uiso   1.00
H809   H     0.55554   0.36653   0.82723   0.00000  Uiso   1.00
H810   H     0.59169   0.38151   0.85899   0.00000  Uiso   1.00
N811   N     0.89011   0.16548   0.18126   0.00000  Uiso   1.00
H812   H     0.88936   0.15150   0.15528   0.00000  Uiso   1.00
C813   C     0.86969   0.19924   0.17981   0.00000  Uiso   1.00
H814   H     0.87659   0.21427   0.15274   0.00000  Uiso   1.00
H815   H     0.87662   0.21687   0.20509   0.00000  Uiso   1.00
H816   H     0.83987   0.19353   0.17983   0.00000  Uiso   1.00
N817   N     0.84693   0.40171   0.82154   0.00000  Uiso   1.00
H818   H     0.83880   0.38178   0.84092   0.00000  Uiso   1.00
C819   C     0.86813   0.43046   0.83980   0.00000  Uiso   1.00
H820   H     0.85110   0.44437   0.86201   0.00000  Uiso   1.00
H821   H     0.87710   0.45112   0.81811   0.00000  Uiso   1.00
H822   H     0.89267   0.41912   0.85432   0.00000  Uiso   1.00
N823   N     0.65797   0.10263   0.17896   0.00000  Uiso   1.00
H824   H     0.64120   0.10036   0.15504   0.00000  Uiso   1.00
C825   C     0.69097   0.12299   0.17071   0.00000  Uiso   1.00
H826   H     0.70260   0.11374   0.14258   0.00000  Uiso   1.00
H827   H     0.71160   0.11845   0.19393   0.00000  Uiso   1.00
H828   H     0.68494   0.15264   0.16846   0.00000  Uiso   1.00
N829   N     0.89367   0.16151   0.82022   0.00000  Uiso   1.00
H830   H     0.87161   0.17123   0.83570   0.00000  Uiso   1.00
C831   C     0.92014   0.14320   0.84474   0.00000  Uiso   1.00
H832   H     0.92987   0.16238   0.86755   0.00000  Uiso   1.00
H833   H     0.94407   0.13395   0.82756   0.00000  Uiso   1.00
H834   H     0.90777   0.11907   0.85918   0.00000  Uiso   1.00
N835   N     0.61049   0.33390   0.18151   0.00000  Uiso   1.00
H836   H     0.61151   0.34766   0.15541   0.00000  Uiso   1.00
C837   C     0.63085   0.30009   0.18062   0.00000  Uiso   1.00
H838   H     0.62413   0.28482   0.15365   0.00000  Uiso   1.00
H839   H     0.62370   0.28272   0.20602   0.00000  Uiso   1.00
H840   H     0.66068   0.30575   0.18085   0.00000  Uiso   1.00
N841   N     0.91147   0.14373   0.67978   0.00000  Uiso   1.00
H842   H     0.92121   0.12169   0.66428   0.00000  Uiso   1.00
C843   C     0.89310   0.17018   0.65529   0.00000  Uiso   1.00
H844   H     0.86895   0.15780   0.64091   0.00000  Uiso   1.00
H845   H     0.91224   0.17991   0.63244   0.00000  Uiso   1.00
H846   H     0.88387   0.19411   0.67248   0.00000  Uiso   1.00
N847   N     0.58391   0.36044   0.31850   0.00000  Uiso   1.00
H848   H     0.59766   0.36150   0.34460   0.00000  Uiso   1.00
C849   C     0.55004   0.38071   0.31940   0.00000  Uiso   1.00
H850   H     0.55561   0.41056   0.31926   0.00000  Uiso   1.00
H851   H     0.53272   0.37357   0.29395   0.00000  Uiso   1.00
H852   H     0.53474   0.37388   0.34632   0.00000  Uiso   1.00
N853   N     0.84826   0.40307   0.67840   0.00000  Uiso   1.00
H854   H     0.86818   0.41110   0.65897   0.00000  Uiso   1.00
C855   C     0.81935   0.38201   0.66022   0.00000  Uiso   1.00
H856   H     0.83058   0.35761   0.64534   0.00000  Uiso   1.00
H857   H     0.80526   0.39923   0.63830   0.00000  Uiso   1.00
H858   H     0.79887   0.37284   0.68201   0.00000  Uiso   1.00
N859   N     0.64705   0.09172   0.32090   0.00000  Uiso   1.00
H860   H     0.64922   0.10831   0.34497   0.00000  Uiso   1.00
C861   C     0.62650   0.05873   0.32871   0.00000  Uiso   1.00
H862   H     0.59687   0.06490   0.33096   0.00000  Uiso   1.00
H863   H     0.63561   0.04676   0.35672   0.00000  Uiso   1.00
H864   H     0.63098   0.03831   0.30528   0.00000  Uiso   1.00
N865   N     0.58902   0.35581   0.67964   0.00000  Uiso   1.00
H866   H     0.57935   0.37773   0.66392   0.00000  Uiso   1.00
C867   C     0.60761   0.32924   0.65549   0.00000  Uiso   1.00
H868   H     0.63183   0.34159   0.64119   0.00000  Uiso   1.00
H869   H     0.58865   0.31931   0.63257   0.00000  Uiso   1.00
H870   H     0.61679   0.30545   0.67293   0.00000  Uiso   1.00
N871   N     0.91551   0.14011   0.31876   0.00000  Uiso   1.00
H872   H     0.90153   0.13931   0.34474   0.00000  Uiso   1.00
C873   C     0.94931   0.11975   0.32018   0.00000  Uiso   1.00
H874   H     0.94366   0.08992   0.32015   0.00000  Uiso   1.00
H875   H     0.96691   0.12671   0.29490   0.00000  Uiso   1.00
H876   H     0.96433   0.12667   0.34725   0.00000  Uiso   1.00
N877   N     0.65104   0.09623   0.67847   0.00000  Uiso   1.00
H878   H     0.63096   0.08799   0.65933   0.00000  Uiso   1.00
C879   C     0.67976   0.11715   0.65978   0.00000  Uiso   1.00
H880   H     0.66834   0.14129   0.64459   0.00000  Uiso   1.00
H881   H     0.69381   0.09968   0.63806   0.00000  Uiso   1.00
H882   H     0.70033   0.12670   0.68129   0.00000  Uiso   1.00
N883   N     0.85354   0.40889   0.32081   0.00000  Uiso   1.00
H884   H     0.85160   0.39249   0.34506   0.00000  Uiso   1.00
C885   C     0.87410   0.44196   0.32813   0.00000  Uiso   1.00
H886   H     0.90376   0.43585   0.33014   0.00000  Uiso   1.00
H887   H     0.86521   0.45415   0.35612   0.00000  Uiso   1.00
H888   H     0.86940   0.46218   0.30456   0.00000  Uiso   1.00
N889   N     0.90382   0.34900   0.32153   0.00000  Uiso   1.00
H890   H     0.91210   0.36913   0.34059   0.00000  Uiso   1.00
C891   C     0.88284   0.32040   0.34036   0.00000  Uiso   1.00
H892   H     0.90010   0.30680   0.36259   0.00000  Uiso   1.00
H893   H     0.87374   0.29948   0.31903   0.00000  Uiso   1.00
H894   H     0.85839   0.33185   0.35497   0.00000  Uiso   1.00
N895   N     0.59126   0.14664   0.67915   0.00000  Uiso   1.00
H896   H     0.60772   0.14856   0.65495   0.00000  Uiso   1.00
C897   C     0.55809   0.12628   0.67170   0.00000  Uiso   1.00
H898   H     0.54589   0.13548   0.64383   0.00000  Uiso   1.00
H899   H     0.53792   0.13087   0.69535   0.00000  Uiso   1.00
H900   H     0.56408   0.09662   0.66939   0.00000  Uiso   1.00
N901   N     0.85603   0.08878   0.32031   0.00000  Uiso   1.00
H902   H     0.87802   0.07911   0.33593   0.00000  Uiso   1.00
C903   C     0.82948   0.10721   0.34463   0.00000  Uiso   1.00
H904   H     0.81965   0.08812   0.36748   0.00000  Uiso   1.00
H905   H     0.80563   0.11641   0.32731   0.00000  Uiso   1.00
H906   H     0.84181   0.13138   0.35902   0.00000  Uiso   1.00
N907   N     0.64020   0.41540   0.68122   0.00000  Uiso   1.00
H908   H     0.63947   0.40139   0.65526   0.00000  Uiso   1.00
C909   C     0.61978   0.44917   0.67971   0.00000  Uiso   1.00
H910   H     0.62671   0.46416   0.65263   0.00000  Uiso   1.00
H911   H     0.62667   0.46682   0.70497   0.00000  Uiso   1.00
H912   H     0.58996   0.44346   0.67970   0.00000  Uiso   1.00
N913   N     0.59687   0.15166   0.32154   0.00000  Uiso   1.00
H914   H     0.58874   0.13172   0.34090   0.00000  Uiso   1.00
C915   C     0.61806   0.18040   0.33984   0.00000  Uiso   1.00
H916   H     0.60101   0.19429   0.36205   0.00000  Uiso   1.00
H917   H     0.62704   0.20108   0.31818   0.00000  Uiso   1.00
H918   H     0.64259   0.16905   0.35437   0.00000  Uiso   1.00
N919   N     0.90791   0.35257   0.67895   0.00000  Uiso   1.00
H920   H     0.89113   0.35028   0.65504   0.00000  Uiso   1.00
C921   C     0.94092   0.37290   0.67066   0.00000  Uiso   1.00
H922   H     0.95254   0.36360   0.64254   0.00000  Uiso   1.00
H923   H     0.96155   0.36840   0.69387   0.00000  Uiso   1.00
H924   H     0.93489   0.40255   0.66834   0.00000  Uiso   1.00
N925   N     0.64334   0.41185   0.32011   0.00000  Uiso   1.00
H926   H     0.62121   0.42163   0.33543   0.00000  Uiso   1.00
C927   C     0.66971   0.39366   0.34485   0.00000  Uiso   1.00
H928   H     0.67931   0.41294   0.36763   0.00000  Uiso   1.00
H929   H     0.69373   0.38437   0.32785   0.00000  Uiso   1.00
H930   H     0.65730   0.36958   0.35933   0.00000  Uiso   1.00
N931   N     0.86017   0.08422   0.68137   0.00000  Uiso   1.00
H932   H     0.86106   0.09810   0.65533   0.00000  Uiso   1.00
C933   C     0.88055   0.05042   0.68019   0.00000  Uiso   1.00
H934   H     0.87371   0.03528   0.65317   0.00000  Uiso   1.00
H935   H     0.87350   0.03292   0.70553   0.00000  Uiso   1.00
H936   H     0.91037   0.05608   0.68030   0.00000  Uiso   1.00
C937   C     0.99466   0.31893   0.39759   0.00000  Uiso   1.00
H938   H     0.50491   0.34283   0.41282   0.00000  Uiso   1.00
O939   O     0.98366   0.32258   0.36425   0.00000  Uiso   1.00
C940   C     0.99410   0.18205   0.60201   0.00000  Uiso   1.00
H941   H     0.99683   0.17986   0.63337   0.00000  Uiso   1.00
O942   O     0.98212   0.15578   0.58415   0.00000  Uiso   1.00
C943   C     0.68180   0.49481   0.39763   0.00000  Uiso   1.00
H944   H     0.67980   0.49774   0.36627   0.00000  Uiso   1.00
O945   O     0.65531   0.48304   0.41526   0.00000  Uiso   1.00
C946   C     0.81880   0.49483   0.60206   0.00000  Uiso   1.00
H947   H     0.84257   0.00490   0.58650   0.00000  Uiso   1.00
O948   O     0.82266   0.48437   0.63557   0.00000  Uiso   1.00
C949   C     0.50512   0.18137   0.39812   0.00000  Uiso   1.00
H950   H     0.99494   0.15769   0.41376   0.00000  Uiso   1.00
O951   O     0.51556   0.17737   0.36463   0.00000  Uiso   1.00
C952   C     0.50667   0.31820   0.60301   0.00000  Uiso   1.00
H953   H     0.50231   0.32034   0.63416   0.00000  Uiso   1.00
O954   O     0.52052   0.34409   0.58608   0.00000  Uiso   1.00
C955   C     0.81821   0.00521   0.39762   0.00000  Uiso   1.00
H956   H     0.82021   0.00226   0.36627   0.00000  Uiso   1.00
O957   O     0.84469   0.01703   0.41525   0.00000  Uiso   1.00
C958   C     0.68120   0.00518   0.60206   0.00000  Uiso   1.00
H959   H     0.65742   0.49511   0.58650   0.00000  Uiso   1.00
O960   O     0.67734   0.01562   0.63557   0.00000  Uiso   1.00
C961   C     0.74450   0.06892   0.89760   0.00000  Uiso   1.00
H962   H     0.75469   0.09284   0.91284   0.00000  Uiso   1.00
O963   O     0.73352   0.07255   0.86426   0.00000  Uiso   1.00
C964   C     0.74426   0.43203   0.10200   0.00000  Uiso   1.00
H965   H     0.74698   0.42986   0.13337   0.00000  Uiso   1.00
O966   O     0.73237   0.40573   0.08415   0.00000  Uiso   1.00
C967   C     0.93181   0.24467   0.89762   0.00000  Uiso   1.00
H968   H     0.92980   0.24762   0.86627   0.00000  Uiso   1.00
O969   O     0.90534   0.23282   0.91525   0.00000  Uiso   1.00
C970   C     0.56881   0.24498   0.10207   0.00000  Uiso   1.00
H971   H     0.59256   0.25511   0.08651   0.00000  Uiso   1.00
O972   O     0.57268   0.23453   0.13557   0.00000  Uiso   1.00
C973   C     0.75526   0.43138   0.89813   0.00000  Uiso   1.00
H974   H     0.74515   0.40767   0.91379   0.00000  Uiso   1.00
O975   O     0.76567   0.42740   0.86463   0.00000  Uiso   1.00
C976   C     0.75654   0.06821   0.10301   0.00000  Uiso   1.00
H977   H     0.75219   0.07034   0.13416   0.00000  Uiso   1.00
O978   O     0.77031   0.09413   0.08607   0.00000  Uiso   1.00
C979   C     0.56820   0.25533   0.89762   0.00000  Uiso   1.00
H980   H     0.57021   0.25236   0.86627   0.00000  Uiso   1.00
O981   O     0.59465   0.26720   0.91524   0.00000  Uiso   1.00
C982   C     0.93120   0.25505   0.10207   0.00000  Uiso   1.00
H983   H     0.90744   0.24491   0.08653   0.00000  Uiso   1.00
O984   O     0.92732   0.26553   0.13557   0.00000  Uiso   1.00
C985   C     0.49328   0.78302   0.41828   0.00000  Uiso   1.00
C986   C     0.00252   0.71705   0.58158   0.00000  Uiso   1.00
C987   C     0.21680   0.50271   0.41829   0.00000  Uiso   1.00
C988   C     0.28278   0.99302   0.58163   0.00000  Uiso   1.00
C989   C     0.00711   0.71744   0.41844   0.00000  Uiso   1.00
C990   C     0.49831   0.78356   0.58189   0.00000  Uiso   1.00
C991   C     0.28322   0.99730   0.41829   0.00000  Uiso   1.00
C992   C     0.21722   0.50698   0.58163   0.00000  Uiso   1.00
C993   C     0.24320   0.53300   0.91829   0.00000  Uiso   1.00
C994   C     0.25261   0.96705   0.08158   0.00000  Uiso   1.00
C995   C     0.46679   0.75263   0.91829   0.00000  Uiso   1.00
C996   C     0.03279   0.74309   0.08163   0.00000  Uiso   1.00
C997   C     0.25718   0.96745   0.91844   0.00000  Uiso   1.00
C998   C     0.24824   0.53356   0.08189   0.00000  Uiso   1.00
C999   C     0.03322   0.74736   0.91829   0.00000  Uiso   1.00
C1000  C     0.46721   0.75692   0.08163   0.00000  Uiso   1.00
C1001  C     0.00005   0.75015   0.39812   0.00000  Uiso   1.00
C1002  C     0.00009   0.75019   0.60198   0.00000  Uiso   1.00
C1003  C     0.25001   0.50000   0.39802   0.00000  Uiso   1.00
C1004  C     0.25000   0.50000   0.60188   0.00000  Uiso   1.00
C1005  C     0.25005   0.50015   0.89812   0.00000  Uiso   1.00
C1006  C     0.25009   0.50019   0.10198   0.00000  Uiso   1.00
C1007  C     0.00001   0.75000   0.89802   0.00000  Uiso   1.00
C1008  C    -0.00000   0.75000   0.10188   0.00000  Uiso   1.00
C1009  C     0.02977   0.69015   0.48024   0.00000  Uiso   1.00
C1010  C     0.47432   0.81193   0.52133   0.00000  Uiso   1.00
C1011  C     0.31061   0.97193   0.47870   0.00000  Uiso   1.00
C1012  C     0.18994   0.52962   0.51979   0.00000  Uiso   1.00
C1013  C     0.47173   0.81082   0.48024   0.00000  Uiso   1.00
C1014  C     0.02806   0.68957   0.52133   0.00000  Uiso   1.00
C1015  C     0.18941   0.52808   0.47869   0.00000  Uiso   1.00
C1016  C     0.31006   0.97036   0.51980   0.00000  Uiso   1.00
C1017  C     0.27991   0.94022   0.98024   0.00000  Uiso   1.00
C1018  C     0.22418   0.56186   0.02134   0.00000  Uiso   1.00
C1019  C     0.06067   0.72205   0.97870   0.00000  Uiso   1.00
C1020  C     0.43987   0.77949   0.01979   0.00000  Uiso   1.00
C1021  C     0.22159   0.56075   0.98024   0.00000  Uiso   1.00
C1022  C     0.27821   0.93964   0.02133   0.00000  Uiso   1.00
C1023  C     0.43935   0.77794   0.97869   0.00000  Uiso   1.00
C1024  C     0.06012   0.72049   0.01981   0.00000  Uiso   1.00
C1025  C     0.25000   0.50000   0.35572   0.00000  Uiso   1.00
C1026  C     0.25000   0.50000   0.64424   0.00000  Uiso   1.00
C1027  C     0.00000   0.75003   0.35576   0.00000  Uiso   1.00
C1028  C     0.00001   0.74998   0.64428   0.00000  Uiso   1.00
C1029  C     0.00001   0.75000   0.85572   0.00000  Uiso   1.00
C1030  C    -0.00000   0.75000   0.14424   0.00000  Uiso   1.00
C1031  C     0.25000   0.50003   0.85576   0.00000  Uiso   1.00
C1032  C     0.25001   0.99998   0.14428   0.00000  Uiso   1.00
C1033  C     0.18002   0.56999   0.24998   0.00000  Uiso   1.00
C1034  C     0.32006   0.92995   0.74999   0.00000  Uiso   1.00
C1035  C     0.43002   0.68002   0.25000   0.00000  Uiso   1.00
C1036  C     0.07004   0.82003   0.75000   0.00000  Uiso   1.00
C1037  C     0.31999   0.93002   0.25000   0.00000  Uiso   1.00
C1038  C     0.17994   0.57005   0.75000   0.00000  Uiso   1.00
C1039  C     0.06998   0.81997   0.25000   0.00000  Uiso   1.00
C1040  C     0.42996   0.67997   0.75000   0.00000  Uiso   1.00
C1041  C     0.18002   0.93002   0.75000   0.00000  Uiso   1.00
C1042  C     0.32004   0.57003   0.25000   0.00000  Uiso   1.00
C1043  C     0.43002   0.81999   0.74998   0.00000  Uiso   1.00
C1044  C     0.07006   0.67995   0.24999   0.00000  Uiso   1.00
C1045  C     0.31998   0.56997   0.75000   0.00000  Uiso   1.00
C1046  C     0.17996   0.92997   0.25000   0.00000  Uiso   1.00
C1047  C     0.06999   0.68002   0.75000   0.00000  Uiso   1.00
C1048  C     0.42994   0.82005   0.25000   0.00000  Uiso   1.00
C1049  C     0.14275   0.88418   0.21480   0.00000  Uiso   1.00
C1050  C     0.35581   0.61683   0.78476   0.00000  Uiso   1.00
C1051  C     0.11174   0.63853   0.21418   0.00000  Uiso   1.00
C1052  C     0.38702   0.85969   0.78561   0.00000  Uiso   1.00
C1053  C     0.35760   0.61547   0.21471   0.00000  Uiso   1.00
C1054  C     0.14400   0.88335   0.78483   0.00000  Uiso   1.00
C1055  C     0.38790   0.86112   0.21421   0.00000  Uiso   1.00
C1056  C     0.11330   0.64063   0.78560   0.00000  Uiso   1.00
C1057  C     0.13885   0.61207   0.78579   0.00000  Uiso   1.00
C1058  C     0.35936   0.88669   0.21440   0.00000  Uiso   1.00
C1059  C     0.11547   0.85760   0.78532   0.00000  Uiso   1.00
C1060  C     0.38333   0.64402   0.21520   0.00000  Uiso   1.00
C1061  C     0.36148   0.88826   0.78577   0.00000  Uiso   1.00
C1062  C     0.14027   0.61295   0.21432   0.00000  Uiso   1.00
C1063  C     0.38433   0.64259   0.78526   0.00000  Uiso   1.00
C1064  C     0.11700   0.85566   0.21531   0.00000  Uiso   1.00
C1065  C     0.39258   0.63435   0.71475   0.00000  Uiso   1.00
C1066  C     0.10565   0.86699   0.28469   0.00000  Uiso   1.00
C1067  C     0.36171   0.88850   0.71417   0.00000  Uiso   1.00
C1068  C     0.13700   0.60967   0.28560   0.00000  Uiso   1.00
C1069  C     0.10765   0.86543   0.71469   0.00000  Uiso   1.00
C1070  C     0.39404   0.63331   0.28481   0.00000  Uiso   1.00
C1071  C     0.13791   0.61113   0.71421   0.00000  Uiso   1.00
C1072  C     0.36332   0.89065   0.28560   0.00000  Uiso   1.00
C1073  C     0.38887   0.86208   0.28579   0.00000  Uiso   1.00
C1074  C     0.10937   0.63671   0.71439   0.00000  Uiso   1.00
C1075  C     0.36552   0.60756   0.28530   0.00000  Uiso   1.00
C1076  C     0.13337   0.89398   0.71518   0.00000  Uiso   1.00
C1077  C     0.11146   0.63824   0.28577   0.00000  Uiso   1.00
C1078  C     0.39025   0.86292   0.71431   0.00000  Uiso   1.00
C1079  C     0.13416   0.89276   0.28521   0.00000  Uiso   1.00
C1080  C     0.36683   0.60582   0.71525   0.00000  Uiso   1.00
C1081  C     0.01243   0.71890   0.45927   0.00000  Uiso   1.00
C1082  C     0.49153   0.78272   0.54129   0.00000  Uiso   1.00
C1083  C     0.28196   0.99002   0.45874   0.00000  Uiso   1.00
C1084  C     0.21858   0.51209   0.54077   0.00000  Uiso   1.00
C1085  C     0.48873   0.78190   0.45924   0.00000  Uiso   1.00
C1086  C     0.01018   0.71839   0.54123   0.00000  Uiso   1.00
C1087  C     0.21806   0.50998   0.45874   0.00000  Uiso   1.00
C1088  C     0.28142   0.98791   0.54077   0.00000  Uiso   1.00
C1089  C     0.26251   0.96893   0.95927   0.00000  Uiso   1.00
C1090  C     0.24146   0.53270   0.04129   0.00000  Uiso   1.00
C1091  C     0.03197   0.74008   0.95874   0.00000  Uiso   1.00
C1092  C     0.46856   0.76202   0.04077   0.00000  Uiso   1.00
C1093  C     0.23866   0.53187   0.95924   0.00000  Uiso   1.00
C1094  C     0.26026   0.96841   0.04123   0.00000  Uiso   1.00
C1095  C     0.46804   0.75991   0.95874   0.00000  Uiso   1.00
C1096  C     0.03144   0.73797   0.04077   0.00000  Uiso   1.00
C1097  C     0.09803   0.84803   0.25000   0.00000  Uiso   1.00
C1098  C     0.40183   0.65184   0.75001   0.00000  Uiso   1.00
C1099  C     0.15197   0.59803   0.24997   0.00000  Uiso   1.00
C1100  C     0.34821   0.90180   0.74998   0.00000  Uiso   1.00
C1101  C     0.40197   0.65197   0.25001   0.00000  Uiso   1.00
C1102  C     0.09818   0.84815   0.75001   0.00000  Uiso   1.00
C1103  C     0.34803   0.90197   0.25000   0.00000  Uiso   1.00
C1104  C     0.15178   0.59819   0.75000   0.00000  Uiso   1.00
C1105  C     0.09803   0.65197   0.75000   0.00000  Uiso   1.00
C1106  C     0.40178   0.84820   0.25000   0.00000  Uiso   1.00
C1107  C     0.15197   0.90197   0.75001   0.00000  Uiso   1.00
C1108  C     0.34818   0.59815   0.25001   0.00000  Uiso   1.00
C1109  C     0.40197   0.84803   0.74996   0.00000  Uiso   1.00
C1110  C     0.09821   0.65180   0.24998   0.00000  Uiso   1.00
C1111  C     0.34803   0.59803   0.75000   0.00000  Uiso   1.00
C1112  C     0.15183   0.90184   0.25000   0.00000  Uiso   1.00
C1113  C     0.00075   0.75049   0.47968   0.00000  Uiso   1.00
C1114  C     0.00084   0.75055   0.52064   0.00000  Uiso   1.00
C1115  C     0.25001   0.50000   0.47937   0.00000  Uiso   1.00
C1116  C     0.25000   0.50000   0.52033   0.00000  Uiso   1.00
C1117  C     0.25075   0.50049   0.97969   0.00000  Uiso   1.00
C1118  C     0.25084   0.50055   0.02064   0.00000  Uiso   1.00
C1119  C     0.00001   0.74999   0.97937   0.00000  Uiso   1.00
C1120  C     0.00000   0.75000   0.02033   0.00000  Uiso   1.00
O1121  O     0.25000   0.50000   0.25000   0.00000  Uiso   1.00
O1122  O     0.25000   0.50000   0.75000   0.00000  Uiso   1.00
O1123  O     0.00000   0.75000   0.25000   0.00000  Uiso   1.00
O1124  O     0.00000   0.75000   0.75000   0.00000  Uiso   1.00
O1125  O     0.25000   0.96963   0.33755   0.00000  Uiso   1.00
O1126  O     0.25000   0.53036   0.66245   0.00000  Uiso   1.00
O1127  O     0.03037   0.75000   0.33755   0.00000  Uiso   1.00
O1128  O     0.46964   0.75000   0.66245   0.00000  Uiso   1.00
O1129  O     0.25000   0.53036   0.33755   0.00000  Uiso   1.00
O1130  O     0.25000   0.96963   0.66245   0.00000  Uiso   1.00
O1131  O     0.46964   0.75000   0.33755   0.00000  Uiso   1.00
O1132  O     0.03037   0.75000   0.66245   0.00000  Uiso   1.00
O1133  O     0.00000   0.71963   0.83755   0.00000  Uiso   1.00
O1134  O     0.00000   0.78036   0.16245   0.00000  Uiso   1.00
O1135  O     0.28037   0.50000   0.83755   0.00000  Uiso   1.00
O1136  O     0.21964   0.50000   0.16245   0.00000  Uiso   1.00
O1137  O     0.00000   0.78036   0.83755   0.00000  Uiso   1.00
O1138  O     0.00000   0.71963   0.16245   0.00000  Uiso   1.00
O1139  O     0.21964   0.50000   0.83755   0.00000  Uiso   1.00
O1140  O     0.28037   0.50000   0.16245   0.00000  Uiso   1.00
O1141  O     0.20725   0.57307   0.27302   0.00000  Uiso   1.00
O1142  O     0.29276   0.92692   0.72698   0.00000  Uiso   1.00
O1143  O     0.42693   0.70724   0.27302   0.00000  Uiso   1.00
O1144  O     0.07308   0.79275   0.72698   0.00000  Uiso   1.00
O1145  O     0.29276   0.92692   0.27302   0.00000  Uiso   1.00
O1146  O     0.20725   0.57307   0.72698   0.00000  Uiso   1.00
O1147  O     0.07308   0.79275   0.27302   0.00000  Uiso   1.00
O1148  O     0.42693   0.70724   0.72698   0.00000  Uiso   1.00
O1149  O     0.20725   0.92692   0.72698   0.00000  Uiso   1.00
O1150  O     0.29276   0.57307   0.27302   0.00000  Uiso   1.00
O1151  O     0.42693   0.79275   0.72698   0.00000  Uiso   1.00
O1152  O     0.07308   0.70724   0.27302   0.00000  Uiso   1.00
O1153  O     0.29276   0.57307   0.72698   0.00000  Uiso   1.00
O1154  O     0.20725   0.92692   0.27302   0.00000  Uiso   1.00
O1155  O     0.07308   0.70724   0.72698   0.00000  Uiso   1.00
O1156  O     0.42693   0.79275   0.27302   0.00000  Uiso   1.00
O1157  O     0.45725   0.82307   0.77302   0.00000  Uiso   1.00
O1158  O     0.04276   0.67692   0.22698   0.00000  Uiso   1.00
O1159  O     0.17693   0.95724   0.77302   0.00000  Uiso   1.00
O1160  O     0.32308   0.54275   0.22698   0.00000  Uiso   1.00
O1161  O     0.04276   0.67692   0.77302   0.00000  Uiso   1.00
O1162  O     0.45725   0.82307   0.22698   0.00000  Uiso   1.00
O1163  O     0.32308   0.54275   0.77302   0.00000  Uiso   1.00
O1164  O     0.17693   0.95724   0.22698   0.00000  Uiso   1.00
O1165  O     0.45725   0.67692   0.22698   0.00000  Uiso   1.00
O1166  O     0.04276   0.82307   0.77302   0.00000  Uiso   1.00
O1167  O     0.17693   0.54275   0.22698   0.00000  Uiso   1.00
O1168  O     0.32308   0.95724   0.77302   0.00000  Uiso   1.00
O1169  O     0.04276   0.82307   0.22698   0.00000  Uiso   1.00
O1170  O     0.45725   0.67692   0.77302   0.00000  Uiso   1.00
O1171  O     0.32308   0.95724   0.22698   0.00000  Uiso   1.00
O1172  O     0.17693   0.54275   0.77302   0.00000  Uiso   1.00
Zn1173 Zn    0.20660   0.50000   0.21735   0.00000  Uiso   1.00
Zn1174 Zn    0.29341   0.50000   0.78265   0.00000  Uiso   1.00
Zn1175 Zn    0.00000   0.70659   0.21735   0.00000  Uiso   1.00
Zn1176 Zn    0.00000   0.79340   0.78265   0.00000  Uiso   1.00
Zn1177 Zn    0.29341   0.50000   0.21735   0.00000  Uiso   1.00
Zn1178 Zn    0.20660   0.50000   0.78265   0.00000  Uiso   1.00
Zn1179 Zn    0.00000   0.79340   0.21735   0.00000  Uiso   1.00
Zn1180 Zn    0.00000   0.70659   0.78265   0.00000  Uiso   1.00
Zn1181 Zn    0.45660   0.75000   0.71735   0.00000  Uiso   1.00
Zn1182 Zn    0.04341   0.75000   0.28265   0.00000  Uiso   1.00
Zn1183 Zn    0.25000   0.95659   0.71735   0.00000  Uiso   1.00
Zn1184 Zn    0.25000   0.54340   0.28265   0.00000  Uiso   1.00
Zn1185 Zn    0.04341   0.75000   0.71735   0.00000  Uiso   1.00
Zn1186 Zn    0.45660   0.75000   0.28265   0.00000  Uiso   1.00
Zn1187 Zn    0.25000   0.54340   0.71735   0.00000  Uiso   1.00
Zn1188 Zn    0.25000   0.95659   0.28265   0.00000  Uiso   1.00
C1189  C     0.05450   0.66387   0.46023   0.00000  Uiso   1.00
H1190  H     0.05427   0.63517   0.46793   0.00000  Uiso   1.00
O1191  O     0.07612   0.67448   0.43560   0.00000  Uiso   1.00
C1192  C     0.45335   0.83964   0.54396   0.00000  Uiso   1.00
H1193  H     0.43840   0.83133   0.56980   0.00000  Uiso   1.00
O1194  O     0.45396   0.87193   0.53518   0.00000  Uiso   1.00
C1195  C     0.33775   0.94941   0.45697   0.00000  Uiso   1.00
H1196  H     0.36599   0.94827   0.46635   0.00000  Uiso   1.00
O1197  O     0.32842   0.93114   0.42891   0.00000  Uiso   1.00
C1198  C     0.16377   0.55445   0.53984   0.00000  Uiso   1.00
H1199  H     0.13504   0.55424   0.53222   0.00000  Uiso   1.00
O1200  O     0.17450   0.57611   0.56435   0.00000  Uiso   1.00
C1201  C     0.44607   0.83615   0.46022   0.00000  Uiso   1.00
H1202  H     0.44711   0.86528   0.46555   0.00000  Uiso   1.00
O1203  O     0.42315   0.82429   0.43767   0.00000  Uiso   1.00
C1204  C     0.05022   0.66221   0.54313   0.00000  Uiso   1.00
H1205  H     0.05118   0.63397   0.53370   0.00000  Uiso   1.00
O1206  O     0.06842   0.67133   0.57134   0.00000  Uiso   1.00
C1207  C     0.16232   0.55065   0.45696   0.00000  Uiso   1.00
H1208  H     0.13407   0.55181   0.46631   0.00000  Uiso   1.00
O1209  O     0.17170   0.56895   0.42894   0.00000  Uiso   1.00
C1210  C     0.33619   0.94551   0.53985   0.00000  Uiso   1.00
H1211  H     0.36492   0.94564   0.53221   0.00000  Uiso   1.00
O1212  O     0.32545   0.92391   0.56443   0.00000  Uiso   1.00
C1213  C     0.30471   0.91400   0.96022   0.00000  Uiso   1.00
H1214  H     0.30455   0.88530   0.96792   0.00000  Uiso   1.00
O1215  O     0.32629   0.92466   0.93558   0.00000  Uiso   1.00
C1216  C     0.20315   0.58953   0.04396   0.00000  Uiso   1.00
H1217  H     0.18822   0.58119   0.06981   0.00000  Uiso   1.00
O1218  O     0.20368   0.62182   0.03518   0.00000  Uiso   1.00
C1219  C     0.08784   0.69958   0.95698   0.00000  Uiso   1.00
H1220  H     0.11609   0.69849   0.96635   0.00000  Uiso   1.00
O1221  O     0.07854   0.68127   0.92893   0.00000  Uiso   1.00
C1222  C     0.41365   0.80425   0.03983   0.00000  Uiso   1.00
H1223  H     0.38492   0.80398   0.03222   0.00000  Uiso   1.00
O1224  O     0.42433   0.82595   0.06434   0.00000  Uiso   1.00
C1225  C     0.19587   0.58602   0.96022   0.00000  Uiso   1.00
H1226  H     0.19683   0.61515   0.96556   0.00000  Uiso   1.00
O1227  O     0.17297   0.57410   0.93768   0.00000  Uiso   1.00
C1228  C     0.30044   0.91232   0.04313   0.00000  Uiso   1.00
H1229  H     0.30148   0.88410   0.03369   0.00000  Uiso   1.00
O1230  O     0.31860   0.92148   0.07135   0.00000  Uiso   1.00
C1231  C     0.41221   0.80045   0.95696   0.00000  Uiso   1.00
H1232  H     0.38395   0.80154   0.96630   0.00000  Uiso   1.00
O1233  O     0.42155   0.81879   0.92895   0.00000  Uiso   1.00
C1234  C     0.08631   0.69570   0.03986   0.00000  Uiso   1.00
H1235  H     0.11503   0.69589   0.03222   0.00000  Uiso   1.00
O1236  O     0.07561   0.67408   0.06444   0.00000  Uiso   1.00
N1237  N     0.16180   0.89341   0.17988   0.00000  Uiso   1.00
H1238  H     0.17159   0.87130   0.16454   0.00000  Uiso   1.00
C1239  C     0.14354   0.91976   0.15518   0.00000  Uiso   1.00
H1240  H     0.11942   0.90734   0.14077   0.00000  Uiso   1.00
H1241  H     0.16277   0.92936   0.13236   0.00000  Uiso   1.00
H1242  H     0.13428   0.94378   0.17221   0.00000  Uiso   1.00
N1243  N     0.33423   0.61013   0.81864   0.00000  Uiso   1.00
H1244  H     0.34810   0.61106   0.84468   0.00000  Uiso   1.00
C1245  C     0.30036   0.63041   0.81983   0.00000  Uiso   1.00
H1246  H     0.30595   0.66025   0.81981   0.00000  Uiso   1.00
H1247  H     0.28292   0.62338   0.79444   0.00000  Uiso   1.00
H1248  H     0.28520   0.62345   0.84680   0.00000  Uiso   1.00
N1249  N     0.09831   0.65312   0.17841   0.00000  Uiso   1.00
H1250  H     0.11824   0.66117   0.15900   0.00000  Uiso   1.00
C1251  C     0.06942   0.63208   0.16018   0.00000  Uiso   1.00
H1252  H     0.08066   0.60768   0.14530   0.00000  Uiso   1.00
H1253  H     0.05535   0.64931   0.13826   0.00000  Uiso   1.00
H1254  H     0.04892   0.62289   0.18194   0.00000  Uiso   1.00
N1255  N     0.39710   0.84176   0.82090   0.00000  Uiso   1.00
H1256  H     0.39928   0.85837   0.84497   0.00000  Uiso   1.00
C1257  C     0.37657   0.80877   0.82876   0.00000  Uiso   1.00
H1258  H     0.34695   0.81494   0.83105   0.00000  Uiso   1.00
H1259  H     0.38574   0.79680   0.85675   0.00000  Uiso   1.00
H1260  H     0.38102   0.78835   0.80532   0.00000  Uiso   1.00
N1261  N     0.33893   0.60589   0.17967   0.00000  Uiso   1.00
H1262  H     0.32924   0.62783   0.16398   0.00000  Uiso   1.00
C1263  C     0.35749   0.57934   0.15546   0.00000  Uiso   1.00
H1264  H     0.38167   0.59171   0.14112   0.00000  Uiso   1.00
H1265  H     0.33849   0.56942   0.13258   0.00000  Uiso   1.00
H1266  H     0.36671   0.55555   0.17287   0.00000  Uiso   1.00
N1267  N     0.16542   0.89019   0.81879   0.00000  Uiso   1.00
H1268  H     0.15142   0.88943   0.84476   0.00000  Uiso   1.00
C1269  C     0.19923   0.86984   0.82029   0.00000  Uiso   1.00
H1270  H     0.19359   0.84001   0.82030   0.00000  Uiso   1.00
H1271  H     0.21686   0.87678   0.79502   0.00000  Uiso   1.00
H1272  H     0.21422   0.87681   0.84737   0.00000  Uiso   1.00
N1273  N     0.40102   0.84620   0.17847   0.00000  Uiso   1.00
H1274  H     0.38092   0.83796   0.15935   0.00000  Uiso   1.00
C1275  C     0.42972   0.86713   0.15975   0.00000  Uiso   1.00
H1276  H     0.41829   0.89130   0.14463   0.00000  Uiso   1.00
H1277  H     0.44371   0.84968   0.13797   0.00000  Uiso   1.00
H1278  H     0.45033   0.87663   0.18124   0.00000  Uiso   1.00
N1279  N     0.10349   0.65885   0.82082   0.00000  Uiso   1.00
H1280  H     0.10154   0.64244   0.84506   0.00000  Uiso   1.00
C1281  C     0.12404   0.69192   0.82817   0.00000  Uiso   1.00
H1282  H     0.15369   0.68582   0.83022   0.00000  Uiso   1.00
H1283  H     0.11511   0.70410   0.85615   0.00000  Uiso   1.00
H1284  H     0.11935   0.71215   0.80460   0.00000  Uiso   1.00
N1285  N     0.15377   0.59896   0.82153   0.00000  Uiso   1.00
H1286  H     0.16205   0.61908   0.84061   0.00000  Uiso   1.00
C1287  C     0.13278   0.57035   0.84033   0.00000  Uiso   1.00
H1288  H     0.15003   0.55672   0.86255   0.00000  Uiso   1.00
H1289  H     0.12369   0.54945   0.81897   0.00000  Uiso   1.00
H1290  H     0.10834   0.58179   0.85493   0.00000  Uiso   1.00
N1291  N     0.34122   0.89659   0.17916   0.00000  Uiso   1.00
H1292  H     0.35766   0.89850   0.15495   0.00000  Uiso   1.00
C1293  C     0.30806   0.87620   0.17175   0.00000  Uiso   1.00
H1294  H     0.29585   0.88535   0.14386   0.00000  Uiso   1.00
H1295  H     0.28788   0.88081   0.19539   0.00000  Uiso   1.00
H1296  H     0.31407   0.84655   0.16948   0.00000  Uiso   1.00
N1297  N     0.10594   0.83887   0.82034   0.00000  Uiso   1.00
H1298  H     0.12792   0.82921   0.83599   0.00000  Uiso   1.00
C1299  C     0.07937   0.85733   0.84460   0.00000  Uiso   1.00
H1300  H     0.06950   0.83826   0.86745   0.00000  Uiso   1.00
H1301  H     0.05554   0.86653   0.82723   0.00000  Uiso   1.00
H1302  H     0.09169   0.88151   0.85899   0.00000  Uiso   1.00
N1303  N     0.39011   0.66548   0.18126   0.00000  Uiso   1.00
H1304  H     0.38936   0.65150   0.15528   0.00000  Uiso   1.00
C1305  C     0.36969   0.69924   0.17981   0.00000  Uiso   1.00
H1306  H     0.37659   0.71427   0.15274   0.00000  Uiso   1.00
H1307  H     0.37662   0.71687   0.20509   0.00000  Uiso   1.00
H1308  H     0.33987   0.69353   0.17983   0.00000  Uiso   1.00
N1309  N     0.34693   0.90171   0.82154   0.00000  Uiso   1.00
H1310  H     0.33880   0.88178   0.84092   0.00000  Uiso   1.00
C1311  C     0.36813   0.93046   0.83980   0.00000  Uiso   1.00
H1312  H     0.35110   0.94437   0.86201   0.00000  Uiso   1.00
H1313  H     0.37710   0.95112   0.81811   0.00000  Uiso   1.00
H1314  H     0.39267   0.91912   0.85432   0.00000  Uiso   1.00
N1315  N     0.15797   0.60263   0.17896   0.00000  Uiso   1.00
H1316  H     0.14120   0.60036   0.15504   0.00000  Uiso   1.00
C1317  C     0.19097   0.62299   0.17071   0.00000  Uiso   1.00
H1318  H     0.20260   0.61374   0.14258   0.00000  Uiso   1.00
H1319  H     0.21160   0.61845   0.19393   0.00000  Uiso   1.00
H1320  H     0.18494   0.65264   0.16846   0.00000  Uiso   1.00
N1321  N     0.39367   0.66151   0.82022   0.00000  Uiso   1.00
H1322  H     0.37161   0.67123   0.83570   0.00000  Uiso   1.00
C1323  C     0.42014   0.64320   0.84474   0.00000  Uiso   1.00
H1324  H     0.42987   0.66238   0.86755   0.00000  Uiso   1.00
H1325  H     0.44407   0.63395   0.82756   0.00000  Uiso   1.00
H1326  H     0.40777   0.61907   0.85918   0.00000  Uiso   1.00
N1327  N     0.11049   0.83390   0.18151   0.00000  Uiso   1.00
H1328  H     0.11151   0.84766   0.15541   0.00000  Uiso   1.00
C1329  C     0.13085   0.80009   0.18062   0.00000  Uiso   1.00
H1330  H     0.12413   0.78482   0.15365   0.00000  Uiso   1.00
H1331  H     0.12370   0.78272   0.20602   0.00000  Uiso   1.00
H1332  H     0.16068   0.80575   0.18085   0.00000  Uiso   1.00
N1333  N     0.41147   0.64373   0.67978   0.00000  Uiso   1.00
H1334  H     0.42121   0.62169   0.66428   0.00000  Uiso   1.00
C1335  C     0.39310   0.67018   0.65529   0.00000  Uiso   1.00
H1336  H     0.36895   0.65780   0.64091   0.00000  Uiso   1.00
H1337  H     0.41224   0.67991   0.63244   0.00000  Uiso   1.00
H1338  H     0.38387   0.69411   0.67248   0.00000  Uiso   1.00
N1339  N     0.08391   0.86044   0.31850   0.00000  Uiso   1.00
H1340  H     0.09766   0.86150   0.34460   0.00000  Uiso   1.00
C1341  C     0.05004   0.88071   0.31940   0.00000  Uiso   1.00
H1342  H     0.05561   0.91056   0.31926   0.00000  Uiso   1.00
H1343  H     0.03272   0.87357   0.29395   0.00000  Uiso   1.00
H1344  H     0.03474   0.87388   0.34632   0.00000  Uiso   1.00
N1345  N     0.34826   0.90307   0.67840   0.00000  Uiso   1.00
H1346  H     0.36818   0.91110   0.65897   0.00000  Uiso   1.00
C1347  C     0.31935   0.88201   0.66022   0.00000  Uiso   1.00
H1348  H     0.33058   0.85761   0.64534   0.00000  Uiso   1.00
H1349  H     0.30526   0.89923   0.63830   0.00000  Uiso   1.00
H1350  H     0.29887   0.87284   0.68201   0.00000  Uiso   1.00
N1351  N     0.14705   0.59172   0.32090   0.00000  Uiso   1.00
H1352  H     0.14922   0.60831   0.34497   0.00000  Uiso   1.00
C1353  C     0.12650   0.55873   0.32871   0.00000  Uiso   1.00
H1354  H     0.09687   0.56490   0.33096   0.00000  Uiso   1.00
H1355  H     0.13561   0.54676   0.35672   0.00000  Uiso   1.00
H1356  H     0.13098   0.53831   0.30528   0.00000  Uiso   1.00
N1357  N     0.08902   0.85581   0.67964   0.00000  Uiso   1.00
H1358  H     0.07935   0.87773   0.66392   0.00000  Uiso   1.00
C1359  C     0.10761   0.82924   0.65549   0.00000  Uiso   1.00
H1360  H     0.13183   0.84159   0.64119   0.00000  Uiso   1.00
H1361  H     0.08865   0.81931   0.63257   0.00000  Uiso   1.00
H1362  H     0.11679   0.80545   0.67293   0.00000  Uiso   1.00
N1363  N     0.41551   0.64011   0.31876   0.00000  Uiso   1.00
H1364  H     0.40153   0.63931   0.34474   0.00000  Uiso   1.00
C1365  C     0.44931   0.61975   0.32018   0.00000  Uiso   1.00
H1366  H     0.44366   0.58992   0.32015   0.00000  Uiso   1.00
H1367  H     0.46691   0.62671   0.29490   0.00000  Uiso   1.00
H1368  H     0.46433   0.62667   0.34725   0.00000  Uiso   1.00
N1369  N     0.15104   0.59623   0.67847   0.00000  Uiso   1.00
H1370  H     0.13096   0.58799   0.65933   0.00000  Uiso   1.00
C1371  C     0.17976   0.61715   0.65978   0.00000  Uiso   1.00
H1372  H     0.16834   0.64129   0.64459   0.00000  Uiso   1.00
H1373  H     0.19381   0.59968   0.63806   0.00000  Uiso   1.00
H1374  H     0.20033   0.62670   0.68129   0.00000  Uiso   1.00
N1375  N     0.35354   0.90889   0.32081   0.00000  Uiso   1.00
H1376  H     0.35160   0.89249   0.34506   0.00000  Uiso   1.00
C1377  C     0.37410   0.94196   0.32813   0.00000  Uiso   1.00
H1378  H     0.40376   0.93585   0.33014   0.00000  Uiso   1.00
H1379  H     0.36521   0.95415   0.35612   0.00000  Uiso   1.00
H1380  H     0.36940   0.96218   0.30456   0.00000  Uiso   1.00
N1381  N     0.40382   0.84900   0.32153   0.00000  Uiso   1.00
H1382  H     0.41210   0.86913   0.34059   0.00000  Uiso   1.00
C1383  C     0.38284   0.82040   0.34036   0.00000  Uiso   1.00
H1384  H     0.40010   0.80680   0.36259   0.00000  Uiso   1.00
H1385  H     0.37374   0.79948   0.31903   0.00000  Uiso   1.00
H1386  H     0.35839   0.83185   0.35497   0.00000  Uiso   1.00
N1387  N     0.09126   0.64664   0.67915   0.00000  Uiso   1.00
H1388  H     0.10772   0.64856   0.65495   0.00000  Uiso   1.00
C1389  C     0.05809   0.62628   0.67170   0.00000  Uiso   1.00
H1390  H     0.04589   0.63548   0.64383   0.00000  Uiso   1.00
H1391  H     0.03792   0.63087   0.69535   0.00000  Uiso   1.00
H1392  H     0.06408   0.59662   0.66939   0.00000  Uiso   1.00
N1393  N     0.35603   0.58878   0.32031   0.00000  Uiso   1.00
H1394  H     0.37802   0.57911   0.33593   0.00000  Uiso   1.00
C1395  C     0.32948   0.60721   0.34463   0.00000  Uiso   1.00
H1396  H     0.31965   0.58812   0.36748   0.00000  Uiso   1.00
H1397  H     0.30563   0.61641   0.32731   0.00000  Uiso   1.00
H1398  H     0.34181   0.63138   0.35902   0.00000  Uiso   1.00
N1399  N     0.14020   0.91540   0.68122   0.00000  Uiso   1.00
H1400  H     0.13947   0.90139   0.65526   0.00000  Uiso   1.00
C1401  C     0.11978   0.94917   0.67971   0.00000  Uiso   1.00
H1402  H     0.12671   0.96416   0.65263   0.00000  Uiso   1.00
H1403  H     0.12667   0.96682   0.70497   0.00000  Uiso   1.00
H1404  H     0.08996   0.94346   0.67970   0.00000  Uiso   1.00
N1405  N     0.09687   0.65166   0.32154   0.00000  Uiso   1.00
H1406  H     0.08874   0.63172   0.34090   0.00000  Uiso   1.00
C1407  C     0.11806   0.68040   0.33984   0.00000  Uiso   1.00
H1408  H     0.10101   0.69429   0.36205   0.00000  Uiso   1.00
H1409  H     0.12704   0.70108   0.31818   0.00000  Uiso   1.00
H1410  H     0.14259   0.66905   0.35437   0.00000  Uiso   1.00
N1411  N     0.40791   0.85257   0.67895   0.00000  Uiso   1.00
H1412  H     0.39113   0.85028   0.65504   0.00000  Uiso   1.00
C1413  C     0.44092   0.87290   0.67066   0.00000  Uiso   1.00
H1414  H     0.45254   0.86360   0.64254   0.00000  Uiso   1.00
H1415  H     0.46155   0.86840   0.69387   0.00000  Uiso   1.00
H1416  H     0.43489   0.90255   0.66834   0.00000  Uiso   1.00
N1417  N     0.14334   0.91185   0.32011   0.00000  Uiso   1.00
H1418  H     0.12121   0.92163   0.33543   0.00000  Uiso   1.00
C1419  C     0.16971   0.89366   0.34485   0.00000  Uiso   1.00
H1420  H     0.17931   0.91294   0.36763   0.00000  Uiso   1.00
H1421  H     0.19373   0.88437   0.32785   0.00000  Uiso   1.00
H1422  H     0.15730   0.86958   0.35933   0.00000  Uiso   1.00
N1423  N     0.36017   0.58422   0.68137   0.00000  Uiso   1.00
H1424  H     0.36106   0.59810   0.65533   0.00000  Uiso   1.00
C1425  C     0.38055   0.55042   0.68019   0.00000  Uiso   1.00
H1426  H     0.37371   0.53528   0.65317   0.00000  Uiso   1.00
H1427  H     0.37350   0.53292   0.70553   0.00000  Uiso   1.00
H1428  H     0.41037   0.55608   0.68030   0.00000  Uiso   1.00
C1429  C     0.49466   0.81893   0.39759   0.00000  Uiso   1.00
H1430  H     0.00491   0.84283   0.41282   0.00000  Uiso   1.00
O1431  O     0.48366   0.82258   0.36425   0.00000  Uiso   1.00
C1432  C     0.49410   0.68205   0.60201   0.00000  Uiso   1.00
H1433  H     0.49683   0.67986   0.63337   0.00000  Uiso   1.00
O1434  O     0.48212   0.65578   0.58415   0.00000  Uiso   1.00
C1435  C     0.18180   0.99481   0.39763   0.00000  Uiso   1.00
H1436  H     0.17980   0.99774   0.36627   0.00000  Uiso   1.00
O1437  O     0.15531   0.98304   0.41526   0.00000  Uiso   1.00
C1438  C     0.31880   0.99483   0.60206   0.00000  Uiso   1.00
H1439  H     0.34257   0.50490   0.58650   0.00000  Uiso   1.00
O1440  O     0.32266   0.98437   0.63557   0.00000  Uiso   1.00
C1441  C     0.00512   0.68137   0.39812   0.00000  Uiso   1.00
H1442  H     0.49494   0.65769   0.41376   0.00000  Uiso   1.00
O1443  O     0.01556   0.67737   0.36463   0.00000  Uiso   1.00
C1444  C     0.00667   0.81820   0.60301   0.00000  Uiso   1.00
H1445  H     0.00231   0.82034   0.63416   0.00000  Uiso   1.00
O1446  O     0.02052   0.84409   0.58608   0.00000  Uiso   1.00
C1447  C     0.31821   0.50521   0.39762   0.00000  Uiso   1.00
H1448  H     0.32021   0.50226   0.36627   0.00000  Uiso   1.00
O1449  O     0.34469   0.51703   0.41525   0.00000  Uiso   1.00
C1450  C     0.18120   0.50518   0.60206   0.00000  Uiso   1.00
H1451  H     0.15742   0.99511   0.58650   0.00000  Uiso   1.00
O1452  O     0.17734   0.51562   0.63557   0.00000  Uiso   1.00
C1453  C     0.24450   0.56892   0.89760   0.00000  Uiso   1.00
H1454  H     0.25469   0.59284   0.91284   0.00000  Uiso   1.00
O1455  O     0.23352   0.57255   0.86426   0.00000  Uiso   1.00
C1456  C     0.24426   0.93203   0.10200   0.00000  Uiso   1.00
H1457  H     0.24698   0.92986   0.13337   0.00000  Uiso   1.00
O1458  O     0.23237   0.90573   0.08415   0.00000  Uiso   1.00
C1459  C     0.43181   0.74467   0.89762   0.00000  Uiso   1.00
H1460  H     0.42980   0.74762   0.86627   0.00000  Uiso   1.00
O1461  O     0.40534   0.73282   0.91525   0.00000  Uiso   1.00
C1462  C     0.06881   0.74498   0.10207   0.00000  Uiso   1.00
H1463  H     0.09256   0.75511   0.08651   0.00000  Uiso   1.00
O1464  O     0.07268   0.73453   0.13557   0.00000  Uiso   1.00
C1465  C     0.25526   0.93138   0.89813   0.00000  Uiso   1.00
H1466  H     0.24515   0.90767   0.91379   0.00000  Uiso   1.00
O1467  O     0.26567   0.92740   0.86463   0.00000  Uiso   1.00
C1468  C     0.25654   0.56821   0.10301   0.00000  Uiso   1.00
H1469  H     0.25219   0.57034   0.13416   0.00000  Uiso   1.00
O1470  O     0.27031   0.59413   0.08607   0.00000  Uiso   1.00
C1471  C     0.06820   0.75533   0.89762   0.00000  Uiso   1.00
H1472  H     0.07021   0.75236   0.86627   0.00000  Uiso   1.00
O1473  O     0.09465   0.76720   0.91524   0.00000  Uiso   1.00
C1474  C     0.43120   0.75505   0.10207   0.00000  Uiso   1.00
H1475  H     0.40744   0.74491   0.08653   0.00000  Uiso   1.00
O1476  O     0.42732   0.76553   0.13557   0.00000  Uiso   1.00
C1477  C     0.99328   0.78302   0.41828   0.00000  Uiso   1.00
C1478  C     0.50252   0.71705   0.58158   0.00000  Uiso   1.00
C1479  C     0.71680   0.50271   0.41829   0.00000  Uiso   1.00
C1480  C     0.78278   0.99302   0.58163   0.00000  Uiso   1.00
C1481  C     0.50711   0.71744   0.41844   0.00000  Uiso   1.00
C1482  C     0.99831   0.78356   0.58189   0.00000  Uiso   1.00
C1483  C     0.78322   0.99730   0.41829   0.00000  Uiso   1.00
C1484  C     0.71722   0.50698   0.58163   0.00000  Uiso   1.00
C1485  C     0.74320   0.53300   0.91829   0.00000  Uiso   1.00
C1486  C     0.75261   0.96705   0.08158   0.00000  Uiso   1.00
C1487  C     0.96679   0.75263   0.91829   0.00000  Uiso   1.00
C1488  C     0.53279   0.74309   0.08163   0.00000  Uiso   1.00
C1489  C     0.75718   0.96745   0.91844   0.00000  Uiso   1.00
C1490  C     0.74824   0.53356   0.08189   0.00000  Uiso   1.00
C1491  C     0.53322   0.74736   0.91829   0.00000  Uiso   1.00
C1492  C     0.96721   0.75692   0.08163   0.00000  Uiso   1.00
C1493  C     0.50005   0.75015   0.39812   0.00000  Uiso   1.00
C1494  C     0.50009   0.75019   0.60198   0.00000  Uiso   1.00
C1495  C     0.75001   0.50000   0.39802   0.00000  Uiso   1.00
C1496  C     0.75000   0.50000   0.60188   0.00000  Uiso   1.00
C1497  C     0.75005   0.50015   0.89812   0.00000  Uiso   1.00
C1498  C     0.75009   0.50019   0.10198   0.00000  Uiso   1.00
C1499  C     0.50001   0.75000   0.89802   0.00000  Uiso   1.00
C1500  C     0.50000   0.75000   0.10188   0.00000  Uiso   1.00
C1501  C     0.52977   0.69015   0.48024   0.00000  Uiso   1.00
C1502  C     0.97432   0.81193   0.52133   0.00000  Uiso   1.00
C1503  C     0.81061   0.97193   0.47870   0.00000  Uiso   1.00
C1504  C     0.68994   0.52962   0.51979   0.00000  Uiso   1.00
C1505  C     0.97173   0.81082   0.48024   0.00000  Uiso   1.00
C1506  C     0.52806   0.68957   0.52133   0.00000  Uiso   1.00
C1507  C     0.68941   0.52808   0.47869   0.00000  Uiso   1.00
C1508  C     0.81006   0.97036   0.51980   0.00000  Uiso   1.00
C1509  C     0.77991   0.94022   0.98024   0.00000  Uiso   1.00
C1510  C     0.72418   0.56186   0.02134   0.00000  Uiso   1.00
C1511  C     0.56067   0.72205   0.97870   0.00000  Uiso   1.00
C1512  C     0.93987   0.77949   0.01979   0.00000  Uiso   1.00
C1513  C     0.72159   0.56075   0.98024   0.00000  Uiso   1.00
C1514  C     0.77821   0.93964   0.02133   0.00000  Uiso   1.00
C1515  C     0.93935   0.77794   0.97869   0.00000  Uiso   1.00
C1516  C     0.56012   0.72049   0.01981   0.00000  Uiso   1.00
C1517  C     0.75000   0.50000   0.35572   0.00000  Uiso   1.00
C1518  C     0.75000   0.50000   0.64424   0.00000  Uiso   1.00
C1519  C     0.50000   0.75003   0.35576   0.00000  Uiso   1.00
C1520  C     0.50001   0.74998   0.64428   0.00000  Uiso   1.00
C1521  C     0.50001   0.75000   0.85572   0.00000  Uiso   1.00
C1522  C     0.50000   0.75000   0.14424   0.00000  Uiso   1.00
C1523  C     0.75000   0.50003   0.85576   0.00000  Uiso   1.00
C1524  C     0.75001   0.99998   0.14428   0.00000  Uiso   1.00
C1525  C     0.68002   0.56999   0.24998   0.00000  Uiso   1.00
C1526  C     0.82006   0.92995   0.74999   0.00000  Uiso   1.00
C1527  C     0.93002   0.68002   0.25000   0.00000  Uiso   1.00
C1528  C     0.57004   0.82003   0.75000   0.00000  Uiso   1.00
C1529  C     0.81999   0.93002   0.25000   0.00000  Uiso   1.00
C1530  C     0.67994   0.57005   0.75000   0.00000  Uiso   1.00
C1531  C     0.56998   0.81997   0.25000   0.00000  Uiso   1.00
C1532  C     0.92996   0.67997   0.75000   0.00000  Uiso   1.00
C1533  C     0.68002   0.93002   0.75000   0.00000  Uiso   1.00
C1534  C     0.82004   0.57003   0.25000   0.00000  Uiso   1.00
C1535  C     0.93002   0.81999   0.74998   0.00000  Uiso   1.00
C1536  C     0.57006   0.67995   0.24999   0.00000  Uiso   1.00
C1537  C     0.81998   0.56997   0.75000   0.00000  Uiso   1.00
C1538  C     0.67996   0.92997   0.25000   0.00000  Uiso   1.00
C1539  C     0.56999   0.68002   0.75000   0.00000  Uiso   1.00
C1540  C     0.92994   0.82005   0.25000   0.00000  Uiso   1.00
C1541  C     0.64275   0.88418   0.21480   0.00000  Uiso   1.00
C1542  C     0.85581   0.61683   0.78476   0.00000  Uiso   1.00
C1543  C     0.61174   0.63853   0.21418   0.00000  Uiso   1.00
C1544  C     0.88702   0.85969   0.78561   0.00000  Uiso   1.00
C1545  C     0.85760   0.61547   0.21471   0.00000  Uiso   1.00
C1546  C     0.64400   0.88335   0.78483   0.00000  Uiso   1.00
C1547  C     0.88790   0.86112   0.21421   0.00000  Uiso   1.00
C1548  C     0.61330   0.64063   0.78560   0.00000  Uiso   1.00
C1549  C     0.63885   0.61207   0.78579   0.00000  Uiso   1.00
C1550  C     0.85936   0.88669   0.21440   0.00000  Uiso   1.00
C1551  C     0.61547   0.85760   0.78532   0.00000  Uiso   1.00
C1552  C     0.88333   0.64402   0.21520   0.00000  Uiso   1.00
C1553  C     0.86148   0.88826   0.78577   0.00000  Uiso   1.00
C1554  C     0.64027   0.61295   0.21432   0.00000  Uiso   1.00
C1555  C     0.88433   0.64259   0.78526   0.00000  Uiso   1.00
C1556  C     0.61700   0.85566   0.21531   0.00000  Uiso   1.00
C1557  C     0.89258   0.63435   0.71475   0.00000  Uiso   1.00
C1558  C     0.60565   0.86699   0.28469   0.00000  Uiso   1.00
C1559  C     0.86171   0.88850   0.71417   0.00000  Uiso   1.00
C1560  C     0.63700   0.60967   0.28560   0.00000  Uiso   1.00
C1561  C     0.60765   0.86543   0.71469   0.00000  Uiso   1.00
C1562  C     0.89404   0.63331   0.28481   0.00000  Uiso   1.00
C1563  C     0.63791   0.61113   0.71421   0.00000  Uiso   1.00
C1564  C     0.86332   0.89065   0.28560   0.00000  Uiso   1.00
C1565  C     0.88887   0.86208   0.28579   0.00000  Uiso   1.00
C1566  C     0.60937   0.63671   0.71439   0.00000  Uiso   1.00
C1567  C     0.86552   0.60756   0.28530   0.00000  Uiso   1.00
C1568  C     0.63337   0.89398   0.71518   0.00000  Uiso   1.00
C1569  C     0.61146   0.63824   0.28577   0.00000  Uiso   1.00
C1570  C     0.89025   0.86292   0.71431   0.00000  Uiso   1.00
C1571  C     0.63416   0.89276   0.28521   0.00000  Uiso   1.00
C1572  C     0.86683   0.60582   0.71525   0.00000  Uiso   1.00
C1573  C     0.51243   0.71890   0.45927   0.00000  Uiso   1.00
C1574  C     0.99153   0.78272   0.54129   0.00000  Uiso   1.00
C1575  C     0.78196   0.99002   0.45874   0.00000  Uiso   1.00
C1576  C     0.71858   0.51209   0.54077   0.00000  Uiso   1.00
C1577  C     0.98873   0.78190   0.45924   0.00000  Uiso   1.00
C1578  C     0.51018   0.71839   0.54123   0.00000  Uiso   1.00
C1579  C     0.71806   0.50998   0.45874   0.00000  Uiso   1.00
C1580  C     0.78142   0.98791   0.54077   0.00000  Uiso   1.00
C1581  C     0.76251   0.96893   0.95927   0.00000  Uiso   1.00
C1582  C     0.74146   0.53270   0.04129   0.00000  Uiso   1.00
C1583  C     0.53197   0.74008   0.95874   0.00000  Uiso   1.00
C1584  C     0.96856   0.76202   0.04077   0.00000  Uiso   1.00
C1585  C     0.73866   0.53187   0.95924   0.00000  Uiso   1.00
C1586  C     0.76026   0.96841   0.04123   0.00000  Uiso   1.00
C1587  C     0.96804   0.75991   0.95874   0.00000  Uiso   1.00
C1588  C     0.53144   0.73797   0.04077   0.00000  Uiso   1.00
C1589  C     0.59803   0.84803   0.25000   0.00000  Uiso   1.00
C1590  C     0.90183   0.65184   0.75001   0.00000  Uiso   1.00
C1591  C     0.65197   0.59803   0.24997   0.00000  Uiso   1.00
C1592  C     0.84821   0.90180   0.74998   0.00000  Uiso   1.00
C1593  C     0.90197   0.65197   0.25001   0.00000  Uiso   1.00
C1594  C     0.59818   0.84815   0.75001   0.00000  Uiso   1.00
C1595  C     0.84803   0.90197   0.25000   0.00000  Uiso   1.00
C1596  C     0.65178   0.59819   0.75000   0.00000  Uiso   1.00
C1597  C     0.59803   0.65197   0.75000   0.00000  Uiso   1.00
C1598  C     0.90178   0.84820   0.25000   0.00000  Uiso   1.00
C1599  C     0.65197   0.90197   0.75001   0.00000  Uiso   1.00
C1600  C     0.84818   0.59815   0.25001   0.00000  Uiso   1.00
C1601  C     0.90197   0.84803   0.74996   0.00000  Uiso   1.00
C1602  C     0.59821   0.65180   0.24998   0.00000  Uiso   1.00
C1603  C     0.84803   0.59803   0.75000   0.00000  Uiso   1.00
C1604  C     0.65183   0.90184   0.25000   0.00000  Uiso   1.00
C1605  C     0.50075   0.75049   0.47968   0.00000  Uiso   1.00
C1606  C     0.50084   0.75055   0.52064   0.00000  Uiso   1.00
C1607  C     0.75001   0.50000   0.47937   0.00000  Uiso   1.00
C1608  C     0.75000   0.50000   0.52033   0.00000  Uiso   1.00
C1609  C     0.75075   0.50049   0.97969   0.00000  Uiso   1.00
C1610  C     0.75084   0.50055   0.02064   0.00000  Uiso   1.00
C1611  C     0.50001   0.74999   0.97937   0.00000  Uiso   1.00
C1612  C     0.50000   0.75000   0.02033   0.00000  Uiso   1.00
O1613  O     0.75000   0.50000   0.25000   0.00000  Uiso   1.00
O1614  O     0.75000   0.50000   0.75000   0.00000  Uiso   1.00
O1615  O     0.50000   0.75000   0.25000   0.00000  Uiso   1.00
O1616  O     0.50000   0.75000   0.75000   0.00000  Uiso   1.00
O1617  O     0.75000   0.96963   0.33755   0.00000  Uiso   1.00
O1618  O     0.75000   0.53036   0.66245   0.00000  Uiso   1.00
O1619  O     0.53037   0.75000   0.33755   0.00000  Uiso   1.00
O1620  O     0.96964   0.75000   0.66245   0.00000  Uiso   1.00
O1621  O     0.75000   0.53036   0.33755   0.00000  Uiso   1.00
O1622  O     0.75000   0.96963   0.66245   0.00000  Uiso   1.00
O1623  O     0.96964   0.75000   0.33755   0.00000  Uiso   1.00
O1624  O     0.53037   0.75000   0.66245   0.00000  Uiso   1.00
O1625  O     0.50000   0.71963   0.83755   0.00000  Uiso   1.00
O1626  O     0.50000   0.78036   0.16245   0.00000  Uiso   1.00
O1627  O     0.78037   0.50000   0.83755   0.00000  Uiso   1.00
O1628  O     0.71964   0.50000   0.16245   0.00000  Uiso   1.00
O1629  O     0.50000   0.78036   0.83755   0.00000  Uiso   1.00
O1630  O     0.50000   0.71963   0.16245   0.00000  Uiso   1.00
O1631  O     0.71964   0.50000   0.83755   0.00000  Uiso   1.00
O1632  O     0.78037   0.50000   0.16245   0.00000  Uiso   1.00
O1633  O     0.70725   0.57307   0.27302   0.00000  Uiso   1.00
O1634  O     0.79276   0.92692   0.72698   0.00000  Uiso   1.00
O1635  O     0.92693   0.70724   0.27302   0.00000  Uiso   1.00
O1636  O     0.57308   0.79275   0.72698   0.00000  Uiso   1.00
O1637  O     0.79276   0.92692   0.27302   0.00000  Uiso   1.00
O1638  O     0.70725   0.57307   0.72698   0.00000  Uiso   1.00
O1639  O     0.57308   0.79275   0.27302   0.00000  Uiso   1.00
O1640  O     0.92693   0.70724   0.72698   0.00000  Uiso   1.00
O1641  O     0.70725   0.92692   0.72698   0.00000  Uiso   1.00
O1642  O     0.79276   0.57307   0.27302   0.00000  Uiso   1.00
O1643  O     0.92693   0.79275   0.72698   0.00000  Uiso   1.00
O1644  O     0.57308   0.70724   0.27302   0.00000  Uiso   1.00
O1645  O     0.79276   0.57307   0.72698   0.00000  Uiso   1.00
O1646  O     0.70725   0.92692   0.27302   0.00000  Uiso   1.00
O1647  O     0.57308   0.70724   0.72698   0.00000  Uiso   1.00
O1648  O     0.92693   0.79275   0.27302   0.00000  Uiso   1.00
O1649  O     0.95725   0.82307   0.77302   0.00000  Uiso   1.00
O1650  O     0.54276   0.67692   0.22698   0.00000  Uiso   1.00
O1651  O     0.67693   0.95724   0.77302   0.00000  Uiso   1.00
O1652  O     0.82308   0.54275   0.22698   0.00000  Uiso   1.00
O1653  O     0.54276   0.67692   0.77302   0.00000  Uiso   1.00
O1654  O     0.95725   0.82307   0.22698   0.00000  Uiso   1.00
O1655  O     0.82308   0.54275   0.77302   0.00000  Uiso   1.00
O1656  O     0.67693   0.95724   0.22698   0.00000  Uiso   1.00
O1657  O     0.95725   0.67692   0.22698   0.00000  Uiso   1.00
O1658  O     0.54276   0.82307   0.77302   0.00000  Uiso   1.00
O1659  O     0.67693   0.54275   0.22698   0.00000  Uiso   1.00
O1660  O     0.82308   0.95724   0.77302   0.00000  Uiso   1.00
O1661  O     0.54276   0.82307   0.22698   0.00000  Uiso   1.00
O1662  O     0.95725   0.67692   0.77302   0.00000  Uiso   1.00
O1663  O     0.82308   0.95724   0.22698   0.00000  Uiso   1.00
O1664  O     0.67693   0.54275   0.77302   0.00000  Uiso   1.00
Zn1665 Zn    0.70660   0.50000   0.21735   0.00000  Uiso   1.00
Zn1666 Zn    0.79341   0.50000   0.78265   0.00000  Uiso   1.00
Zn1667 Zn    0.50000   0.70659   0.21735   0.00000  Uiso   1.00
Zn1668 Zn    0.50000   0.79340   0.78265   0.00000  Uiso   1.00
Zn1669 Zn    0.79341   0.50000   0.21735   0.00000  Uiso   1.00
Zn1670 Zn    0.70660   0.50000   0.78265   0.00000  Uiso   1.00
Zn1671 Zn    0.50000   0.79340   0.21735   0.00000  Uiso   1.00
Zn1672 Zn    0.50000   0.70659   0.78265   0.00000  Uiso   1.00
Zn1673 Zn    0.95660   0.75000   0.71735   0.00000  Uiso   1.00
Zn1674 Zn    0.54341   0.75000   0.28265   0.00000  Uiso   1.00
Zn1675 Zn    0.75000   0.95659   0.71735   0.00000  Uiso   1.00
Zn1676 Zn    0.75000   0.54340   0.28265   0.00000  Uiso   1.00
Zn1677 Zn    0.54341   0.75000   0.71735   0.00000  Uiso   1.00
Zn1678 Zn    0.95660   0.75000   0.28265   0.00000  Uiso   1.00
Zn1679 Zn    0.75000   0.54340   0.71735   0.00000  Uiso   1.00
Zn1680 Zn    0.75000   0.95659   0.28265   0.00000  Uiso   1.00
C1681  C     0.55450   0.66387   0.46023   0.00000  Uiso   1.00
H1682  H     0.55427   0.63517   0.46793   0.00000  Uiso   1.00
O1683  O     0.57612   0.67448   0.43560   0.00000  Uiso   1.00
C1684  C     0.95335   0.83964   0.54396   0.00000  Uiso   1.00
H1685  H     0.93840   0.83133   0.56980   0.00000  Uiso   1.00
O1686  O     0.95396   0.87193   0.53518   0.00000  Uiso   1.00
C1687  C     0.83775   0.94941   0.45697   0.00000  Uiso   1.00
H1688  H     0.86599   0.94827   0.46635   0.00000  Uiso   1.00
O1689  O     0.82842   0.93114   0.42891   0.00000  Uiso   1.00
C1690  C     0.66377   0.55445   0.53984   0.00000  Uiso   1.00
H1691  H     0.63504   0.55424   0.53222   0.00000  Uiso   1.00
O1692  O     0.67450   0.57611   0.56435   0.00000  Uiso   1.00
C1693  C     0.94607   0.83615   0.46022   0.00000  Uiso   1.00
H1694  H     0.94711   0.86528   0.46555   0.00000  Uiso   1.00
O1695  O     0.92315   0.82429   0.43767   0.00000  Uiso   1.00
C1696  C     0.55022   0.66221   0.54313   0.00000  Uiso   1.00
H1697  H     0.55118   0.63397   0.53370   0.00000  Uiso   1.00
O1698  O     0.56842   0.67133   0.57134   0.00000  Uiso   1.00
C1699  C     0.66232   0.55065   0.45696   0.00000  Uiso   1.00
H1700  H     0.63407   0.55181   0.46631   0.00000  Uiso   1.00
O1701  O     0.67170   0.56895   0.42894   0.00000  Uiso   1.00
C1702  C     0.83619   0.94551   0.53985   0.00000  Uiso   1.00
H1703  H     0.86492   0.94564   0.53221   0.00000  Uiso   1.00
O1704  O     0.82545   0.92391   0.56443   0.00000  Uiso   1.00
C1705  C     0.80471   0.91400   0.96022   0.00000  Uiso   1.00
H1706  H     0.80455   0.88530   0.96792   0.00000  Uiso   1.00
O1707  O     0.82629   0.92466   0.93558   0.00000  Uiso   1.00
C1708  C     0.70315   0.58953   0.04396   0.00000  Uiso   1.00
H1709  H     0.68822   0.58119   0.06981   0.00000  Uiso   1.00
O1710  O     0.70368   0.62182   0.03518   0.00000  Uiso   1.00
C1711  C     0.58784   0.69958   0.95698   0.00000  Uiso   1.00
H1712  H     0.61609   0.69849   0.96635   0.00000  Uiso   1.00
O1713  O     0.57854   0.68127   0.92893   0.00000  Uiso   1.00
C1714  C     0.91365   0.80425   0.03983   0.00000  Uiso   1.00
H1715  H     0.88492   0.80398   0.03222   0.00000  Uiso   1.00
O1716  O     0.92433   0.82595   0.06434   0.00000  Uiso   1.00
C1717  C     0.69587   0.58602   0.96022   0.00000  Uiso   1.00
H1718  H     0.69683   0.61515   0.96556   0.00000  Uiso   1.00
O1719  O     0.67297   0.57410   0.93768   0.00000  Uiso   1.00
C1720  C     0.80044   0.91232   0.04313   0.00000  Uiso   1.00
H1721  H     0.80148   0.88410   0.03369   0.00000  Uiso   1.00
O1722  O     0.81860   0.92148   0.07135   0.00000  Uiso   1.00
C1723  C     0.91221   0.80045   0.95696   0.00000  Uiso   1.00
H1724  H     0.88395   0.80154   0.96630   0.00000  Uiso   1.00
O1725  O     0.92155   0.81879   0.92895   0.00000  Uiso   1.00
C1726  C     0.58631   0.69570   0.03986   0.00000  Uiso   1.00
H1727  H     0.61503   0.69589   0.03222   0.00000  Uiso   1.00
O1728  O     0.57561   0.67408   0.06444   0.00000  Uiso   1.00
N1729  N     0.66180   0.89341   0.17988   0.00000  Uiso   1.00
H1730  H     0.67159   0.87130   0.16454   0.00000  Uiso   1.00
C1731  C     0.64354   0.91976   0.15518   0.00000  Uiso   1.00
H1732  H     0.61942   0.90734   0.14077   0.00000  Uiso   1.00
H1733  H     0.66277   0.92936   0.13236   0.00000  Uiso   1.00
H1734  H     0.63428   0.94378   0.17221   0.00000  Uiso   1.00
N1735  N     0.83423   0.61013   0.81864   0.00000  Uiso   1.00
H1736  H     0.84810   0.61106   0.84468   0.00000  Uiso   1.00
C1737  C     0.80036   0.63041   0.81983   0.00000  Uiso   1.00
H1738  H     0.80595   0.66025   0.81981   0.00000  Uiso   1.00
H1739  H     0.78292   0.62338   0.79444   0.00000  Uiso   1.00
H1740  H     0.78520   0.62345   0.84680   0.00000  Uiso   1.00
N1741  N     0.59831   0.65312   0.17841   0.00000  Uiso   1.00
H1742  H     0.61824   0.66117   0.15900   0.00000  Uiso   1.00
C1743  C     0.56942   0.63208   0.16018   0.00000  Uiso   1.00
H1744  H     0.58066   0.60768   0.14530   0.00000  Uiso   1.00
H1745  H     0.55535   0.64931   0.13826   0.00000  Uiso   1.00
H1746  H     0.54892   0.62289   0.18194   0.00000  Uiso   1.00
N1747  N     0.89710   0.84176   0.82090   0.00000  Uiso   1.00
H1748  H     0.89928   0.85837   0.84497   0.00000  Uiso   1.00
C1749  C     0.87657   0.80877   0.82876   0.00000  Uiso   1.00
H1750  H     0.84695   0.81494   0.83105   0.00000  Uiso   1.00
H1751  H     0.88574   0.79680   0.85675   0.00000  Uiso   1.00
H1752  H     0.88102   0.78835   0.80532   0.00000  Uiso   1.00
N1753  N     0.83893   0.60589   0.17967   0.00000  Uiso   1.00
H1754  H     0.82924   0.62783   0.16398   0.00000  Uiso   1.00
C1755  C     0.85749   0.57934   0.15546   0.00000  Uiso   1.00
H1756  H     0.88167   0.59171   0.14112   0.00000  Uiso   1.00
H1757  H     0.83849   0.56942   0.13258   0.00000  Uiso   1.00
H1758  H     0.86671   0.55555   0.17287   0.00000  Uiso   1.00
N1759  N     0.66542   0.89019   0.81879   0.00000  Uiso   1.00
H1760  H     0.65142   0.88943   0.84476   0.00000  Uiso   1.00
C1761  C     0.69923   0.86984   0.82029   0.00000  Uiso   1.00
H1762  H     0.69359   0.84001   0.82030   0.00000  Uiso   1.00
H1763  H     0.71686   0.87678   0.79502   0.00000  Uiso   1.00
H1764  H     0.71422   0.87681   0.84737   0.00000  Uiso   1.00
N1765  N     0.90102   0.84620   0.17847   0.00000  Uiso   1.00
H1766  H     0.88092   0.83796   0.15935   0.00000  Uiso   1.00
C1767  C     0.92972   0.86713   0.15975   0.00000  Uiso   1.00
H1768  H     0.91829   0.89130   0.14463   0.00000  Uiso   1.00
H1769  H     0.94371   0.84968   0.13797   0.00000  Uiso   1.00
H1770  H     0.95033   0.87663   0.18124   0.00000  Uiso   1.00
N1771  N     0.60349   0.65885   0.82082   0.00000  Uiso   1.00
H1772  H     0.60154   0.64244   0.84506   0.00000  Uiso   1.00
C1773  C     0.62404   0.69192   0.82817   0.00000  Uiso   1.00
H1774  H     0.65369   0.68582   0.83022   0.00000  Uiso   1.00
H1775  H     0.61511   0.70410   0.85615   0.00000  Uiso   1.00
H1776  H     0.61935   0.71215   0.80460   0.00000  Uiso   1.00
N1777  N     0.65377   0.59896   0.82153   0.00000  Uiso   1.00
H1778  H     0.66205   0.61908   0.84061   0.00000  Uiso   1.00
C1779  C     0.63278   0.57035   0.84033   0.00000  Uiso   1.00
H1780  H     0.65003   0.55672   0.86255   0.00000  Uiso   1.00
H1781  H     0.62369   0.54945   0.81897   0.00000  Uiso   1.00
H1782  H     0.60834   0.58179   0.85493   0.00000  Uiso   1.00
N1783  N     0.84122   0.89659   0.17916   0.00000  Uiso   1.00
H1784  H     0.85766   0.89850   0.15495   0.00000  Uiso   1.00
C1785  C     0.80806   0.87620   0.17175   0.00000  Uiso   1.00
H1786  H     0.79585   0.88535   0.14386   0.00000  Uiso   1.00
H1787  H     0.78788   0.88081   0.19539   0.00000  Uiso   1.00
H1788  H     0.81407   0.84655   0.16948   0.00000  Uiso   1.00
N1789  N     0.60594   0.83887   0.82034   0.00000  Uiso   1.00
H1790  H     0.62792   0.82921   0.83599   0.00000  Uiso   1.00
C1791  C     0.57937   0.85733   0.84460   0.00000  Uiso   1.00
H1792  H     0.56950   0.83826   0.86745   0.00000  Uiso   1.00
H1793  H     0.55554   0.86653   0.82723   0.00000  Uiso   1.00
H1794  H     0.59169   0.88151   0.85899   0.00000  Uiso   1.00
N1795  N     0.89011   0.66548   0.18126   0.00000  Uiso   1.00
H1796  H     0.88936   0.65150   0.15528   0.00000  Uiso   1.00
C1797  C     0.86969   0.69924   0.17981   0.00000  Uiso   1.00
H1798  H     0.87659   0.71427   0.15274   0.00000  Uiso   1.00
H1799  H     0.87662   0.71687   0.20509   0.00000  Uiso   1.00
H1800  H     0.83987   0.69353   0.17983   0.00000  Uiso   1.00
N1801  N     0.84693   0.90171   0.82154   0.00000  Uiso   1.00
H1802  H     0.83880   0.88178   0.84092   0.00000  Uiso   1.00
C1803  C     0.86813   0.93046   0.83980   0.00000  Uiso   1.00
H1804  H     0.85110   0.94437   0.86201   0.00000  Uiso   1.00
H1805  H     0.87710   0.95112   0.81811   0.00000  Uiso   1.00
H1806  H     0.89267   0.91912   0.85432   0.00000  Uiso   1.00
N1807  N     0.65797   0.60263   0.17896   0.00000  Uiso   1.00
H1808  H     0.64120   0.60036   0.15504   0.00000  Uiso   1.00
C1809  C     0.69097   0.62299   0.17071   0.00000  Uiso   1.00
H1810  H     0.70260   0.61374   0.14258   0.00000  Uiso   1.00
H1811  H     0.71160   0.61845   0.19393   0.00000  Uiso   1.00
H1812  H     0.68494   0.65264   0.16846   0.00000  Uiso   1.00
N1813  N     0.89367   0.66151   0.82022   0.00000  Uiso   1.00
H1814  H     0.87161   0.67123   0.83570   0.00000  Uiso   1.00
C1815  C     0.92014   0.64320   0.84474   0.00000  Uiso   1.00
H1816  H     0.92987   0.66238   0.86755   0.00000  Uiso   1.00
H1817  H     0.94407   0.63395   0.82756   0.00000  Uiso   1.00
H1818  H     0.90777   0.61907   0.85918   0.00000  Uiso   1.00
N1819  N     0.61049   0.83390   0.18151   0.00000  Uiso   1.00
H1820  H     0.61151   0.84766   0.15541   0.00000  Uiso   1.00
C1821  C     0.63085   0.80009   0.18062   0.00000  Uiso   1.00
H1822  H     0.62413   0.78482   0.15365   0.00000  Uiso   1.00
H1823  H     0.62370   0.78272   0.20602   0.00000  Uiso   1.00
H1824  H     0.66068   0.80575   0.18085   0.00000  Uiso   1.00
N1825  N     0.91147   0.64373   0.67978   0.00000  Uiso   1.00
H1826  H     0.92121   0.62169   0.66428   0.00000  Uiso   1.00
C1827  C     0.89310   0.67018   0.65529   0.00000  Uiso   1.00
H1828  H     0.86895   0.65780   0.64091   0.00000  Uiso   1.00
H1829  H     0.91224   0.67991   0.63244   0.00000  Uiso   1.00
H1830  H     0.88387   0.69411   0.67248   0.00000  Uiso   1.00
N1831  N     0.58391   0.86044   0.31850   0.00000  Uiso   1.00
H1832  H     0.59766   0.86150   0.34460   0.00000  Uiso   1.00
C1833  C     0.55004   0.88071   0.31940   0.00000  Uiso   1.00
H1834  H     0.55561   0.91056   0.31926   0.00000  Uiso   1.00
H1835  H     0.53272   0.87357   0.29395   0.00000  Uiso   1.00
H1836  H     0.53474   0.87388   0.34632   0.00000  Uiso   1.00
N1837  N     0.84826   0.90307   0.67840   0.00000  Uiso   1.00
H1838  H     0.86818   0.91110   0.65897   0.00000  Uiso   1.00
C1839  C     0.81935   0.88201   0.66022   0.00000  Uiso   1.00
H1840  H     0.83058   0.85761   0.64534   0.00000  Uiso   1.00
H1841  H     0.80526   0.89923   0.63830   0.00000  Uiso   1.00
H1842  H     0.79887   0.87284   0.68201   0.00000  Uiso   1.00
N1843  N     0.64705   0.59172   0.32090   0.00000  Uiso   1.00
H1844  H     0.64922   0.60831   0.34497   0.00000  Uiso   1.00
C1845  C     0.62650   0.55873   0.32871   0.00000  Uiso   1.00
H1846  H     0.59687   0.56490   0.33096   0.00000  Uiso   1.00
H1847  H     0.63561   0.54676   0.35672   0.00000  Uiso   1.00
H1848  H     0.63098   0.53831   0.30528   0.00000  Uiso   1.00
N1849  N     0.58902   0.85581   0.67964   0.00000  Uiso   1.00
H1850  H     0.57935   0.87773   0.66392   0.00000  Uiso   1.00
C1851  C     0.60761   0.82924   0.65549   0.00000  Uiso   1.00
H1852  H     0.63183   0.84159   0.64119   0.00000  Uiso   1.00
H1853  H     0.58865   0.81931   0.63257   0.00000  Uiso   1.00
H1854  H     0.61679   0.80545   0.67293   0.00000  Uiso   1.00
N1855  N     0.91551   0.64011   0.31876   0.00000  Uiso   1.00
H1856  H     0.90153   0.63931   0.34474   0.00000  Uiso   1.00
C1857  C     0.94931   0.61975   0.32018   0.00000  Uiso   1.00
H1858  H     0.94366   0.58992   0.32015   0.00000  Uiso   1.00
H1859  H     0.96691   0.62671   0.29490   0.00000  Uiso   1.00
H1860  H     0.96433   0.62667   0.34725   0.00000  Uiso   1.00
N1861  N     0.65104   0.59623   0.67847   0.00000  Uiso   1.00
H1862  H     0.63096   0.58799   0.65933   0.00000  Uiso   1.00
C1863  C     0.67976   0.61715   0.65978   0.00000  Uiso   1.00
H1864  H     0.66834   0.64129   0.64459   0.00000  Uiso   1.00
H1865  H     0.69381   0.59968   0.63806   0.00000  Uiso   1.00
H1866  H     0.70033   0.62670   0.68129   0.00000  Uiso   1.00
N1867  N     0.85354   0.90889   0.32081   0.00000  Uiso   1.00
H1868  H     0.85160   0.89249   0.34506   0.00000  Uiso   1.00
C1869  C     0.87410   0.94196   0.32813   0.00000  Uiso   1.00
H1870  H     0.90376   0.93585   0.33014   0.00000  Uiso   1.00
H1871  H     0.86521   0.95415   0.35612   0.00000  Uiso   1.00
H1872  H     0.86940   0.96218   0.30456   0.00000  Uiso   1.00
N1873  N     0.90382   0.84900   0.32153   0.00000  Uiso   1.00
H1874  H     0.91210   0.86913   0.34059   0.00000  Uiso   1.00
C1875  C     0.88284   0.82040   0.34036   0.00000  Uiso   1.00
H1876  H     0.90010   0.80680   0.36259   0.00000  Uiso   1.00
H1877  H     0.87374   0.79948   0.31903   0.00000  Uiso   1.00
H1878  H     0.85839   0.83185   0.35497   0.00000  Uiso   1.00
N1879  N     0.59126   0.64664   0.67915   0.00000  Uiso   1.00
H1880  H     0.60772   0.64856   0.65495   0.00000  Uiso   1.00
C1881  C     0.55809   0.62628   0.67170   0.00000  Uiso   1.00
H1882  H     0.54589   0.63548   0.64383   0.00000  Uiso   1.00
H1883  H     0.53792   0.63087   0.69535   0.00000  Uiso   1.00
H1884  H     0.56408   0.59662   0.66939   0.00000  Uiso   1.00
N1885  N     0.85603   0.58878   0.32031   0.00000  Uiso   1.00
H1886  H     0.87802   0.57911   0.33593   0.00000  Uiso   1.00
C1887  C     0.82948   0.60721   0.34463   0.00000  Uiso   1.00
H1888  H     0.81965   0.58812   0.36748   0.00000  Uiso   1.00
H1889  H     0.80563   0.61641   0.32731   0.00000  Uiso   1.00
H1890  H     0.84181   0.63138   0.35902   0.00000  Uiso   1.00
N1891  N     0.64020   0.91540   0.68122   0.00000  Uiso   1.00
H1892  H     0.63947   0.90139   0.65526   0.00000  Uiso   1.00
C1893  C     0.61978   0.94917   0.67971   0.00000  Uiso   1.00
H1894  H     0.62671   0.96416   0.65263   0.00000  Uiso   1.00
H1895  H     0.62667   0.96682   0.70497   0.00000  Uiso   1.00
H1896  H     0.58996   0.94346   0.67970   0.00000  Uiso   1.00
N1897  N     0.59687   0.65166   0.32154   0.00000  Uiso   1.00
H1898  H     0.58874   0.63172   0.34090   0.00000  Uiso   1.00
C1899  C     0.61806   0.68040   0.33984   0.00000  Uiso   1.00
H1900  H     0.60101   0.69429   0.36205   0.00000  Uiso   1.00
H1901  H     0.62704   0.70108   0.31818   0.00000  Uiso   1.00
H1902  H     0.64259   0.66905   0.35437   0.00000  Uiso   1.00
N1903  N     0.90791   0.85257   0.67895   0.00000  Uiso   1.00
H1904  H     0.89113   0.85028   0.65504   0.00000  Uiso   1.00
C1905  C     0.94092   0.87290   0.67066   0.00000  Uiso   1.00
H1906  H     0.95254   0.86360   0.64254   0.00000  Uiso   1.00
H1907  H     0.96155   0.86840   0.69387   0.00000  Uiso   1.00
H1908  H     0.93489   0.90255   0.66834   0.00000  Uiso   1.00
N1909  N     0.64334   0.91185   0.32011   0.00000  Uiso   1.00
H1910  H     0.62121   0.92163   0.33543   0.00000  Uiso   1.00
C1911  C     0.66971   0.89366   0.34485   0.00000  Uiso   1.00
H1912  H     0.67931   0.91294   0.36763   0.00000  Uiso   1.00
H1913  H     0.69373   0.88437   0.32785   0.00000  Uiso   1.00
H1914  H     0.65730   0.86958   0.35933   0.00000  Uiso   1.00
N1915  N     0.86017   0.58422   0.68137   0.00000  Uiso   1.00
H1916  H     0.86106   0.59810   0.65533   0.00000  Uiso   1.00
C1917  C     0.88055   0.55042   0.68019   0.00000  Uiso   1.00
H1918  H     0.87371   0.53528   0.65317   0.00000  Uiso   1.00
H1919  H     0.87350   0.53292   0.70553   0.00000  Uiso   1.00
H1920  H     0.91037   0.55608   0.68030   0.00000  Uiso   1.00
C1921  C     0.99466   0.81893   0.39759   0.00000  Uiso   1.00
H1922  H     0.50491   0.84283   0.41282   0.00000  Uiso   1.00
O1923  O     0.98366   0.82258   0.36425   0.00000  Uiso   1.00
C1924  C     0.99410   0.68205   0.60201   0.00000  Uiso   1.00
H1925  H     0.99683   0.67986   0.63337   0.00000  Uiso   1.00
O1926  O     0.98212   0.65578   0.58415   0.00000  Uiso   1.00
C1927  C     0.68180   0.99481   0.39763   0.00000  Uiso   1.00
H1928  H     0.67980   0.99774   0.36627   0.00000  Uiso   1.00
O1929  O     0.65531   0.98304   0.41526   0.00000  Uiso   1.00
C1930  C     0.81880   0.99483   0.60206   0.00000  Uiso   1.00
H1931  H     0.84257   0.50490   0.58650   0.00000  Uiso   1.00
O1932  O     0.82266   0.98437   0.63557   0.00000  Uiso   1.00
C1933  C     0.50512   0.68137   0.39812   0.00000  Uiso   1.00
H1934  H     0.99494   0.65769   0.41376   0.00000  Uiso   1.00
O1935  O     0.51556   0.67737   0.36463   0.00000  Uiso   1.00
C1936  C     0.50667   0.81820   0.60301   0.00000  Uiso   1.00
H1937  H     0.50231   0.82034   0.63416   0.00000  Uiso   1.00
O1938  O     0.52052   0.84409   0.58608   0.00000  Uiso   1.00
C1939  C     0.81821   0.50521   0.39762   0.00000  Uiso   1.00
H1940  H     0.82021   0.50226   0.36627   0.00000  Uiso   1.00
O1941  O     0.84469   0.51703   0.41525   0.00000  Uiso   1.00
C1942  C     0.68120   0.50518   0.60206   0.00000  Uiso   1.00
H1943  H     0.65742   0.99511   0.58650   0.00000  Uiso   1.00
O1944  O     0.67734   0.51562   0.63557   0.00000  Uiso   1.00
C1945  C     0.74450   0.56892   0.89760   0.00000  Uiso   1.00
H1946  H     0.75469   0.59284   0.91284   0.00000  Uiso   1.00
O1947  O     0.73352   0.57255   0.86426   0.00000  Uiso   1.00
C1948  C     0.74426   0.93203   0.10200   0.00000  Uiso   1.00
H1949  H     0.74698   0.92986   0.13337   0.00000  Uiso   1.00
O1950  O     0.73237   0.90573   0.08415   0.00000  Uiso   1.00
C1951  C     0.93181   0.74467   0.89762   0.00000  Uiso   1.00
H1952  H     0.92980   0.74762   0.86627   0.00000  Uiso   1.00
O1953  O     0.90534   0.73282   0.91525   0.00000  Uiso   1.00
C1954  C     0.56881   0.74498   0.10207   0.00000  Uiso   1.00
H1955  H     0.59256   0.75511   0.08651   0.00000  Uiso   1.00
O1956  O     0.57268   0.73453   0.13557   0.00000  Uiso   1.00
C1957  C     0.75526   0.93138   0.89813   0.00000  Uiso   1.00
H1958  H     0.74515   0.90767   0.91379   0.00000  Uiso   1.00
O1959  O     0.76567   0.92740   0.86463   0.00000  Uiso   1.00
C1960  C     0.75654   0.56821   0.10301   0.00000  Uiso   1.00
H1961  H     0.75219   0.57034   0.13416   0.00000  Uiso   1.00
O1962  O     0.77031   0.59413   0.08607   0.00000  Uiso   1.00
C1963  C     0.56820   0.75533   0.89762   0.00000  Uiso   1.00
H1964  H     0.57021   0.75236   0.86627   0.00000  Uiso   1.00
O1965  O     0.59465   0.76720   0.91524   0.00000  Uiso   1.00
C1966  C     0.93120   0.75505   0.10207   0.00000  Uiso   1.00
H1967  H     0.90744   0.74491   0.08653   0.00000  Uiso   1.00
O1968  O     0.92732   0.76553   0.13557   0.00000  Uiso   1.00
loop_
_geom_bond_atom_site_label_1
_geom_bond_atom_site_label_2
_geom_bond_distance
_geom_bond_site_symmetry_2
_ccdc_geom_bond_type
C1     C101    1.417   .     A
C1     C445    1.495   .     S
C1     C509    1.411   .     S
C2     C102    1.414   .     A
C2     C18     1.404   .     A
C2     C940    1.493   1_455 S
C3     C19     1.405   .     A
C3     C103    1.415   .     A
C3     C1435   1.493   1_545 S
C4     C104    1.416   .     A
C4     C454    1.495   .     S
C4     C1004   1.411   .     S
C5     C17     1.411   .     A
C5     C97     1.416   .     A
C5     C457    1.495   .     S
C6     C98     1.416   .     A
C6     C510    1.405   .     S
C6     C952    1.492   .     S
C7     C99     1.415   .     A
C7     C1003   1.405   .     S
C7     C1447   1.492   .     S
C8     C100    1.416   .     A
C8     C20     1.411   .     A
C8     C466    1.495   .     S
C9     C21     1.411   .     A
C9     C469    1.495   .     S
C9     C109    1.417   .     A
C10    C110    1.414   .     A
C10    C472    1.493   .     S
C10    C1006   1.404   .     S
C11    C111    1.415   .     A
C11    C475    1.493   .     S
C11    C515    1.405   .     S
C12    C478    1.495   .     S
C12    C112    1.416   .     A
C12    C24     1.411   .     S
C13    C105    1.416   .     A
C13    C481    1.495   .     S
C13    C1005   1.411   .     S
C14    C484    1.492   .     S
C14    C22     1.405   .     A
C14    C106    1.416   .     A
C15    C487    1.493   .     S
C15    C107    1.415   .     A
C15    C23     1.405   .     A
C16    C490    1.495   .     S
C16    C516    1.411   .     A
C16    C108    1.416   .     A
C17    C43     1.454   .     S
C17    C493    1.411   1_455 S
C18    C44     1.452   .     S
C18    C498    1.405   1_455 S
C19    C41     1.452   .     S
C19    C991    1.405   1_545 S
C20    C42     1.454   .     S
C20    C988    1.411   1_545 S
C21    C47     1.454   .     S
C21    C997    1.411   1_545 S
C22    C994    1.404   1_545 S
C22    C1032   1.452   1_545 S
C23    C45     1.452   .     S
C23    C503    1.405   1_455 S
C24    C46     1.454   .     S
C24    C508    1.411   1_455 A
C25    C97     1.426   .     A
C25    C205    1.490   .     S
C25    C30     1.412   .     A
C26    C98     1.419   .     A
C26    C208    1.492   .     S
C26    C29     1.415   .     A
C27    C99     1.419   .     A
C27    C32     1.413   .     A
C27    C211    1.492   .     S
C28    C31     1.412   .     A
C28    C100    1.426   .     A
C28    C214    1.490   .     S
C29    C101    1.425   .     A
C29    C217    1.490   .     S
C30    C102    1.418   .     A
C30    C220    1.492   .     S
C31    C103    1.418   .     A
C31    C223    1.492   .     S
C32    C104    1.426   .     A
C32    C226    1.490   .     S
C33    C229    1.490   .     S
C33    C105    1.426   .     A
C33    C38     1.412   1_556 S
C34    C106    1.419   .     A
C34    C232    1.492   .     S
C34    C37     1.415   1_554 S
C35    C107    1.419   .     A
C35    C235    1.492   .     S
C35    C40     1.413   1_556 S
C36    C108    1.426   .     A
C36    C238    1.490   .     S
C36    C39     1.412   1_554 S
C37    C109    1.425   .     A
C37    C241    1.490   .     S
C37    C34     1.415   1_556 S
C38    C110    1.418   .     A
C38    C244    1.492   .     S
C38    C33     1.412   1_554 S
C39    C111    1.418   .     A
C39    C247    1.492   .     S
C39    C36     1.412   1_556 S
C40    C112    1.426   .     A
C40    C250    1.490   .     S
C40    C35     1.413   1_554 S
C41    O145    1.275   .     A
C41    O1125   1.275   1_545 S
C42    O142    1.276   .     A
C42    O1130   1.276   1_545 S
C43    O143    1.275   .     A
C43    O639    1.276   1_455 S
C44    O148    1.275   .     A
C44    O636    1.275   1_455 S
C45    O153    1.275   .     A
C45    O149    1.275   .     A
C46    O154    1.276   .     A
C46    O150    1.276   .     A
C47    O151    1.275   .     S
C47    O155    1.276   .     S
C48    O1140   1.275   .     A
C48    O1136   1.275   .     A
C48    C1006   1.452   .     S
C49    C115    1.454   .     S
C49    O157    1.277   .     A
C49    O183    1.277   .     A
C50    O184    1.279   .     A
C50    O158    1.279   .     A
C50    C116    1.459   .     S
C51    O181    1.277   .     A
C51    O159    1.277   .     A
C51    C117    1.451   .     S
C52    O182    1.279   .     A
C52    O160    1.279   .     A
C52    C118    1.455   .     S
C53    C119    1.453   .     S
C53    O187    1.277   .     A
C53    O161    1.277   .     A
C54    O188    1.279   .     A
C54    C120    1.459   .     S
C54    O162    1.279   .     A
C55    O163    1.277   .     A
C55    C113    1.451   .     S
C55    O185    1.277   .     A
C56    O164    1.279   .     A
C56    O186    1.279   .     A
C56    C114    1.455   .     S
C57    C123    1.451   .     S
C57    O175    1.277   .     A
C57    O165    1.277   .     A
C58    O166    1.279   .     A
C58    O176    1.279   .     A
C58    C124    1.455   .     S
C59    O167    1.277   .     A
C59    C125    1.453   .     S
C59    O173    1.277   .     A
C60    O174    1.279   .     A
C60    O168    1.279   .     A
C60    C126    1.459   .     S
C61    O179    1.277   .     A
C61    O169    1.277   .     A
C61    C127    1.451   .     S
C62    O170    1.279   .     A
C62    O180    1.279   .     A
C62    C128    1.455   .     S
C63    O171    1.277   .     A
C63    C121    1.453   .     S
C63    O177    1.277   .     A
C64    O172    1.279   .     A
C64    O178    1.279   .     A
C64    C122    1.459   .     S
C65    N253    1.427   .     S
C65    C128    1.410   .     A
C65    C80     1.406   .     A
C66    C79     1.406   .     A
C66    C127    1.407   .     A
C66    N259    1.427   .     S
C67    N265    1.427   .     S
C67    C126    1.412   .     A
C67    C78     1.405   .     A
C68    C77     1.405   .     A
C68    C125    1.407   .     A
C68    N271    1.427   .     S
C69    C76     1.406   .     A
C69    C124    1.410   .     A
C69    N277    1.427   .     S
C70    N283    1.427   .     S
C70    C123    1.407   .     A
C70    C75     1.406   .     A
C71    C122    1.412   .     A
C71    C74     1.405   .     A
C71    N289    1.427   .     S
C72    C73     1.405   .     A
C72    C121    1.407   .     A
C72    N295    1.427   .     S
C73    N301    1.427   .     S
C73    C120    1.412   .     A
C74    C119    1.407   .     A
C74    N307    1.427   .     S
C75    N313    1.427   .     S
C75    C118    1.410   .     A
C76    N319    1.427   .     S
C76    C117    1.406   .     A
C77    C116    1.412   .     A
C77    N325    1.427   .     S
C78    C115    1.407   .     A
C78    N331    1.427   .     S
C79    N337    1.427   .     S
C79    C114    1.411   .     A
C80    N343    1.427   .     S
C80    C113    1.406   .     A
C81    C114    1.410   .     A
C81    N349    1.427   .     S
C81    C96     1.406   .     A
C82    N355    1.427   .     S
C82    C95     1.406   .     A
C82    C113    1.406   .     A
C83    N361    1.427   .     S
C83    C94     1.405   .     A
C83    C116    1.412   .     A
C84    C93     1.405   .     A
C84    C115    1.407   .     A
C84    N367    1.427   .     S
C85    C118    1.410   .     A
C85    C92     1.406   .     A
C85    N373    1.427   .     S
C86    C117    1.407   .     A
C86    N379    1.427   .     S
C86    C91     1.406   .     A
C87    N385    1.427   .     S
C87    C90     1.405   .     A
C87    C120    1.412   .     A
C88    C119    1.407   .     A
C88    C89     1.405   .     A
C88    N391    1.427   .     S
C89    C122    1.412   .     A
C89    N397    1.427   .     S
C90    N403    1.427   .     S
C90    C121    1.407   .     A
C91    N409    1.427   .     S
C91    C124    1.410   .     A
C92    C123    1.406   .     A
C92    N415    1.427   .     S
C93    N421    1.427   .     S
C93    C126    1.412   .     A
C94    N427    1.427   .     S
C94    C125    1.407   .     A
C95    C128    1.410   .     A
C95    N433    1.427   .     S
C96    N439    1.427   .     S
C96    C127    1.407   .     A
C97    C129    1.419   .     A
C98    C622    1.417   .     S
C99    C1115   1.416   .     A
C100   C132    1.419   .     S
C101   C621    1.418   .     S
C102   C130    1.416   .     A
C103   C131    1.416   .     S
C104   C1116   1.419   .     A
C105   C1117   1.419   .     S
C106   C134    1.417   .     A
C107   C135    1.416   .     A
C108   C628    1.419   .     S
C109   C133    1.418   .     A
C110   C1118   1.416   .     S
C111   C627    1.416   .     S
C112   C136    1.419   .     A
C129   C130    1.406   .     A
C129   C593    1.418   1_455 S
C130   C590    1.417   1_455 S
C131   C132    1.406   .     A
C131   C1083   1.416   1_545 A
C132   C1088   1.419   1_545 A
C133   C1089   1.419   1_545 S
C133   C134    1.406   1_556 S
C134   C1094   1.416   1_545 S
C134   C133    1.406   1_554 S
C135   C603    1.416   1_455 S
C135   C136    1.406   1_556 S
C136   C600    1.419   1_455 S
C136   C135    1.406   1_554 S
O137   Zn200   1.945   .     S
O137   Zn189   1.945   .     S
O137   Zn193   1.945   .     S
O137   Zn1188  1.945   1_545 S
O138   Zn1183  1.945   1_545 S
O138   Zn194   1.945   .     S
O138   Zn190   1.945   .     S
O138   Zn203   1.945   .     S
O139   Zn195   1.945   .     S
O139   Zn198   1.945   .     S
O139   Zn191   1.945   .     S
O139   Zn694   1.945   1_455 S
O140   Zn192   1.945   .     S
O140   Zn201   1.945   .     S
O140   Zn196   1.945   .     S
O140   Zn689   1.945   1_455 S
O141   Zn204   1.945   .     S
O141   C1025   1.275   .     S
O142   Zn203   1.945   .     S
O143   Zn198   1.944   .     S
O144   Zn197   1.944   .     S
O144   C536    1.275   .     S
O145   Zn200   1.945   .     S
O146   Zn199   1.945   .     S
O146   C1026   1.276   .     S
O147   Zn202   1.945   .     S
O147   C535    1.276   .     S
O148   Zn201   1.945   .     S
O149   Zn196   1.945   .     S
O150   Zn195   1.945   .     S
O151   Zn190   1.944   .     S
O152   C1032   1.275   1_545 A
O152   Zn189   1.944   .     S
O153   Zn192   1.945   .     S
O154   Zn191   1.945   .     S
O155   Zn194   1.945   .     S
O156   C1032   1.275   1_545 A
O156   Zn193   1.945   .     S
O157   Zn200   1.936   .     S
O158   Zn199   1.936   .     S
O159   Zn202   1.932   .     S
O160   Zn201   1.932   .     S
O161   Zn204   1.936   .     S
O162   Zn203   1.936   .     S
O163   Zn198   1.932   .     S
O164   Zn197   1.932   .     S
O165   Zn199   1.932   .     S
O166   Zn200   1.932   .     S
O167   Zn197   1.936   .     S
O168   Zn198   1.936   .     S
O169   Zn203   1.932   .     S
O170   Zn204   1.932   .     S
O171   Zn201   1.936   .     S
O172   Zn202   1.936   .     S
O173   Zn684   1.936   .     S
O174   Zn191   1.936   .     S
O175   Zn1178  1.932   .     S
O176   Zn193   1.932   .     S
O177   Zn196   1.936   .     S
O178   Zn687   1.936   .     S
O179   Zn190   1.932   .     S
O180   Zn1173  1.932   .     S
O181   Zn683   1.932   .     S
O182   Zn192   1.932   .     S
O183   Zn189   1.936   .     S
O184   Zn1174  1.936   .     S
O185   Zn195   1.932   .     S
O186   Zn688   1.932   .     S
O187   Zn1177  1.936   .     S
O188   Zn194   1.936   .     S
Zn189  O1164   1.932   1_545 S
Zn190  O1168   1.936   1_545 S
Zn191  O673    1.932   1_455 S
Zn192  O665    1.936   1_455 S
Zn193  O1171   1.936   1_545 S
Zn194  O1159   1.932   1_545 S
Zn195  O670    1.936   1_455 S
Zn196  O678    1.932   1_455 S
Zn197  O632    1.945   .     S
Zn199  O1122   1.945   .     S
Zn202  O631    1.945   .     S
Zn204  O1121   1.945   .     S
C205   O207    1.221   .     D
C205   H206    1.084   .     S
C208   H209    1.086   .     S
C208   O210    1.220   .     D
C211   O213    1.221   .     D
C211   H212    1.084   .     S
C214   O216    1.221   .     D
C214   H215    1.084   .     S
C217   H218    1.083   .     S
C217   O219    1.221   .     D
C220   H221    1.084   .     S
C220   O222    1.221   .     D
C223   O225    1.221   .     D
C223   H224    1.084   .     S
C226   H227    1.084   .     S
C226   O228    1.221   .     D
C229   H230    1.084   .     S
C229   O231    1.221   .     D
C232   O234    1.220   .     D
C232   H233    1.086   .     S
C235   O237    1.221   .     D
C235   H236    1.084   .     S
C238   O240    1.221   .     D
C238   H239    1.084   .     S
C241   O243    1.221   .     D
C241   H242    1.083   .     S
C244   H245    1.084   .     S
C244   O246    1.221   .     D
C247   O249    1.221   .     D
C247   H248    1.084   .     S
C250   O252    1.221   .     D
C250   H251    1.084   .     S
N253   H254    1.031   .     S
N253   C255    1.449   .     S
C255   H257    1.110   .     S
C255   H258    1.110   .     S
C255   H256    1.109   .     S
N259   C261    1.447   .     S
N259   H260    1.029   .     S
C261   H264    1.109   .     S
C261   H262    1.111   .     S
C261   H263    1.111   .     S
N265   C267    1.450   .     S
N265   H266    1.031   .     S
C267   H270    1.111   .     S
C267   H268    1.109   .     S
C267   H269    1.110   .     S
N271   H272    1.029   .     S
N271   C273    1.447   .     S
C273   H276    1.111   .     S
C273   H275    1.109   .     S
C273   H274    1.111   .     S
N277   H278    1.031   .     S
N277   C279    1.449   .     S
C279   H281    1.110   .     S
C279   H280    1.109   .     S
C279   H282    1.110   .     S
N283   H284    1.029   .     S
N283   C285    1.447   .     S
C285   H287    1.111   .     S
C285   H286    1.111   .     S
C285   H288    1.109   .     S
N289   H290    1.031   .     S
N289   C291    1.449   .     S
C291   H292    1.109   .     S
C291   H293    1.110   .     S
C291   H294    1.111   .     S
N295   C297    1.447   .     S
N295   H296    1.029   .     S
C297   H299    1.109   .     S
C297   H298    1.111   .     S
C297   H300    1.111   .     S
N301   H302    1.031   .     S
N301   C303    1.449   .     S
C303   H305    1.111   .     S
C303   H304    1.110   .     S
C303   H306    1.109   .     S
N307   H308    1.029   .     S
N307   C309    1.447   .     S
C309   H310    1.109   .     S
C309   H312    1.111   .     S
C309   H311    1.111   .     S
N313   C315    1.449   .     S
N313   H314    1.031   .     S
C315   H318    1.109   .     S
C315   H316    1.110   .     S
C315   H317    1.110   .     S
N319   C321    1.447   .     S
N319   H320    1.029   .     S
C321   H322    1.109   .     S
C321   H324    1.111   .     S
C321   H323    1.111   .     S
N325   C327    1.449   .     S
N325   H326    1.031   .     S
C327   H329    1.111   .     S
C327   H328    1.110   .     S
C327   H330    1.109   .     S
N331   H332    1.029   .     S
N331   C333    1.447   .     S
C333   H336    1.111   .     S
C333   H335    1.111   .     S
C333   H334    1.109   .     S
N337   H338    1.031   .     S
N337   C339    1.449   .     S
C339   H341    1.110   .     S
C339   H342    1.109   .     S
C339   H340    1.110   .     S
N343   C345    1.447   .     S
N343   H344    1.029   .     S
C345   H348    1.111   .     S
C345   H347    1.111   .     S
C345   H346    1.109   .     S
N349   H350    1.031   .     S
N349   C351    1.449   .     S
C351   H352    1.109   .     S
C351   H354    1.110   .     S
C351   H353    1.110   .     S
N355   H356    1.029   .     S
N355   C357    1.447   .     S
C357   H358    1.111   .     S
C357   H360    1.109   .     S
C357   H359    1.110   .     S
N361   C363    1.450   .     S
N361   H362    1.031   .     S
C363   H366    1.111   .     S
C363   H364    1.109   .     S
C363   H365    1.110   .     S
N367   C369    1.447   .     S
N367   H368    1.029   .     S
C369   H372    1.111   .     S
C369   H371    1.109   .     S
C369   H370    1.111   .     S
N373   C375    1.449   .     S
N373   H374    1.031   .     S
C375   H376    1.109   .     S
C375   H378    1.110   .     S
C375   H377    1.110   .     S
N379   H380    1.029   .     S
N379   C381    1.447   .     S
C381   H382    1.111   .     S
C381   H384    1.109   .     S
C381   H383    1.111   .     S
N385   C387    1.449   .     S
N385   H386    1.031   .     S
C387   H390    1.111   .     S
C387   H388    1.109   .     S
C387   H389    1.110   .     S
N391   C393    1.447   .     S
N391   H392    1.029   .     S
C393   H394    1.111   .     S
C393   H396    1.111   .     S
C393   H395    1.109   .     S
N397   C399    1.449   .     S
N397   H398    1.031   .     S
C399   H401    1.111   .     S
C399   H400    1.110   .     S
C399   H402    1.109   .     S
N403   C405    1.447   .     S
N403   H404    1.029   .     S
C405   H406    1.109   .     S
C405   H408    1.111   .     S
C405   H407    1.111   .     S
N409   H410    1.031   .     S
N409   C411    1.449   .     S
C411   H413    1.110   .     S
C411   H414    1.109   .     S
C411   H412    1.110   .     S
N415   C417    1.447   .     S
N415   H416    1.029   .     S
C417   H419    1.111   .     S
C417   H418    1.109   .     S
C417   H420    1.111   .     S
N421   H422    1.031   .     S
N421   C423    1.449   .     S
C423   H426    1.109   .     S
C423   H425    1.111   .     S
C423   H424    1.110   .     S
N427   H428    1.029   .     S
N427   C429    1.447   .     S
C429   H430    1.109   .     S
C429   H432    1.111   .     S
C429   H431    1.111   .     S
N433   C435    1.449   .     S
N433   H434    1.031   .     S
C435   H437    1.110   .     S
C435   H438    1.109   .     S
C435   H436    1.110   .     S
N439   C441    1.447   .     S
N439   H440    1.029   .     S
C441   H444    1.111   .     S
C441   H443    1.111   .     S
C441   H442    1.109   .     S
C445   O447    1.221   .     D
C445   H938    1.085   .     S
H446   C937    1.085   1_455 S
C448   H449    1.084   .     S
C448   O450    1.221   .     D
C448   C494    1.493   .     S
C451   H452    1.084   .     S
C451   O453    1.221   .     D
C451   C987    1.493   .     S
C454   O456    1.221   .     D
C454   H1439   1.085   .     S
H455   C1438   1.085   1_545 S
C457   O459    1.221   .     D
C457   H950    1.085   1_455 S
H458   C949    1.085   .     S
C460   O462    1.221   .     D
C460   H461    1.084   .     S
C460   C498    1.492   1_455 S
C463   H464    1.084   .     S
C463   O465    1.221   .     D
C463   C991    1.492   1_545 S
C466   O468    1.221   .     D
C466   H1451   1.085   1_545 S
H467   C1450   1.085   .     S
C469   H470    1.085   .     S
C469   O471    1.221   .     D
C472   H473    1.084   .     S
C472   O474    1.221   .     D
C475   H476    1.084   .     S
C475   O477    1.221   .     D
C478   H479    1.085   .     S
C478   O480    1.221   .     D
C481   H482    1.085   .     S
C481   O483    1.221   .     D
C484   H485    1.084   .     S
C484   O486    1.221   .     D
C487   O489    1.221   .     D
C487   H488    1.084   .     S
C490   H491    1.085   .     S
C490   O492    1.221   .     D
C493   C593    1.417   .     A
C493   C937    1.495   .     S
C493   C17     1.411   1_655 S
C494   C594    1.414   .     A
C494   C510    1.404   .     A
C495   C511    1.405   .     A
C495   C595    1.415   .     A
C495   C1927   1.493   1_545 S
C496   C596    1.416   .     A
C496   C946    1.495   .     S
C496   C1496   1.411   .     S
C497   C509    1.411   .     A
C497   C589    1.416   .     A
C497   C949    1.495   .     S
C498   C590    1.416   .     A
C498   C18     1.405   1_655 S
C498   C460    1.492   1_655 S
C499   C591    1.415   .     A
C499   C1495   1.405   .     S
C499   C1939   1.492   .     S
C500   C592    1.416   .     A
C500   C512    1.411   .     A
C500   C958    1.495   .     S
C501   C513    1.411   .     A
C501   C961    1.495   .     S
C501   C601    1.417   .     A
C502   C602    1.414   .     A
C502   C964    1.493   .     S
C502   C1498   1.404   .     S
C503   C603    1.415   .     A
C503   C967    1.493   .     S
C503   C23     1.405   1_655 S
C504   C970    1.495   .     S
C504   C604    1.416   .     A
C504   C516    1.411   .     S
C505   C597    1.416   .     A
C505   C973    1.495   .     S
C505   C1497   1.411   .     S
C506   C976    1.492   .     S
C506   C514    1.405   .     A
C506   C598    1.416   .     A
C507   C979    1.493   .     S
C507   C599    1.415   .     A
C507   C515    1.405   .     A
C508   C982    1.495   .     S
C508   C24     1.411   1_655 A
C508   C600    1.416   .     A
C509   C535    1.454   .     S
C510   C536    1.452   .     S
C511   C533    1.452   .     S
C511   C1483   1.405   1_545 S
C512   C534    1.454   .     S
C512   C1480   1.411   1_545 S
C513   C539    1.454   .     S
C513   C1489   1.411   1_545 S
C514   C1486   1.404   1_545 S
C514   C1524   1.452   1_545 S
C515   C537    1.452   .     S
C516   C538    1.454   .     S
C517   C589    1.426   .     A
C517   C697    1.490   .     S
C517   C522    1.412   .     A
C518   C590    1.419   .     A
C518   C700    1.492   .     S
C518   C521    1.415   .     A
C519   C591    1.419   .     A
C519   C524    1.413   .     A
C519   C703    1.492   .     S
C520   C523    1.412   .     A
C520   C592    1.426   .     A
C520   C706    1.490   .     S
C521   C593    1.425   .     A
C521   C709    1.490   .     S
C522   C594    1.418   .     A
C522   C712    1.492   .     S
C523   C595    1.418   .     A
C523   C715    1.492   .     S
C524   C596    1.426   .     A
C524   C718    1.490   .     S
C525   C721    1.490   .     S
C525   C597    1.426   .     A
C525   C530    1.412   1_556 S
C526   C598    1.419   .     A
C526   C724    1.492   .     S
C526   C529    1.415   1_554 S
C527   C599    1.419   .     A
C527   C727    1.492   .     S
C527   C532    1.413   1_556 S
C528   C600    1.426   .     A
C528   C730    1.490   .     S
C528   C531    1.412   1_554 S
C529   C601    1.425   .     A
C529   C733    1.490   .     S
C529   C526    1.415   1_556 S
C530   C602    1.418   .     A
C530   C736    1.492   .     S
C530   C525    1.412   1_554 S
C531   C603    1.418   .     A
C531   C739    1.492   .     S
C531   C528    1.412   1_556 S
C532   C604    1.426   .     A
C532   C742    1.490   .     S
C532   C527    1.413   1_554 S
C533   O637    1.275   .     A
C533   O1617   1.275   1_545 S
C534   O634    1.276   .     A
C534   O1622   1.276   1_545 S
C535   O635    1.275   .     A
C536   O640    1.275   .     A
C537   O645    1.275   .     A
C537   O641    1.275   .     A
C538   O646    1.276   .     A
C538   O642    1.276   .     A
C539   O643    1.275   .     S
C539   O647    1.276   .     S
C540   O1632   1.275   .     A
C540   O1628   1.275   .     A
C540   C1498   1.452   .     S
C541   C607    1.454   .     S
C541   O649    1.277   .     A
C541   O675    1.277   .     A
C542   O676    1.279   .     A
C542   O650    1.279   .     A
C542   C608    1.459   .     S
C543   O673    1.277   .     A
C543   O651    1.277   .     A
C543   C609    1.451   .     S
C544   O674    1.279   .     A
C544   O652    1.279   .     A
C544   C610    1.455   .     S
C545   C611    1.453   .     S
C545   O679    1.277   .     A
C545   O653    1.277   .     A
C546   O680    1.279   .     A
C546   C612    1.459   .     S
C546   O654    1.279   .     A
C547   O655    1.277   .     A
C547   C605    1.451   .     S
C547   O677    1.277   .     A
C548   O656    1.279   .     A
C548   O678    1.279   .     A
C548   C606    1.455   .     S
C549   C615    1.451   .     S
C549   O667    1.277   .     A
C549   O657    1.277   .     A
C550   O658    1.279   .     A
C550   O668    1.279   .     A
C550   C616    1.455   .     S
C551   O659    1.277   .     A
C551   C617    1.453   .     S
C551   O665    1.277   .     A
C552   O666    1.279   .     A
C552   O660    1.279   .     A
C552   C618    1.459   .     S
C553   O671    1.277   .     A
C553   O661    1.277   .     A
C553   C619    1.451   .     S
C554   O662    1.279   .     A
C554   O672    1.279   .     A
C554   C620    1.455   .     S
C555   O663    1.277   .     A
C555   C613    1.453   .     S
C555   O669    1.277   .     A
C556   O664    1.279   .     A
C556   O670    1.279   .     A
C556   C614    1.459   .     S
C557   N745    1.427   .     S
C557   C620    1.410   .     A
C557   C572    1.406   .     A
C558   C571    1.406   .     A
C558   C619    1.407   .     A
C558   N751    1.427   .     S
C559   N757    1.427   .     S
C559   C618    1.412   .     A
C559   C570    1.405   .     A
C560   C569    1.405   .     A
C560   C617    1.407   .     A
C560   N763    1.427   .     S
C561   C568    1.406   .     A
C561   C616    1.410   .     A
C561   N769    1.427   .     S
C562   N775    1.427   .     S
C562   C615    1.407   .     A
C562   C567    1.406   .     A
C563   C614    1.412   .     A
C563   C566    1.405   .     A
C563   N781    1.427   .     S
C564   C565    1.405   .     A
C564   C613    1.407   .     A
C564   N787    1.427   .     S
C565   N793    1.427   .     S
C565   C612    1.412   .     A
C566   C611    1.407   .     A
C566   N799    1.427   .     S
C567   N805    1.427   .     S
C567   C610    1.410   .     A
C568   N811    1.427   .     S
C568   C609    1.406   .     A
C569   C608    1.412   .     A
C569   N817    1.427   .     S
C570   C607    1.407   .     A
C570   N823    1.427   .     S
C571   N829    1.427   .     S
C571   C606    1.411   .     A
C572   N835    1.427   .     S
C572   C605    1.406   .     A
C573   C606    1.410   .     A
C573   N841    1.427   .     S
C573   C588    1.406   .     A
C574   N847    1.427   .     S
C574   C587    1.406   .     A
C574   C605    1.406   .     A
C575   N853    1.427   .     S
C575   C586    1.405   .     A
C575   C608    1.412   .     A
C576   C585    1.405   .     A
C576   C607    1.407   .     A
C576   N859    1.427   .     S
C577   C610    1.410   .     A
C577   C584    1.406   .     A
C577   N865    1.427   .     S
C578   C609    1.407   .     A
C578   N871    1.427   .     S
C578   C583    1.406   .     A
C579   N877    1.427   .     S
C579   C582    1.405   .     A
C579   C612    1.412   .     A
C580   C611    1.407   .     A
C580   C581    1.405   .     A
C580   N883    1.427   .     S
C581   C614    1.412   .     A
C581   N889    1.427   .     S
C582   N895    1.427   .     S
C582   C613    1.407   .     A
C583   N901    1.427   .     S
C583   C616    1.410   .     A
C584   C615    1.406   .     A
C584   N907    1.427   .     S
C585   N913    1.427   .     S
C585   C618    1.412   .     A
C586   N919    1.427   .     S
C586   C617    1.407   .     A
C587   C620    1.410   .     A
C587   N925    1.427   .     S
C588   N931    1.427   .     S
C588   C619    1.407   .     A
C589   C621    1.419   .     A
C590   C130    1.417   1_655 S
C591   C1607   1.416   .     A
C592   C624    1.419   .     S
C593   C129    1.418   1_655 S
C594   C622    1.416   .     A
C595   C623    1.416   .     S
C596   C1608   1.419   .     A
C597   C1609   1.419   .     S
C598   C626    1.417   .     A
C599   C627    1.416   .     A
C600   C136    1.419   1_655 S
C601   C625    1.418   .     A
C602   C1610   1.416   .     S
C603   C135    1.416   1_655 S
C604   C628    1.419   .     A
C621   C622    1.406   .     A
C623   C624    1.406   .     A
C623   C1575   1.416   1_545 A
C624   C1580   1.419   1_545 A
C625   C1581   1.419   1_545 S
C625   C626    1.406   1_556 S
C626   C1586   1.416   1_545 S
C626   C625    1.406   1_554 S
C627   C628    1.406   1_556 S
C628   C627    1.406   1_554 S
O629   Zn692   1.945   .     S
O629   Zn681   1.945   .     S
O629   Zn685   1.945   .     S
O629   Zn1680  1.945   1_545 S
O630   Zn1675  1.945   1_545 S
O630   Zn686   1.945   .     S
O630   Zn682   1.945   .     S
O630   Zn695   1.945   .     S
O631   Zn687   1.945   .     S
O631   Zn690   1.945   .     S
O631   Zn683   1.945   .     S
O632   Zn684   1.945   .     S
O632   Zn693   1.945   .     S
O632   Zn688   1.945   .     S
O633   Zn696   1.945   .     S
O633   C1517   1.275   .     S
O634   Zn695   1.945   .     S
O635   Zn690   1.944   .     S
O636   Zn689   1.944   .     S
O636   C44     1.275   1_655 S
O637   Zn692   1.945   .     S
O638   Zn691   1.945   .     S
O638   C1518   1.276   .     S
O639   Zn694   1.945   .     S
O639   C43     1.276   1_655 S
O640   Zn693   1.945   .     S
O641   Zn688   1.945   .     S
O642   Zn687   1.945   .     S
O643   Zn682   1.944   .     S
O644   C1524   1.275   1_545 A
O644   Zn681   1.944   .     S
O645   Zn684   1.945   .     S
O646   Zn683   1.945   .     S
O647   Zn686   1.945   .     S
O648   C1524   1.275   1_545 A
O648   Zn685   1.945   .     S
O649   Zn692   1.936   .     S
O650   Zn691   1.936   .     S
O651   Zn694   1.932   .     S
O652   Zn693   1.932   .     S
O653   Zn696   1.936   .     S
O654   Zn695   1.936   .     S
O655   Zn690   1.932   .     S
O656   Zn689   1.932   .     S
O657   Zn691   1.932   .     S
O658   Zn692   1.932   .     S
O659   Zn689   1.936   .     S
O660   Zn690   1.936   .     S
O661   Zn695   1.932   .     S
O662   Zn696   1.932   .     S
O663   Zn693   1.936   .     S
O664   Zn694   1.936   .     S
O665   Zn192   1.936   1_655 S
O666   Zn683   1.936   .     S
O667   Zn1670  1.932   .     S
O668   Zn685   1.932   .     S
O669   Zn688   1.936   .     S
O670   Zn195   1.936   1_655 S
O671   Zn682   1.932   .     S
O672   Zn1665  1.932   .     S
O673   Zn191   1.932   1_655 S
O674   Zn684   1.932   .     S
O675   Zn681   1.936   .     S
O676   Zn1666  1.936   .     S
O677   Zn687   1.932   .     S
O678   Zn196   1.932   1_655 S
O679   Zn1669  1.936   .     S
O680   Zn686   1.936   .     S
Zn681  O1656   1.932   1_545 S
Zn682  O1660   1.936   1_545 S
Zn685  O1663   1.936   1_545 S
Zn686  O1651   1.932   1_545 S
Zn689  O140    1.945   1_655 S
Zn691  O1614   1.945   .     S
Zn694  O139    1.945   1_655 S
Zn696  O1613   1.945   .     S
C697   O699    1.221   .     D
C697   H698    1.084   .     S
C700   H701    1.086   .     S
C700   O702    1.220   .     D
C703   O705    1.221   .     D
C703   H704    1.084   .     S
C706   O708    1.221   .     D
C706   H707    1.084   .     S
C709   H710    1.083   .     S
C709   O711    1.221   .     D
C712   H713    1.084   .     S
C712   O714    1.221   .     D
C715   O717    1.221   .     D
C715   H716    1.084   .     S
C718   H719    1.084   .     S
C718   O720    1.221   .     D
C721   H722    1.084   .     S
C721   O723    1.221   .     D
C724   O726    1.220   .     D
C724   H725    1.086   .     S
C727   O729    1.221   .     D
C727   H728    1.084   .     S
C730   O732    1.221   .     D
C730   H731    1.084   .     S
C733   O735    1.221   .     D
C733   H734    1.083   .     S
C736   H737    1.084   .     S
C736   O738    1.221   .     D
C739   O741    1.221   .     D
C739   H740    1.084   .     S
C742   O744    1.221   .     D
C742   H743    1.084   .     S
N745   H746    1.031   .     S
N745   C747    1.449   .     S
C747   H749    1.110   .     S
C747   H750    1.110   .     S
C747   H748    1.109   .     S
N751   C753    1.447   .     S
N751   H752    1.029   .     S
C753   H756    1.109   .     S
C753   H754    1.111   .     S
C753   H755    1.111   .     S
N757   C759    1.450   .     S
N757   H758    1.031   .     S
C759   H762    1.111   .     S
C759   H760    1.109   .     S
C759   H761    1.110   .     S
N763   H764    1.029   .     S
N763   C765    1.447   .     S
C765   H768    1.111   .     S
C765   H767    1.109   .     S
C765   H766    1.111   .     S
N769   H770    1.031   .     S
N769   C771    1.449   .     S
C771   H773    1.110   .     S
C771   H772    1.109   .     S
C771   H774    1.110   .     S
N775   H776    1.029   .     S
N775   C777    1.447   .     S
C777   H779    1.111   .     S
C777   H778    1.111   .     S
C777   H780    1.109   .     S
N781   H782    1.031   .     S
N781   C783    1.449   .     S
C783   H784    1.109   .     S
C783   H785    1.110   .     S
C783   H786    1.111   .     S
N787   C789    1.447   .     S
N787   H788    1.029   .     S
C789   H791    1.109   .     S
C789   H790    1.111   .     S
C789   H792    1.111   .     S
N793   H794    1.031   .     S
N793   C795    1.449   .     S
C795   H797    1.111   .     S
C795   H796    1.110   .     S
C795   H798    1.109   .     S
N799   H800    1.029   .     S
N799   C801    1.447   .     S
C801   H802    1.109   .     S
C801   H804    1.111   .     S
C801   H803    1.111   .     S
N805   C807    1.449   .     S
N805   H806    1.031   .     S
C807   H810    1.109   .     S
C807   H808    1.110   .     S
C807   H809    1.110   .     S
N811   C813    1.447   .     S
N811   H812    1.029   .     S
C813   H814    1.109   .     S
C813   H816    1.111   .     S
C813   H815    1.111   .     S
N817   C819    1.449   .     S
N817   H818    1.031   .     S
C819   H821    1.111   .     S
C819   H820    1.110   .     S
C819   H822    1.109   .     S
N823   H824    1.029   .     S
N823   C825    1.447   .     S
C825   H828    1.111   .     S
C825   H827    1.111   .     S
C825   H826    1.109   .     S
N829   H830    1.031   .     S
N829   C831    1.449   .     S
C831   H833    1.110   .     S
C831   H834    1.109   .     S
C831   H832    1.110   .     S
N835   C837    1.447   .     S
N835   H836    1.029   .     S
C837   H840    1.111   .     S
C837   H839    1.111   .     S
C837   H838    1.109   .     S
N841   H842    1.031   .     S
N841   C843    1.449   .     S
C843   H844    1.109   .     S
C843   H846    1.110   .     S
C843   H845    1.110   .     S
N847   H848    1.029   .     S
N847   C849    1.447   .     S
C849   H850    1.111   .     S
C849   H852    1.109   .     S
C849   H851    1.110   .     S
N853   C855    1.450   .     S
N853   H854    1.031   .     S
C855   H858    1.111   .     S
C855   H856    1.109   .     S
C855   H857    1.110   .     S
N859   C861    1.447   .     S
N859   H860    1.029   .     S
C861   H864    1.111   .     S
C861   H863    1.109   .     S
C861   H862    1.111   .     S
N865   C867    1.449   .     S
N865   H866    1.031   .     S
C867   H868    1.109   .     S
C867   H870    1.110   .     S
C867   H869    1.110   .     S
N871   H872    1.029   .     S
N871   C873    1.447   .     S
C873   H874    1.111   .     S
C873   H876    1.109   .     S
C873   H875    1.111   .     S
N877   C879    1.449   .     S
N877   H878    1.031   .     S
C879   H882    1.111   .     S
C879   H880    1.109   .     S
C879   H881    1.110   .     S
N883   C885    1.447   .     S
N883   H884    1.029   .     S
C885   H886    1.111   .     S
C885   H888    1.111   .     S
C885   H887    1.109   .     S
N889   C891    1.449   .     S
N889   H890    1.031   .     S
C891   H893    1.111   .     S
C891   H892    1.110   .     S
C891   H894    1.109   .     S
N895   C897    1.447   .     S
N895   H896    1.029   .     S
C897   H898    1.109   .     S
C897   H900    1.111   .     S
C897   H899    1.111   .     S
N901   H902    1.031   .     S
N901   C903    1.449   .     S
C903   H905    1.110   .     S
C903   H906    1.109   .     S
C903   H904    1.110   .     S
N907   C909    1.447   .     S
N907   H908    1.029   .     S
C909   H911    1.111   .     S
C909   H910    1.109   .     S
C909   H912    1.111   .     S
N913   H914    1.031   .     S
N913   C915    1.449   .     S
C915   H918    1.109   .     S
C915   H917    1.111   .     S
C915   H916    1.110   .     S
N919   H920    1.029   .     S
N919   C921    1.447   .     S
C921   H922    1.109   .     S
C921   H924    1.111   .     S
C921   H923    1.111   .     S
N925   C927    1.449   .     S
N925   H926    1.031   .     S
C927   H929    1.110   .     S
C927   H930    1.109   .     S
C927   H928    1.110   .     S
N931   C933    1.447   .     S
N931   H932    1.029   .     S
C933   H936    1.111   .     S
C933   H935    1.111   .     S
C933   H934    1.109   .     S
C937   O939    1.221   .     D
C937   H446    1.085   1_655 S
C940   H941    1.084   .     S
C940   O942    1.221   .     D
C940   C2      1.493   1_655 S
C943   H944    1.084   .     S
C943   O945    1.221   .     D
C943   C1479   1.493   .     S
C946   O948    1.221   .     D
C946   H1931   1.085   .     S
H947   C1930   1.085   1_545 S
C949   O951    1.221   .     D
H950   C457    1.085   1_655 S
C952   O954    1.221   .     D
C952   H953    1.084   .     S
C955   H956    1.084   .     S
C955   O957    1.221   .     D
C955   C1483   1.492   1_545 S
C958   O960    1.221   .     D
C958   H1943   1.085   1_545 S
H959   C1942   1.085   .     S
C961   H962    1.085   .     S
C961   O963    1.221   .     D
C964   H965    1.084   .     S
C964   O966    1.221   .     D
C967   H968    1.084   .     S
C967   O969    1.221   .     D
C970   H971    1.085   .     S
C970   O972    1.221   .     D
C973   H974    1.085   .     S
C973   O975    1.221   .     D
C976   H977    1.084   .     S
C976   O978    1.221   .     D
C979   O981    1.221   .     D
C979   H980    1.084   .     S
C982   H983    1.085   .     S
C982   O984    1.221   .     D
C985   C1085   1.417   .     A
C985   C1429   1.495   .     S
C985   C1493   1.411   .     S
C986   C1086   1.414   .     A
C986   C1002   1.404   .     A
C986   C1924   1.493   1_455 S
C987   C1003   1.405   .     A
C987   C1087   1.415   .     A
C988   C1088   1.416   .     A
C988   C1438   1.495   .     S
C988   C20     1.411   1_565 S
C989   C1001   1.411   .     A
C989   C1081   1.416   .     A
C989   C1441   1.495   .     S
C990   C1082   1.416   .     A
C990   C1494   1.405   .     S
C990   C1936   1.492   .     S
C991   C1083   1.415   .     A
C991   C19     1.405   1_565 S
C991   C463    1.492   1_565 S
C992   C1084   1.416   .     A
C992   C1004   1.411   .     A
C992   C1450   1.495   .     S
C993   C1005   1.411   .     A
C993   C1453   1.495   .     S
C993   C1093   1.417   .     A
C994   C1094   1.414   .     A
C994   C1456   1.493   .     S
C994   C22     1.404   1_565 S
C995   C1095   1.415   .     A
C995   C1459   1.493   .     S
C995   C1499   1.405   .     S
C996   C1462   1.495   .     S
C996   C1096   1.416   .     A
C996   C1008   1.411   .     S
C997   C1089   1.416   .     A
C997   C1465   1.495   .     S
C997   C21     1.411   1_565 S
C998   C1468   1.492   .     S
C998   C1006   1.405   .     A
C998   C1090   1.416   .     A
C999   C1471   1.493   .     S
C999   C1091   1.415   .     A
C999   C1007   1.405   .     A
C1000  C1474   1.495   .     S
C1000  C1500   1.411   .     A
C1000  C1092   1.416   .     A
C1001  C1027   1.454   .     S
C1001  C1477   1.411   1_455 S
C1002  C1028   1.452   .     S
C1002  C1482   1.405   1_455 S
C1003  C1025   1.452   .     S
C1004  C1026   1.454   .     S
C1005  C1031   1.454   .     S
C1007  C1029   1.452   .     S
C1007  C1487   1.405   1_455 S
C1008  C1030   1.454   .     S
C1008  C1492   1.411   1_455 A
C1009  C1081   1.426   .     A
C1009  C1189   1.490   .     S
C1009  C1014   1.412   .     A
C1010  C1082   1.419   .     A
C1010  C1192   1.492   .     S
C1010  C1013   1.415   .     A
C1011  C1083   1.419   .     A
C1011  C1016   1.413   .     A
C1011  C1195   1.492   .     S
C1012  C1015   1.412   .     A
C1012  C1084   1.426   .     A
C1012  C1198   1.490   .     S
C1013  C1085   1.425   .     A
C1013  C1201   1.490   .     S
C1014  C1086   1.418   .     A
C1014  C1204   1.492   .     S
C1015  C1087   1.418   .     A
C1015  C1207   1.492   .     S
C1016  C1088   1.426   .     A
C1016  C1210   1.490   .     S
C1017  C1213   1.490   .     S
C1017  C1089   1.426   .     A
C1017  C1022   1.412   1_556 S
C1018  C1090   1.419   .     A
C1018  C1216   1.492   .     S
C1018  C1021   1.415   1_554 S
C1019  C1091   1.419   .     A
C1019  C1219   1.492   .     S
C1019  C1024   1.413   1_556 S
C1020  C1092   1.426   .     A
C1020  C1222   1.490   .     S
C1020  C1023   1.412   1_554 S
C1021  C1093   1.425   .     A
C1021  C1225   1.490   .     S
C1021  C1018   1.415   1_556 S
C1022  C1094   1.418   .     A
C1022  C1228   1.492   .     S
C1022  C1017   1.412   1_554 S
C1023  C1095   1.418   .     A
C1023  C1231   1.492   .     S
C1023  C1020   1.412   1_556 S
C1024  C1096   1.426   .     A
C1024  C1234   1.490   .     S
C1024  C1019   1.413   1_554 S
C1025  O1129   1.275   .     A
C1026  O1126   1.276   .     A
C1027  O1127   1.275   .     A
C1027  O1623   1.276   1_455 S
C1028  O1132   1.275   .     A
C1028  O1620   1.275   1_455 S
C1029  O1137   1.275   .     A
C1029  O1133   1.275   .     A
C1030  O1138   1.276   .     A
C1030  O1134   1.276   .     A
C1031  O1135   1.275   .     S
C1031  O1139   1.276   .     S
C1032  O156    1.275   1_565 A
C1032  O152    1.275   1_565 A
C1032  C22     1.452   1_565 S
C1033  C1099   1.454   .     S
C1033  O1141   1.277   .     A
C1033  O1167   1.277   .     A
C1034  O1168   1.279   .     A
C1034  O1142   1.279   .     A
C1034  C1100   1.459   .     S
C1035  O1165   1.277   .     A
C1035  O1143   1.277   .     A
C1035  C1101   1.451   .     S
C1036  O1166   1.279   .     A
C1036  O1144   1.279   .     A
C1036  C1102   1.455   .     S
C1037  C1103   1.453   .     S
C1037  O1171   1.277   .     A
C1037  O1145   1.277   .     A
C1038  O1172   1.279   .     A
C1038  C1104   1.459   .     S
C1038  O1146   1.279   .     A
C1039  O1147   1.277   .     A
C1039  C1097   1.451   .     S
C1039  O1169   1.277   .     A
C1040  O1148   1.279   .     A
C1040  O1170   1.279   .     A
C1040  C1098   1.455   .     S
C1041  C1107   1.451   .     S
C1041  O1159   1.277   .     A
C1041  O1149   1.277   .     A
C1042  O1150   1.279   .     A
C1042  O1160   1.279   .     A
C1042  C1108   1.455   .     S
C1043  O1151   1.277   .     A
C1043  C1109   1.453   .     S
C1043  O1157   1.277   .     A
C1044  O1158   1.279   .     A
C1044  O1152   1.279   .     A
C1044  C1110   1.459   .     S
C1045  O1163   1.277   .     A
C1045  O1153   1.277   .     A
C1045  C1111   1.451   .     S
C1046  O1154   1.279   .     A
C1046  O1164   1.279   .     A
C1046  C1112   1.455   .     S
C1047  O1155   1.277   .     A
C1047  C1105   1.453   .     S
C1047  O1161   1.277   .     A
C1048  O1156   1.279   .     A
C1048  O1162   1.279   .     A
C1048  C1106   1.459   .     S
C1049  N1237   1.427   .     S
C1049  C1112   1.410   .     A
C1049  C1064   1.406   .     A
C1050  C1063   1.406   .     A
C1050  C1111   1.407   .     A
C1050  N1243   1.427   .     S
C1051  N1249   1.427   .     S
C1051  C1110   1.412   .     A
C1051  C1062   1.405   .     A
C1052  C1061   1.405   .     A
C1052  C1109   1.407   .     A
C1052  N1255   1.427   .     S
C1053  C1060   1.406   .     A
C1053  C1108   1.410   .     A
C1053  N1261   1.427   .     S
C1054  N1267   1.427   .     S
C1054  C1107   1.407   .     A
C1054  C1059   1.406   .     A
C1055  C1106   1.412   .     A
C1055  C1058   1.405   .     A
C1055  N1273   1.427   .     S
C1056  C1057   1.405   .     A
C1056  C1105   1.407   .     A
C1056  N1279   1.427   .     S
C1057  N1285   1.427   .     S
C1057  C1104   1.412   .     A
C1058  C1103   1.407   .     A
C1058  N1291   1.427   .     S
C1059  N1297   1.427   .     S
C1059  C1102   1.410   .     A
C1060  N1303   1.427   .     S
C1060  C1101   1.406   .     A
C1061  C1100   1.412   .     A
C1061  N1309   1.427   .     S
C1062  C1099   1.407   .     A
C1062  N1315   1.427   .     S
C1063  N1321   1.427   .     S
C1063  C1098   1.411   .     A
C1064  N1327   1.427   .     S
C1064  C1097   1.406   .     A
C1065  C1098   1.410   .     A
C1065  N1333   1.427   .     S
C1065  C1080   1.406   .     A
C1066  N1339   1.427   .     S
C1066  C1079   1.406   .     A
C1066  C1097   1.406   .     A
C1067  N1345   1.427   .     S
C1067  C1078   1.405   .     A
C1067  C1100   1.412   .     A
C1068  C1077   1.405   .     A
C1068  C1099   1.407   .     A
C1068  N1351   1.427   .     S
C1069  C1102   1.410   .     A
C1069  C1076   1.406   .     A
C1069  N1357   1.427   .     S
C1070  C1101   1.407   .     A
C1070  N1363   1.427   .     S
C1070  C1075   1.406   .     A
C1071  N1369   1.427   .     S
C1071  C1074   1.405   .     A
C1071  C1104   1.412   .     A
C1072  C1103   1.407   .     A
C1072  C1073   1.405   .     A
C1072  N1375   1.427   .     S
C1073  C1106   1.412   .     A
C1073  N1381   1.427   .     S
C1074  N1387   1.427   .     S
C1074  C1105   1.407   .     A
C1075  N1393   1.427   .     S
C1075  C1108   1.410   .     A
C1076  C1107   1.406   .     A
C1076  N1399   1.427   .     S
C1077  N1405   1.427   .     S
C1077  C1110   1.412   .     A
C1078  N1411   1.427   .     S
C1078  C1109   1.407   .     A
C1079  C1112   1.410   .     A
C1079  N1417   1.427   .     S
C1080  N1423   1.427   .     S
C1080  C1111   1.407   .     A
C1081  C1113   1.419   .     A
C1082  C1606   1.417   .     S
C1083  C131    1.416   1_565 A
C1084  C1116   1.419   .     S
C1085  C1605   1.418   .     S
C1086  C1114   1.416   .     A
C1087  C1115   1.416   .     S
C1088  C132    1.419   1_565 A
C1089  C133    1.419   1_565 S
C1090  C1118   1.417   .     A
C1091  C1119   1.416   .     A
C1092  C1612   1.419   .     S
C1093  C1117   1.418   .     A
C1094  C134    1.416   1_565 S
C1095  C1611   1.416   .     S
C1096  C1120   1.419   .     A
C1113  C1114   1.406   .     A
C1113  C1577   1.418   1_455 S
C1114  C1574   1.417   1_455 S
C1115  C1116   1.406   .     A
C1117  C1118   1.406   1_556 S
C1118  C1117   1.406   1_554 S
C1119  C1587   1.416   1_455 S
C1119  C1120   1.406   1_556 S
C1120  C1584   1.419   1_455 S
C1120  C1119   1.406   1_554 S
O1121  Zn1184  1.945   .     S
O1121  Zn1173  1.945   .     S
O1121  Zn1177  1.945   .     S
O1122  Zn1178  1.945   .     S
O1122  Zn1174  1.945   .     S
O1122  Zn1187  1.945   .     S
O1123  Zn1179  1.945   .     S
O1123  Zn1182  1.945   .     S
O1123  Zn1175  1.945   .     S
O1123  Zn1678  1.945   1_455 S
O1124  Zn1176  1.945   .     S
O1124  Zn1185  1.945   .     S
O1124  Zn1180  1.945   .     S
O1124  Zn1673  1.945   1_455 S
O1125  Zn1188  1.945   .     S
O1125  C41     1.275   1_565 S
O1126  Zn1187  1.945   .     S
O1127  Zn1182  1.944   .     S
O1128  Zn1181  1.944   .     S
O1128  C1520   1.275   .     S
O1129  Zn1184  1.945   .     S
O1130  Zn1183  1.945   .     S
O1130  C42     1.276   1_565 S
O1131  Zn1186  1.945   .     S
O1131  C1519   1.276   .     S
O1132  Zn1185  1.945   .     S
O1133  Zn1180  1.945   .     S
O1134  Zn1179  1.945   .     S
O1135  Zn1174  1.944   .     S
O1136  Zn1173  1.944   .     S
O1137  Zn1176  1.945   .     S
O1138  Zn1175  1.945   .     S
O1139  Zn1178  1.945   .     S
O1140  Zn1177  1.945   .     S
O1141  Zn1184  1.936   .     S
O1142  Zn1183  1.936   .     S
O1143  Zn1186  1.932   .     S
O1144  Zn1185  1.932   .     S
O1145  Zn1188  1.936   .     S
O1146  Zn1187  1.936   .     S
O1147  Zn1182  1.932   .     S
O1148  Zn1181  1.932   .     S
O1149  Zn1183  1.932   .     S
O1150  Zn1184  1.932   .     S
O1151  Zn1181  1.936   .     S
O1152  Zn1182  1.936   .     S
O1153  Zn1187  1.932   .     S
O1154  Zn1188  1.932   .     S
O1155  Zn1185  1.936   .     S
O1156  Zn1186  1.936   .     S
O1157  Zn1668  1.936   .     S
O1158  Zn1175  1.936   .     S
O1159  Zn194   1.932   1_565 S
O1160  Zn1177  1.932   .     S
O1161  Zn1180  1.936   .     S
O1162  Zn1671  1.936   .     S
O1163  Zn1174  1.932   .     S
O1164  Zn189   1.932   1_565 S
O1165  Zn1667  1.932   .     S
O1166  Zn1176  1.932   .     S
O1167  Zn1173  1.936   .     S
O1168  Zn190   1.936   1_565 S
O1169  Zn1179  1.932   .     S
O1170  Zn1672  1.932   .     S
O1171  Zn193   1.936   1_565 S
O1172  Zn1178  1.936   .     S
Zn1175 O1657   1.932   1_455 S
Zn1176 O1649   1.936   1_455 S
Zn1179 O1654   1.936   1_455 S
Zn1180 O1662   1.932   1_455 S
Zn1181 O1616   1.945   .     S
Zn1183 O138    1.945   1_565 S
Zn1186 O1615   1.945   .     S
Zn1188 O137    1.945   1_565 S
C1189  O1191   1.221   .     D
C1189  H1190   1.084   .     S
C1192  H1193   1.086   .     S
C1192  O1194   1.220   .     D
C1195  O1197   1.221   .     D
C1195  H1196   1.084   .     S
C1198  O1200   1.221   .     D
C1198  H1199   1.084   .     S
C1201  H1202   1.083   .     S
C1201  O1203   1.221   .     D
C1204  H1205   1.084   .     S
C1204  O1206   1.221   .     D
C1207  O1209   1.221   .     D
C1207  H1208   1.084   .     S
C1210  H1211   1.084   .     S
C1210  O1212   1.221   .     D
C1213  H1214   1.084   .     S
C1213  O1215   1.221   .     D
C1216  O1218   1.220   .     D
C1216  H1217   1.086   .     S
C1219  O1221   1.221   .     D
C1219  H1220   1.084   .     S
C1222  O1224   1.221   .     D
C1222  H1223   1.084   .     S
C1225  O1227   1.221   .     D
C1225  H1226   1.083   .     S
C1228  H1229   1.084   .     S
C1228  O1230   1.221   .     D
C1231  O1233   1.221   .     D
C1231  H1232   1.084   .     S
C1234  O1236   1.221   .     D
C1234  H1235   1.084   .     S
N1237  H1238   1.031   .     S
N1237  C1239   1.449   .     S
C1239  H1241   1.110   .     S
C1239  H1242   1.110   .     S
C1239  H1240   1.109   .     S
N1243  C1245   1.447   .     S
N1243  H1244   1.029   .     S
C1245  H1248   1.109   .     S
C1245  H1246   1.111   .     S
C1245  H1247   1.111   .     S
N1249  C1251   1.450   .     S
N1249  H1250   1.031   .     S
C1251  H1254   1.111   .     S
C1251  H1252   1.109   .     S
C1251  H1253   1.110   .     S
N1255  H1256   1.029   .     S
N1255  C1257   1.447   .     S
C1257  H1260   1.111   .     S
C1257  H1259   1.109   .     S
C1257  H1258   1.111   .     S
N1261  H1262   1.031   .     S
N1261  C1263   1.449   .     S
C1263  H1265   1.110   .     S
C1263  H1264   1.109   .     S
C1263  H1266   1.110   .     S
N1267  H1268   1.029   .     S
N1267  C1269   1.447   .     S
C1269  H1271   1.111   .     S
C1269  H1270   1.111   .     S
C1269  H1272   1.109   .     S
N1273  H1274   1.031   .     S
N1273  C1275   1.449   .     S
C1275  H1276   1.109   .     S
C1275  H1277   1.110   .     S
C1275  H1278   1.111   .     S
N1279  C1281   1.447   .     S
N1279  H1280   1.029   .     S
C1281  H1283   1.109   .     S
C1281  H1282   1.111   .     S
C1281  H1284   1.111   .     S
N1285  H1286   1.031   .     S
N1285  C1287   1.449   .     S
C1287  H1289   1.111   .     S
C1287  H1288   1.110   .     S
C1287  H1290   1.109   .     S
N1291  H1292   1.029   .     S
N1291  C1293   1.447   .     S
C1293  H1294   1.109   .     S
C1293  H1296   1.111   .     S
C1293  H1295   1.111   .     S
N1297  C1299   1.449   .     S
N1297  H1298   1.031   .     S
C1299  H1302   1.109   .     S
C1299  H1300   1.110   .     S
C1299  H1301   1.110   .     S
N1303  C1305   1.447   .     S
N1303  H1304   1.029   .     S
C1305  H1306   1.109   .     S
C1305  H1308   1.111   .     S
C1305  H1307   1.111   .     S
N1309  C1311   1.449   .     S
N1309  H1310   1.031   .     S
C1311  H1313   1.111   .     S
C1311  H1312   1.110   .     S
C1311  H1314   1.109   .     S
N1315  H1316   1.029   .     S
N1315  C1317   1.447   .     S
C1317  H1320   1.111   .     S
C1317  H1319   1.111   .     S
C1317  H1318   1.109   .     S
N1321  H1322   1.031   .     S
N1321  C1323   1.449   .     S
C1323  H1325   1.110   .     S
C1323  H1326   1.109   .     S
C1323  H1324   1.110   .     S
N1327  C1329   1.447   .     S
N1327  H1328   1.029   .     S
C1329  H1332   1.111   .     S
C1329  H1331   1.111   .     S
C1329  H1330   1.109   .     S
N1333  H1334   1.031   .     S
N1333  C1335   1.449   .     S
C1335  H1336   1.109   .     S
C1335  H1338   1.110   .     S
C1335  H1337   1.110   .     S
N1339  H1340   1.029   .     S
N1339  C1341   1.447   .     S
C1341  H1342   1.111   .     S
C1341  H1344   1.109   .     S
C1341  H1343   1.110   .     S
N1345  C1347   1.450   .     S
N1345  H1346   1.031   .     S
C1347  H1350   1.111   .     S
C1347  H1348   1.109   .     S
C1347  H1349   1.110   .     S
N1351  C1353   1.447   .     S
N1351  H1352   1.029   .     S
C1353  H1356   1.111   .     S
C1353  H1355   1.109   .     S
C1353  H1354   1.111   .     S
N1357  C1359   1.449   .     S
N1357  H1358   1.031   .     S
C1359  H1360   1.109   .     S
C1359  H1362   1.110   .     S
C1359  H1361   1.110   .     S
N1363  H1364   1.029   .     S
N1363  C1365   1.447   .     S
C1365  H1366   1.111   .     S
C1365  H1368   1.109   .     S
C1365  H1367   1.111   .     S
N1369  C1371   1.449   .     S
N1369  H1370   1.031   .     S
C1371  H1374   1.111   .     S
C1371  H1372   1.109   .     S
C1371  H1373   1.110   .     S
N1375  C1377   1.447   .     S
N1375  H1376   1.029   .     S
C1377  H1378   1.111   .     S
C1377  H1380   1.111   .     S
C1377  H1379   1.109   .     S
N1381  C1383   1.449   .     S
N1381  H1382   1.031   .     S
C1383  H1385   1.111   .     S
C1383  H1384   1.110   .     S
C1383  H1386   1.109   .     S
N1387  C1389   1.447   .     S
N1387  H1388   1.029   .     S
C1389  H1390   1.109   .     S
C1389  H1392   1.111   .     S
C1389  H1391   1.111   .     S
N1393  H1394   1.031   .     S
N1393  C1395   1.449   .     S
C1395  H1397   1.110   .     S
C1395  H1398   1.109   .     S
C1395  H1396   1.110   .     S
N1399  C1401   1.447   .     S
N1399  H1400   1.029   .     S
C1401  H1403   1.111   .     S
C1401  H1402   1.109   .     S
C1401  H1404   1.111   .     S
N1405  H1406   1.031   .     S
N1405  C1407   1.449   .     S
C1407  H1410   1.109   .     S
C1407  H1409   1.111   .     S
C1407  H1408   1.110   .     S
N1411  H1412   1.029   .     S
N1411  C1413   1.447   .     S
C1413  H1414   1.109   .     S
C1413  H1416   1.111   .     S
C1413  H1415   1.111   .     S
N1417  C1419   1.449   .     S
N1417  H1418   1.031   .     S
C1419  H1421   1.110   .     S
C1419  H1422   1.109   .     S
C1419  H1420   1.110   .     S
N1423  C1425   1.447   .     S
N1423  H1424   1.029   .     S
C1425  H1428   1.111   .     S
C1425  H1427   1.111   .     S
C1425  H1426   1.109   .     S
C1429  O1431   1.221   .     D
C1429  H1922   1.085   .     S
H1430  C1921   1.085   1_455 S
C1432  H1433   1.084   .     S
C1432  O1434   1.221   .     D
C1432  C1478   1.493   .     S
C1435  H1436   1.084   .     S
C1435  O1437   1.221   .     D
C1435  C3      1.493   1_565 S
C1438  O1440   1.221   .     D
C1438  H455    1.085   1_565 S
C1441  O1443   1.221   .     D
C1441  H1934   1.085   1_455 S
H1442  C1933   1.085   .     S
C1444  O1446   1.221   .     D
C1444  H1445   1.084   .     S
C1444  C1482   1.492   1_455 S
C1447  H1448   1.084   .     S
C1447  O1449   1.221   .     D
C1450  O1452   1.221   .     D
H1451  C466    1.085   1_565 S
C1453  H1454   1.085   .     S
C1453  O1455   1.221   .     D
C1456  H1457   1.084   .     S
C1456  O1458   1.221   .     D
C1459  H1460   1.084   .     S
C1459  O1461   1.221   .     D
C1462  H1463   1.085   .     S
C1462  O1464   1.221   .     D
C1465  H1466   1.085   .     S
C1465  O1467   1.221   .     D
C1468  H1469   1.084   .     S
C1468  O1470   1.221   .     D
C1471  O1473   1.221   .     D
C1471  H1472   1.084   .     S
C1474  H1475   1.085   .     S
C1474  O1476   1.221   .     D
C1477  C1577   1.417   .     A
C1477  C1921   1.495   .     S
C1477  C1001   1.411   1_655 S
C1478  C1578   1.414   .     A
C1478  C1494   1.404   .     A
C1479  C1495   1.405   .     A
C1479  C1579   1.415   .     A
C1480  C1580   1.416   .     A
C1480  C1930   1.495   .     S
C1480  C512    1.411   1_565 S
C1481  C1493   1.411   .     A
C1481  C1573   1.416   .     A
C1481  C1933   1.495   .     S
C1482  C1574   1.416   .     A
C1482  C1002   1.405   1_655 S
C1482  C1444   1.492   1_655 S
C1483  C1575   1.415   .     A
C1483  C511    1.405   1_565 S
C1483  C955    1.492   1_565 S
C1484  C1576   1.416   .     A
C1484  C1496   1.411   .     A
C1484  C1942   1.495   .     S
C1485  C1497   1.411   .     A
C1485  C1945   1.495   .     S
C1485  C1585   1.417   .     A
C1486  C1586   1.414   .     A
C1486  C1948   1.493   .     S
C1486  C514    1.404   1_565 S
C1487  C1587   1.415   .     A
C1487  C1951   1.493   .     S
C1487  C1007   1.405   1_655 S
C1488  C1954   1.495   .     S
C1488  C1588   1.416   .     A
C1488  C1500   1.411   .     S
C1489  C1581   1.416   .     A
C1489  C1957   1.495   .     S
C1489  C513    1.411   1_565 S
C1490  C1960   1.492   .     S
C1490  C1498   1.405   .     A
C1490  C1582   1.416   .     A
C1491  C1963   1.493   .     S
C1491  C1583   1.415   .     A
C1491  C1499   1.405   .     A
C1492  C1966   1.495   .     S
C1492  C1008   1.411   1_655 A
C1492  C1584   1.416   .     A
C1493  C1519   1.454   .     S
C1494  C1520   1.452   .     S
C1495  C1517   1.452   .     S
C1496  C1518   1.454   .     S
C1497  C1523   1.454   .     S
C1499  C1521   1.452   .     S
C1500  C1522   1.454   .     S
C1501  C1573   1.426   .     A
C1501  C1681   1.490   .     S
C1501  C1506   1.412   .     A
C1502  C1574   1.419   .     A
C1502  C1684   1.492   .     S
C1502  C1505   1.415   .     A
C1503  C1575   1.419   .     A
C1503  C1508   1.413   .     A
C1503  C1687   1.492   .     S
C1504  C1507   1.412   .     A
C1504  C1576   1.426   .     A
C1504  C1690   1.490   .     S
C1505  C1577   1.425   .     A
C1505  C1693   1.490   .     S
C1506  C1578   1.418   .     A
C1506  C1696   1.492   .     S
C1507  C1579   1.418   .     A
C1507  C1699   1.492   .     S
C1508  C1580   1.426   .     A
C1508  C1702   1.490   .     S
C1509  C1705   1.490   .     S
C1509  C1581   1.426   .     A
C1509  C1514   1.412   1_556 S
C1510  C1582   1.419   .     A
C1510  C1708   1.492   .     S
C1510  C1513   1.415   1_554 S
C1511  C1583   1.419   .     A
C1511  C1711   1.492   .     S
C1511  C1516   1.413   1_556 S
C1512  C1584   1.426   .     A
C1512  C1714   1.490   .     S
C1512  C1515   1.412   1_554 S
C1513  C1585   1.425   .     A
C1513  C1717   1.490   .     S
C1513  C1510   1.415   1_556 S
C1514  C1586   1.418   .     A
C1514  C1720   1.492   .     S
C1514  C1509   1.412   1_554 S
C1515  C1587   1.418   .     A
C1515  C1723   1.492   .     S
C1515  C1512   1.412   1_556 S
C1516  C1588   1.426   .     A
C1516  C1726   1.490   .     S
C1516  C1511   1.413   1_554 S
C1517  O1621   1.275   .     A
C1518  O1618   1.276   .     A
C1519  O1619   1.275   .     A
C1520  O1624   1.275   .     A
C1521  O1629   1.275   .     A
C1521  O1625   1.275   .     A
C1522  O1630   1.276   .     A
C1522  O1626   1.276   .     A
C1523  O1627   1.275   .     S
C1523  O1631   1.276   .     S
C1524  O648    1.275   1_565 A
C1524  O644    1.275   1_565 A
C1524  C514    1.452   1_565 S
C1525  C1591   1.454   .     S
C1525  O1633   1.277   .     A
C1525  O1659   1.277   .     A
C1526  O1660   1.279   .     A
C1526  O1634   1.279   .     A
C1526  C1592   1.459   .     S
C1527  O1657   1.277   .     A
C1527  O1635   1.277   .     A
C1527  C1593   1.451   .     S
C1528  O1658   1.279   .     A
C1528  O1636   1.279   .     A
C1528  C1594   1.455   .     S
C1529  C1595   1.453   .     S
C1529  O1663   1.277   .     A
C1529  O1637   1.277   .     A
C1530  O1664   1.279   .     A
C1530  C1596   1.459   .     S
C1530  O1638   1.279   .     A
C1531  O1639   1.277   .     A
C1531  C1589   1.451   .     S
C1531  O1661   1.277   .     A
C1532  O1640   1.279   .     A
C1532  O1662   1.279   .     A
C1532  C1590   1.455   .     S
C1533  C1599   1.451   .     S
C1533  O1651   1.277   .     A
C1533  O1641   1.277   .     A
C1534  O1642   1.279   .     A
C1534  O1652   1.279   .     A
C1534  C1600   1.455   .     S
C1535  O1643   1.277   .     A
C1535  C1601   1.453   .     S
C1535  O1649   1.277   .     A
C1536  O1650   1.279   .     A
C1536  O1644   1.279   .     A
C1536  C1602   1.459   .     S
C1537  O1655   1.277   .     A
C1537  O1645   1.277   .     A
C1537  C1603   1.451   .     S
C1538  O1646   1.279   .     A
C1538  O1656   1.279   .     A
C1538  C1604   1.455   .     S
C1539  O1647   1.277   .     A
C1539  C1597   1.453   .     S
C1539  O1653   1.277   .     A
C1540  O1648   1.279   .     A
C1540  O1654   1.279   .     A
C1540  C1598   1.459   .     S
C1541  N1729   1.427   .     S
C1541  C1604   1.410   .     A
C1541  C1556   1.406   .     A
C1542  C1555   1.406   .     A
C1542  C1603   1.407   .     A
C1542  N1735   1.427   .     S
C1543  N1741   1.427   .     S
C1543  C1602   1.412   .     A
C1543  C1554   1.405   .     A
C1544  C1553   1.405   .     A
C1544  C1601   1.407   .     A
C1544  N1747   1.427   .     S
C1545  C1552   1.406   .     A
C1545  C1600   1.410   .     A
C1545  N1753   1.427   .     S
C1546  N1759   1.427   .     S
C1546  C1599   1.407   .     A
C1546  C1551   1.406   .     A
C1547  C1598   1.412   .     A
C1547  C1550   1.405   .     A
C1547  N1765   1.427   .     S
C1548  C1549   1.405   .     A
C1548  C1597   1.407   .     A
C1548  N1771   1.427   .     S
C1549  N1777   1.427   .     S
C1549  C1596   1.412   .     A
C1550  C1595   1.407   .     A
C1550  N1783   1.427   .     S
C1551  N1789   1.427   .     S
C1551  C1594   1.410   .     A
C1552  N1795   1.427   .     S
C1552  C1593   1.406   .     A
C1553  C1592   1.412   .     A
C1553  N1801   1.427   .     S
C1554  C1591   1.407   .     A
C1554  N1807   1.427   .     S
C1555  N1813   1.427   .     S
C1555  C1590   1.411   .     A
C1556  N1819   1.427   .     S
C1556  C1589   1.406   .     A
C1557  C1590   1.410   .     A
C1557  N1825   1.427   .     S
C1557  C1572   1.406   .     A
C1558  N1831   1.427   .     S
C1558  C1571   1.406   .     A
C1558  C1589   1.406   .     A
C1559  N1837   1.427   .     S
C1559  C1570   1.405   .     A
C1559  C1592   1.412   .     A
C1560  C1569   1.405   .     A
C1560  C1591   1.407   .     A
C1560  N1843   1.427   .     S
C1561  C1594   1.410   .     A
C1561  C1568   1.406   .     A
C1561  N1849   1.427   .     S
C1562  C1593   1.407   .     A
C1562  N1855   1.427   .     S
C1562  C1567   1.406   .     A
C1563  N1861   1.427   .     S
C1563  C1566   1.405   .     A
C1563  C1596   1.412   .     A
C1564  C1595   1.407   .     A
C1564  C1565   1.405   .     A
C1564  N1867   1.427   .     S
C1565  C1598   1.412   .     A
C1565  N1873   1.427   .     S
C1566  N1879   1.427   .     S
C1566  C1597   1.407   .     A
C1567  N1885   1.427   .     S
C1567  C1600   1.410   .     A
C1568  C1599   1.406   .     A
C1568  N1891   1.427   .     S
C1569  N1897   1.427   .     S
C1569  C1602   1.412   .     A
C1570  N1903   1.427   .     S
C1570  C1601   1.407   .     A
C1571  C1604   1.410   .     A
C1571  N1909   1.427   .     S
C1572  N1915   1.427   .     S
C1572  C1603   1.407   .     A
C1573  C1605   1.419   .     A
C1574  C1114   1.417   1_655 S
C1575  C623    1.416   1_565 A
C1576  C1608   1.419   .     S
C1577  C1113   1.418   1_655 S
C1578  C1606   1.416   .     A
C1579  C1607   1.416   .     S
C1580  C624    1.419   1_565 A
C1581  C625    1.419   1_565 S
C1582  C1610   1.417   .     A
C1583  C1611   1.416   .     A
C1584  C1120   1.419   1_655 S
C1585  C1609   1.418   .     A
C1586  C626    1.416   1_565 S
C1587  C1119   1.416   1_655 S
C1588  C1612   1.419   .     A
C1605  C1606   1.406   .     A
C1607  C1608   1.406   .     A
C1609  C1610   1.406   1_556 S
C1610  C1609   1.406   1_554 S
C1611  C1612   1.406   1_556 S
C1612  C1611   1.406   1_554 S
O1613  Zn1676  1.945   .     S
O1613  Zn1665  1.945   .     S
O1613  Zn1669  1.945   .     S
O1614  Zn1670  1.945   .     S
O1614  Zn1666  1.945   .     S
O1614  Zn1679  1.945   .     S
O1615  Zn1671  1.945   .     S
O1615  Zn1674  1.945   .     S
O1615  Zn1667  1.945   .     S
O1616  Zn1668  1.945   .     S
O1616  Zn1677  1.945   .     S
O1616  Zn1672  1.945   .     S
O1617  Zn1680  1.945   .     S
O1617  C533    1.275   1_565 S
O1618  Zn1679  1.945   .     S
O1619  Zn1674  1.944   .     S
O1620  Zn1673  1.944   .     S
O1620  C1028   1.275   1_655 S
O1621  Zn1676  1.945   .     S
O1622  Zn1675  1.945   .     S
O1622  C534    1.276   1_565 S
O1623  Zn1678  1.945   .     S
O1623  C1027   1.276   1_655 S
O1624  Zn1677  1.945   .     S
O1625  Zn1672  1.945   .     S
O1626  Zn1671  1.945   .     S
O1627  Zn1666  1.944   .     S
O1628  Zn1665  1.944   .     S
O1629  Zn1668  1.945   .     S
O1630  Zn1667  1.945   .     S
O1631  Zn1670  1.945   .     S
O1632  Zn1669  1.945   .     S
O1633  Zn1676  1.936   .     S
O1634  Zn1675  1.936   .     S
O1635  Zn1678  1.932   .     S
O1636  Zn1677  1.932   .     S
O1637  Zn1680  1.936   .     S
O1638  Zn1679  1.936   .     S
O1639  Zn1674  1.932   .     S
O1640  Zn1673  1.932   .     S
O1641  Zn1675  1.932   .     S
O1642  Zn1676  1.932   .     S
O1643  Zn1673  1.936   .     S
O1644  Zn1674  1.936   .     S
O1645  Zn1679  1.932   .     S
O1646  Zn1680  1.932   .     S
O1647  Zn1677  1.936   .     S
O1648  Zn1678  1.936   .     S
O1649  Zn1176  1.936   1_655 S
O1650  Zn1667  1.936   .     S
O1651  Zn686   1.932   1_565 S
O1652  Zn1669  1.932   .     S
O1653  Zn1672  1.936   .     S
O1654  Zn1179  1.936   1_655 S
O1655  Zn1666  1.932   .     S
O1656  Zn681   1.932   1_565 S
O1657  Zn1175  1.932   1_655 S
O1658  Zn1668  1.932   .     S
O1659  Zn1665  1.936   .     S
O1660  Zn682   1.936   1_565 S
O1661  Zn1671  1.932   .     S
O1662  Zn1180  1.932   1_655 S
O1663  Zn685   1.936   1_565 S
O1664  Zn1670  1.936   .     S
Zn1673 O1124   1.945   1_655 S
Zn1675 O630    1.945   1_565 S
Zn1678 O1123   1.945   1_655 S
Zn1680 O629    1.945   1_565 S
C1681  O1683   1.221   .     D
C1681  H1682   1.084   .     S
C1684  H1685   1.086   .     S
C1684  O1686   1.220   .     D
C1687  O1689   1.221   .     D
C1687  H1688   1.084   .     S
C1690  O1692   1.221   .     D
C1690  H1691   1.084   .     S
C1693  H1694   1.083   .     S
C1693  O1695   1.221   .     D
C1696  H1697   1.084   .     S
C1696  O1698   1.221   .     D
C1699  O1701   1.221   .     D
C1699  H1700   1.084   .     S
C1702  H1703   1.084   .     S
C1702  O1704   1.221   .     D
C1705  H1706   1.084   .     S
C1705  O1707   1.221   .     D
C1708  O1710   1.220   .     D
C1708  H1709   1.086   .     S
C1711  O1713   1.221   .     D
C1711  H1712   1.084   .     S
C1714  O1716   1.221   .     D
C1714  H1715   1.084   .     S
C1717  O1719   1.221   .     D
C1717  H1718   1.083   .     S
C1720  H1721   1.084   .     S
C1720  O1722   1.221   .     D
C1723  O1725   1.221   .     D
C1723  H1724   1.084   .     S
C1726  O1728   1.221   .     D
C1726  H1727   1.084   .     S
N1729  H1730   1.031   .     S
N1729  C1731   1.449   .     S
C1731  H1733   1.110   .     S
C1731  H1734   1.110   .     S
C1731  H1732   1.109   .     S
N1735  C1737   1.447   .     S
N1735  H1736   1.029   .     S
C1737  H1740   1.109   .     S
C1737  H1738   1.111   .     S
C1737  H1739   1.111   .     S
N1741  C1743   1.450   .     S
N1741  H1742   1.031   .     S
C1743  H1746   1.111   .     S
C1743  H1744   1.109   .     S
C1743  H1745   1.110   .     S
N1747  H1748   1.029   .     S
N1747  C1749   1.447   .     S
C1749  H1752   1.111   .     S
C1749  H1751   1.109   .     S
C1749  H1750   1.111   .     S
N1753  H1754   1.031   .     S
N1753  C1755   1.449   .     S
C1755  H1757   1.110   .     S
C1755  H1756   1.109   .     S
C1755  H1758   1.110   .     S
N1759  H1760   1.029   .     S
N1759  C1761   1.447   .     S
C1761  H1763   1.111   .     S
C1761  H1762   1.111   .     S
C1761  H1764   1.109   .     S
N1765  H1766   1.031   .     S
N1765  C1767   1.449   .     S
C1767  H1768   1.109   .     S
C1767  H1769   1.110   .     S
C1767  H1770   1.111   .     S
N1771  C1773   1.447   .     S
N1771  H1772   1.029   .     S
C1773  H1775   1.109   .     S
C1773  H1774   1.111   .     S
C1773  H1776   1.111   .     S
N1777  H1778   1.031   .     S
N1777  C1779   1.449   .     S
C1779  H1781   1.111   .     S
C1779  H1780   1.110   .     S
C1779  H1782   1.109   .     S
N1783  H1784   1.029   .     S
N1783  C1785   1.447   .     S
C1785  H1786   1.109   .     S
C1785  H1788   1.111   .     S
C1785  H1787   1.111   .     S
N1789  C1791   1.449   .     S
N1789  H1790   1.031   .     S
C1791  H1794   1.109   .     S
C1791  H1792   1.110   .     S
C1791  H1793   1.110   .     S
N1795  C1797   1.447   .     S
N1795  H1796   1.029   .     S
C1797  H1798   1.109   .     S
C1797  H1800   1.111   .     S
C1797  H1799   1.111   .     S
N1801  C1803   1.449   .     S
N1801  H1802   1.031   .     S
C1803  H1805   1.111   .     S
C1803  H1804   1.110   .     S
C1803  H1806   1.109   .     S
N1807  H1808   1.029   .     S
N1807  C1809   1.447   .     S
C1809  H1812   1.111   .     S
C1809  H1811   1.111   .     S
C1809  H1810   1.109   .     S
N1813  H1814   1.031   .     S
N1813  C1815   1.449   .     S
C1815  H1817   1.110   .     S
C1815  H1818   1.109   .     S
C1815  H1816   1.110   .     S
N1819  C1821   1.447   .     S
N1819  H1820   1.029   .     S
C1821  H1824   1.111   .     S
C1821  H1823   1.111   .     S
C1821  H1822   1.109   .     S
N1825  H1826   1.031   .     S
N1825  C1827   1.449   .     S
C1827  H1828   1.109   .     S
C1827  H1830   1.110   .     S
C1827  H1829   1.110   .     S
N1831  H1832   1.029   .     S
N1831  C1833   1.447   .     S
C1833  H1834   1.111   .     S
C1833  H1836   1.109   .     S
C1833  H1835   1.110   .     S
N1837  C1839   1.450   .     S
N1837  H1838   1.031   .     S
C1839  H1842   1.111   .     S
C1839  H1840   1.109   .     S
C1839  H1841   1.110   .     S
N1843  C1845   1.447   .     S
N1843  H1844   1.029   .     S
C1845  H1848   1.111   .     S
C1845  H1847   1.109   .     S
C1845  H1846   1.111   .     S
N1849  C1851   1.449   .     S
N1849  H1850   1.031   .     S
C1851  H1852   1.109   .     S
C1851  H1854   1.110   .     S
C1851  H1853   1.110   .     S
N1855  H1856   1.029   .     S
N1855  C1857   1.447   .     S
C1857  H1858   1.111   .     S
C1857  H1860   1.109   .     S
C1857  H1859   1.111   .     S
N1861  C1863   1.449   .     S
N1861  H1862   1.031   .     S
C1863  H1866   1.111   .     S
C1863  H1864   1.109   .     S
C1863  H1865   1.110   .     S
N1867  C1869   1.447   .     S
N1867  H1868   1.029   .     S
C1869  H1870   1.111   .     S
C1869  H1872   1.111   .     S
C1869  H1871   1.109   .     S
N1873  C1875   1.449   .     S
N1873  H1874   1.031   .     S
C1875  H1877   1.111   .     S
C1875  H1876   1.110   .     S
C1875  H1878   1.109   .     S
N1879  C1881   1.447   .     S
N1879  H1880   1.029   .     S
C1881  H1882   1.109   .     S
C1881  H1884   1.111   .     S
C1881  H1883   1.111   .     S
N1885  H1886   1.031   .     S
N1885  C1887   1.449   .     S
C1887  H1889   1.110   .     S
C1887  H1890   1.109   .     S
C1887  H1888   1.110   .     S
N1891  C1893   1.447   .     S
N1891  H1892   1.029   .     S
C1893  H1895   1.111   .     S
C1893  H1894   1.109   .     S
C1893  H1896   1.111   .     S
N1897  H1898   1.031   .     S
N1897  C1899   1.449   .     S
C1899  H1902   1.109   .     S
C1899  H1901   1.111   .     S
C1899  H1900   1.110   .     S
N1903  H1904   1.029   .     S
N1903  C1905   1.447   .     S
C1905  H1906   1.109   .     S
C1905  H1908   1.111   .     S
C1905  H1907   1.111   .     S
N1909  C1911   1.449   .     S
N1909  H1910   1.031   .     S
C1911  H1913   1.110   .     S
C1911  H1914   1.109   .     S
C1911  H1912   1.110   .     S
N1915  C1917   1.447   .     S
N1915  H1916   1.029   .     S
C1917  H1920   1.111   .     S
C1917  H1919   1.111   .     S
C1917  H1918   1.109   .     S
C1921  O1923   1.221   .     D
C1921  H1430   1.085   1_655 S
C1924  H1925   1.084   .     S
C1924  O1926   1.221   .     D
C1924  C986    1.493   1_655 S
C1927  H1928   1.084   .     S
C1927  O1929   1.221   .     D
C1927  C495    1.493   1_565 S
C1930  O1932   1.221   .     D
C1930  H947    1.085   1_565 S
C1933  O1935   1.221   .     D
H1934  C1441   1.085   1_655 S
C1936  O1938   1.221   .     D
C1936  H1937   1.084   .     S
C1939  H1940   1.084   .     S
C1939  O1941   1.221   .     D
C1942  O1944   1.221   .     D
H1943  C958    1.085   1_565 S
C1945  H1946   1.085   .     S
C1945  O1947   1.221   .     D
C1948  H1949   1.084   .     S
C1948  O1950   1.221   .     D
C1951  H1952   1.084   .     S
C1951  O1953   1.221   .     D
C1954  H1955   1.085   .     S
C1954  O1956   1.221   .     D
C1957  H1958   1.085   .     S
C1957  O1959   1.221   .     D
C1960  H1961   1.084   .     S
C1960  O1962   1.221   .     D
C1963  O1965   1.221   .     D
C1963  H1964   1.084   .     S
C1966  H1967   1.085   .     S
C1966  O1968   1.221   .     D
