data_str_m2_o1_o10_pcu_sym.79
_audit_creation_date              2020-01-03
_audit_creation_method            'Materials Studio'
_symmetry_space_group_name_H-M    'P1'
_symmetry_Int_Tables_number       1
_symmetry_cell_setting            triclinic
loop_
_symmetry_equiv_pos_as_xyz
  x,y,z
_cell_length_a                    26.2309
_cell_length_b                    32.2298
_cell_length_c                    28.8969
_cell_angle_alpha                 89.9505
_cell_angle_beta                  97.6158
_cell_angle_gamma                 92.0567
loop_
_atom_site_label
_atom_site_type_symbol
_atom_site_fract_x
_atom_site_fract_y
_atom_site_fract_z
_atom_site_U_iso_or_equiv
_atom_site_adp_type
_atom_site_occupancy
C1     C     0.16709   0.08762   0.16673   0.00000  Uiso   1.00
C2     C     0.21213   0.02232   0.18627   0.00000  Uiso   1.00
C3     C     0.16550   0.29038   0.16645   0.00000  Uiso   1.00
C4     C     0.16783   0.04295   0.16688   0.00000  Uiso   1.00
C5     C     0.13234   0.14181   0.02064   0.00000  Uiso   1.00
C6     C     0.20099   0.19152   0.31270   0.00000  Uiso   1.00
C7     C     0.13245   0.14168   0.30449   0.00000  Uiso   1.00
C8     C     0.20089   0.19166   0.02884   0.00000  Uiso   1.00
C9     C     0.07319   0.28739   0.12758   0.00000  Uiso   1.00
C10    C     0.26014   0.04594   0.20576   0.00000  Uiso   1.00
C11    C     0.09590   0.11360   0.04099   0.00000  Uiso   1.00
C12    C     0.16624   0.24571   0.16660   0.00000  Uiso   1.00
C13    C     0.23743   0.21974   0.29234   0.00000  Uiso   1.00
C14    C     0.09676   0.11259   0.27565   0.00000  Uiso   1.00
C15    C     0.23657   0.22075   0.05769   0.00000  Uiso   1.00
C16    C     0.06815   0.16589   0.15485   0.00000  Uiso   1.00
C17    C     0.26519   0.16745   0.17848   0.00000  Uiso   1.00
C18    C     0.01304   0.16203   0.14897   0.00000  Uiso   1.00
C19    C     0.32029   0.17130   0.18437   0.00000  Uiso   1.00
C20    C     0.12301   0.02107   0.14755   0.00000  Uiso   1.00
C21    C     0.21032   0.31226   0.18578   0.00000  Uiso   1.00
C22    C     0.12120   0.31101   0.14707   0.00000  Uiso   1.00
Cu23   Cu    0.16667   0.16667   0.21355   0.00000  Uiso   1.00
Cu24   Cu    0.16667   0.16666   0.11978   0.00000  Uiso   1.00
F25    F     0.32251   0.14607   0.10776   0.00000  Uiso   1.00
F26    F     0.01082   0.18726   0.22558   0.00000  Uiso   1.00
F27    F     0.08087   0.04246   0.13043   0.00000  Uiso   1.00
F28    F     0.25246   0.29087   0.20290   0.00000  Uiso   1.00
H29    H     0.07079   0.25384   0.12975   0.00000  Uiso   1.00
H30    H     0.26255   0.07949   0.20356   0.00000  Uiso   1.00
H31    H     0.10914   0.08542   0.05824   0.00000  Uiso   1.00
H32    H     0.22417   0.24792   0.27511   0.00000  Uiso   1.00
H33    H     0.11103   0.08538   0.26048   0.00000  Uiso   1.00
H34    H     0.22229   0.24796   0.07285   0.00000  Uiso   1.00
N35    N     0.16668   0.16668   0.28403   0.00000  Uiso   1.00
N36    N     0.16665   0.16666   0.04931   0.00000  Uiso   1.00
O37    O     0.16666   0.10655   0.20625   0.00000  Uiso   1.00
O38    O     0.29782   0.02834   0.22453   0.00000  Uiso   1.00
O39    O     0.05014   0.12077   0.03649   0.00000  Uiso   1.00
O40    O     0.28318   0.21257   0.29683   0.00000  Uiso   1.00
O41    O     0.05048   0.11753   0.27095   0.00000  Uiso   1.00
O42    O     0.28285   0.21580   0.06239   0.00000  Uiso   1.00
O43    O     0.16667   0.22678   0.12709   0.00000  Uiso   1.00
O44    O     0.16666   0.10654   0.12706   0.00000  Uiso   1.00
O45    O     0.16667   0.22679   0.20628   0.00000  Uiso   1.00
O46    O     0.09161   0.16667   0.19712   0.00000  Uiso   1.00
O47    O     0.24172   0.16666   0.13621   0.00000  Uiso   1.00
O48    O     0.09161   0.16666   0.11793   0.00000  Uiso   1.00
O49    O     0.24172   0.16667   0.21540   0.00000  Uiso   1.00
O50    O     0.03550   0.30500   0.10882   0.00000  Uiso   1.00
C51    C     0.50042   0.08762   0.16673   0.00000  Uiso   1.00
C52    C     0.54546   0.02232   0.18627   0.00000  Uiso   1.00
C53    C     0.49884   0.29038   0.16645   0.00000  Uiso   1.00
C54    C     0.50116   0.04295   0.16688   0.00000  Uiso   1.00
C55    C     0.46567   0.14181   0.02064   0.00000  Uiso   1.00
C56    C     0.53432   0.19152   0.31270   0.00000  Uiso   1.00
C57    C     0.46578   0.14168   0.30449   0.00000  Uiso   1.00
C58    C     0.53422   0.19166   0.02884   0.00000  Uiso   1.00
C59    C     0.40653   0.28739   0.12758   0.00000  Uiso   1.00
C60    C     0.59347   0.04594   0.20576   0.00000  Uiso   1.00
C61    C     0.42923   0.11360   0.04099   0.00000  Uiso   1.00
C62    C     0.49958   0.24571   0.16660   0.00000  Uiso   1.00
C63    C     0.57076   0.21974   0.29234   0.00000  Uiso   1.00
C64    C     0.43009   0.11259   0.27565   0.00000  Uiso   1.00
C65    C     0.56990   0.22075   0.05769   0.00000  Uiso   1.00
C66    C     0.40148   0.16589   0.15485   0.00000  Uiso   1.00
C67    C     0.59852   0.16745   0.17848   0.00000  Uiso   1.00
C68    C     0.34638   0.16203   0.14897   0.00000  Uiso   1.00
C69    C     0.65362   0.17130   0.18437   0.00000  Uiso   1.00
C70    C     0.45634   0.02107   0.14755   0.00000  Uiso   1.00
C71    C     0.54366   0.31226   0.18578   0.00000  Uiso   1.00
C72    C     0.45453   0.31101   0.14707   0.00000  Uiso   1.00
Cu73   Cu    0.50000   0.16667   0.21355   0.00000  Uiso   1.00
Cu74   Cu    0.50000   0.16666   0.11978   0.00000  Uiso   1.00
F75    F     0.65584   0.14607   0.10776   0.00000  Uiso   1.00
F76    F     0.34416   0.18726   0.22558   0.00000  Uiso   1.00
F77    F     0.41420   0.04246   0.13043   0.00000  Uiso   1.00
F78    F     0.58579   0.29087   0.20290   0.00000  Uiso   1.00
H79    H     0.40412   0.25384   0.12975   0.00000  Uiso   1.00
H80    H     0.59588   0.07949   0.20356   0.00000  Uiso   1.00
H81    H     0.44248   0.08542   0.05824   0.00000  Uiso   1.00
H82    H     0.55750   0.24792   0.27511   0.00000  Uiso   1.00
H83    H     0.44437   0.08538   0.26048   0.00000  Uiso   1.00
H84    H     0.55562   0.24796   0.07285   0.00000  Uiso   1.00
N85    N     0.50001   0.16668   0.28403   0.00000  Uiso   1.00
N86    N     0.49999   0.16666   0.04931   0.00000  Uiso   1.00
O87    O     0.50000   0.10655   0.20625   0.00000  Uiso   1.00
O88    O     0.63115   0.02834   0.22453   0.00000  Uiso   1.00
O89    O     0.38348   0.12077   0.03649   0.00000  Uiso   1.00
O90    O     0.61651   0.21257   0.29683   0.00000  Uiso   1.00
O91    O     0.38381   0.11753   0.27095   0.00000  Uiso   1.00
O92    O     0.61619   0.21580   0.06239   0.00000  Uiso   1.00
O93    O     0.50000   0.22678   0.12709   0.00000  Uiso   1.00
O94    O     0.50000   0.10654   0.12706   0.00000  Uiso   1.00
O95    O     0.50000   0.22679   0.20628   0.00000  Uiso   1.00
O96    O     0.42495   0.16667   0.19712   0.00000  Uiso   1.00
O97    O     0.57505   0.16666   0.13621   0.00000  Uiso   1.00
O98    O     0.42494   0.16666   0.11793   0.00000  Uiso   1.00
O99    O     0.57506   0.16667   0.21540   0.00000  Uiso   1.00
O100   O     0.36884   0.30500   0.10882   0.00000  Uiso   1.00
C101   C     0.83376   0.08762   0.16673   0.00000  Uiso   1.00
C102   C     0.87880   0.02232   0.18627   0.00000  Uiso   1.00
C103   C     0.83217   0.29038   0.16645   0.00000  Uiso   1.00
C104   C     0.83449   0.04295   0.16688   0.00000  Uiso   1.00
C105   C     0.79901   0.14181   0.02064   0.00000  Uiso   1.00
C106   C     0.86766   0.19152   0.31270   0.00000  Uiso   1.00
C107   C     0.79911   0.14168   0.30449   0.00000  Uiso   1.00
C108   C     0.86755   0.19166   0.02884   0.00000  Uiso   1.00
C109   C     0.73986   0.28739   0.12758   0.00000  Uiso   1.00
C110   C     0.92680   0.04594   0.20576   0.00000  Uiso   1.00
C111   C     0.76256   0.11360   0.04099   0.00000  Uiso   1.00
C112   C     0.83291   0.24571   0.16660   0.00000  Uiso   1.00
C113   C     0.90409   0.21974   0.29234   0.00000  Uiso   1.00
C114   C     0.76343   0.11259   0.27565   0.00000  Uiso   1.00
C115   C     0.90323   0.22075   0.05769   0.00000  Uiso   1.00
C116   C     0.73481   0.16589   0.15485   0.00000  Uiso   1.00
C117   C     0.93185   0.16745   0.17848   0.00000  Uiso   1.00
C118   C     0.67971   0.16203   0.14897   0.00000  Uiso   1.00
C119   C     0.98696   0.17130   0.18437   0.00000  Uiso   1.00
C120   C     0.78967   0.02107   0.14755   0.00000  Uiso   1.00
C121   C     0.87699   0.31226   0.18578   0.00000  Uiso   1.00
C122   C     0.78787   0.31101   0.14707   0.00000  Uiso   1.00
Cu123  Cu    0.83333   0.16667   0.21355   0.00000  Uiso   1.00
Cu124  Cu    0.83333   0.16666   0.11978   0.00000  Uiso   1.00
F125   F     0.98918   0.14607   0.10776   0.00000  Uiso   1.00
F126   F     0.67749   0.18726   0.22558   0.00000  Uiso   1.00
F127   F     0.74754   0.04246   0.13043   0.00000  Uiso   1.00
F128   F     0.91913   0.29087   0.20290   0.00000  Uiso   1.00
H129   H     0.73746   0.25384   0.12975   0.00000  Uiso   1.00
H130   H     0.92922   0.07949   0.20356   0.00000  Uiso   1.00
H131   H     0.77581   0.08542   0.05824   0.00000  Uiso   1.00
H132   H     0.89084   0.24792   0.27511   0.00000  Uiso   1.00
H133   H     0.77770   0.08538   0.26048   0.00000  Uiso   1.00
H134   H     0.88896   0.24796   0.07285   0.00000  Uiso   1.00
N135   N     0.83335   0.16668   0.28403   0.00000  Uiso   1.00
N136   N     0.83332   0.16666   0.04931   0.00000  Uiso   1.00
O137   O     0.83333   0.10655   0.20625   0.00000  Uiso   1.00
O138   O     0.96449   0.02834   0.22453   0.00000  Uiso   1.00
O139   O     0.71681   0.12077   0.03649   0.00000  Uiso   1.00
O140   O     0.94984   0.21257   0.29683   0.00000  Uiso   1.00
O141   O     0.71714   0.11753   0.27095   0.00000  Uiso   1.00
O142   O     0.94952   0.21580   0.06239   0.00000  Uiso   1.00
O143   O     0.83334   0.22678   0.12709   0.00000  Uiso   1.00
O144   O     0.83333   0.10654   0.12706   0.00000  Uiso   1.00
O145   O     0.83334   0.22679   0.20628   0.00000  Uiso   1.00
O146   O     0.75828   0.16667   0.19712   0.00000  Uiso   1.00
O147   O     0.90839   0.16666   0.13621   0.00000  Uiso   1.00
O148   O     0.75828   0.16666   0.11793   0.00000  Uiso   1.00
O149   O     0.90839   0.16667   0.21540   0.00000  Uiso   1.00
O150   O     0.70217   0.30500   0.10882   0.00000  Uiso   1.00
C151   C     0.16709   0.42095   0.16673   0.00000  Uiso   1.00
C152   C     0.21213   0.35565   0.18627   0.00000  Uiso   1.00
C153   C     0.16550   0.62371   0.16645   0.00000  Uiso   1.00
C154   C     0.16783   0.37629   0.16688   0.00000  Uiso   1.00
C155   C     0.13234   0.47515   0.02064   0.00000  Uiso   1.00
C156   C     0.20099   0.52486   0.31270   0.00000  Uiso   1.00
C157   C     0.13245   0.47501   0.30449   0.00000  Uiso   1.00
C158   C     0.20089   0.52499   0.02884   0.00000  Uiso   1.00
C159   C     0.07319   0.62073   0.12758   0.00000  Uiso   1.00
C160   C     0.26014   0.37927   0.20576   0.00000  Uiso   1.00
C161   C     0.09590   0.44693   0.04099   0.00000  Uiso   1.00
C162   C     0.16624   0.57904   0.16660   0.00000  Uiso   1.00
C163   C     0.23743   0.55308   0.29234   0.00000  Uiso   1.00
C164   C     0.09676   0.44592   0.27565   0.00000  Uiso   1.00
C165   C     0.23657   0.55408   0.05769   0.00000  Uiso   1.00
C166   C     0.06815   0.49922   0.15485   0.00000  Uiso   1.00
C167   C     0.26519   0.50078   0.17848   0.00000  Uiso   1.00
C168   C     0.01304   0.49536   0.14897   0.00000  Uiso   1.00
C169   C     0.32029   0.50464   0.18437   0.00000  Uiso   1.00
C170   C     0.12301   0.35440   0.14755   0.00000  Uiso   1.00
C171   C     0.21032   0.64560   0.18578   0.00000  Uiso   1.00
C172   C     0.12120   0.64435   0.14707   0.00000  Uiso   1.00
Cu173  Cu    0.16667   0.50001   0.21355   0.00000  Uiso   1.00
Cu174  Cu    0.16667   0.49999   0.11978   0.00000  Uiso   1.00
F175   F     0.32251   0.47941   0.10776   0.00000  Uiso   1.00
F176   F     0.01082   0.52059   0.22558   0.00000  Uiso   1.00
F177   F     0.08087   0.37580   0.13043   0.00000  Uiso   1.00
F178   F     0.25246   0.62420   0.20290   0.00000  Uiso   1.00
H179   H     0.07079   0.58718   0.12975   0.00000  Uiso   1.00
H180   H     0.26255   0.41282   0.20356   0.00000  Uiso   1.00
H181   H     0.10914   0.41876   0.05824   0.00000  Uiso   1.00
H182   H     0.22417   0.58126   0.27511   0.00000  Uiso   1.00
H183   H     0.11103   0.41872   0.26048   0.00000  Uiso   1.00
H184   H     0.22229   0.58129   0.07285   0.00000  Uiso   1.00
N185   N     0.16668   0.50001   0.28403   0.00000  Uiso   1.00
N186   N     0.16665   0.49999   0.04931   0.00000  Uiso   1.00
O187   O     0.16666   0.43989   0.20625   0.00000  Uiso   1.00
O188   O     0.29782   0.36167   0.22453   0.00000  Uiso   1.00
O189   O     0.05014   0.45411   0.03649   0.00000  Uiso   1.00
O190   O     0.28318   0.54590   0.29683   0.00000  Uiso   1.00
O191   O     0.05048   0.45087   0.27095   0.00000  Uiso   1.00
O192   O     0.28285   0.54913   0.06239   0.00000  Uiso   1.00
O193   O     0.16667   0.56011   0.12709   0.00000  Uiso   1.00
O194   O     0.16666   0.43988   0.12706   0.00000  Uiso   1.00
O195   O     0.16667   0.56012   0.20628   0.00000  Uiso   1.00
O196   O     0.09161   0.50000   0.19712   0.00000  Uiso   1.00
O197   O     0.24172   0.50000   0.13621   0.00000  Uiso   1.00
O198   O     0.09161   0.49999   0.11793   0.00000  Uiso   1.00
O199   O     0.24172   0.50001   0.21540   0.00000  Uiso   1.00
O200   O     0.03550   0.63833   0.10882   0.00000  Uiso   1.00
C201   C     0.50042   0.42095   0.16673   0.00000  Uiso   1.00
C202   C     0.54546   0.35565   0.18627   0.00000  Uiso   1.00
C203   C     0.49884   0.62371   0.16645   0.00000  Uiso   1.00
C204   C     0.50116   0.37629   0.16688   0.00000  Uiso   1.00
C205   C     0.46567   0.47515   0.02064   0.00000  Uiso   1.00
C206   C     0.53432   0.52486   0.31270   0.00000  Uiso   1.00
C207   C     0.46578   0.47501   0.30449   0.00000  Uiso   1.00
C208   C     0.53422   0.52499   0.02884   0.00000  Uiso   1.00
C209   C     0.40653   0.62073   0.12758   0.00000  Uiso   1.00
C210   C     0.59347   0.37927   0.20576   0.00000  Uiso   1.00
C211   C     0.42923   0.44693   0.04099   0.00000  Uiso   1.00
C212   C     0.49958   0.57904   0.16660   0.00000  Uiso   1.00
C213   C     0.57076   0.55308   0.29234   0.00000  Uiso   1.00
C214   C     0.43009   0.44592   0.27565   0.00000  Uiso   1.00
C215   C     0.56990   0.55408   0.05769   0.00000  Uiso   1.00
C216   C     0.40148   0.49922   0.15485   0.00000  Uiso   1.00
C217   C     0.59852   0.50078   0.17848   0.00000  Uiso   1.00
C218   C     0.34638   0.49536   0.14897   0.00000  Uiso   1.00
C219   C     0.65362   0.50464   0.18437   0.00000  Uiso   1.00
C220   C     0.45634   0.35440   0.14755   0.00000  Uiso   1.00
C221   C     0.54366   0.64560   0.18578   0.00000  Uiso   1.00
C222   C     0.45453   0.64435   0.14707   0.00000  Uiso   1.00
Cu223  Cu    0.50000   0.50001   0.21355   0.00000  Uiso   1.00
Cu224  Cu    0.50000   0.49999   0.11978   0.00000  Uiso   1.00
F225   F     0.65584   0.47941   0.10776   0.00000  Uiso   1.00
F226   F     0.34416   0.52059   0.22558   0.00000  Uiso   1.00
F227   F     0.41420   0.37580   0.13043   0.00000  Uiso   1.00
F228   F     0.58579   0.62420   0.20290   0.00000  Uiso   1.00
H229   H     0.40412   0.58718   0.12975   0.00000  Uiso   1.00
H230   H     0.59588   0.41282   0.20356   0.00000  Uiso   1.00
H231   H     0.44248   0.41876   0.05824   0.00000  Uiso   1.00
H232   H     0.55750   0.58126   0.27511   0.00000  Uiso   1.00
H233   H     0.44437   0.41872   0.26048   0.00000  Uiso   1.00
H234   H     0.55562   0.58129   0.07285   0.00000  Uiso   1.00
N235   N     0.50001   0.50001   0.28403   0.00000  Uiso   1.00
N236   N     0.49999   0.49999   0.04931   0.00000  Uiso   1.00
O237   O     0.50000   0.43989   0.20625   0.00000  Uiso   1.00
O238   O     0.63115   0.36167   0.22453   0.00000  Uiso   1.00
O239   O     0.38348   0.45411   0.03649   0.00000  Uiso   1.00
O240   O     0.61651   0.54590   0.29683   0.00000  Uiso   1.00
O241   O     0.38381   0.45087   0.27095   0.00000  Uiso   1.00
O242   O     0.61619   0.54913   0.06239   0.00000  Uiso   1.00
O243   O     0.50000   0.56011   0.12709   0.00000  Uiso   1.00
O244   O     0.50000   0.43988   0.12706   0.00000  Uiso   1.00
O245   O     0.50000   0.56012   0.20628   0.00000  Uiso   1.00
O246   O     0.42495   0.50000   0.19712   0.00000  Uiso   1.00
O247   O     0.57505   0.50000   0.13621   0.00000  Uiso   1.00
O248   O     0.42494   0.49999   0.11793   0.00000  Uiso   1.00
O249   O     0.57506   0.50001   0.21540   0.00000  Uiso   1.00
O250   O     0.36884   0.63833   0.10882   0.00000  Uiso   1.00
C251   C     0.83376   0.42095   0.16673   0.00000  Uiso   1.00
C252   C     0.87880   0.35565   0.18627   0.00000  Uiso   1.00
C253   C     0.83217   0.62371   0.16645   0.00000  Uiso   1.00
C254   C     0.83449   0.37629   0.16688   0.00000  Uiso   1.00
C255   C     0.79901   0.47515   0.02064   0.00000  Uiso   1.00
C256   C     0.86766   0.52486   0.31270   0.00000  Uiso   1.00
C257   C     0.79911   0.47501   0.30449   0.00000  Uiso   1.00
C258   C     0.86755   0.52499   0.02884   0.00000  Uiso   1.00
C259   C     0.73986   0.62073   0.12758   0.00000  Uiso   1.00
C260   C     0.92680   0.37927   0.20576   0.00000  Uiso   1.00
C261   C     0.76256   0.44693   0.04099   0.00000  Uiso   1.00
C262   C     0.83291   0.57904   0.16660   0.00000  Uiso   1.00
C263   C     0.90409   0.55308   0.29234   0.00000  Uiso   1.00
C264   C     0.76343   0.44592   0.27565   0.00000  Uiso   1.00
C265   C     0.90323   0.55408   0.05769   0.00000  Uiso   1.00
C266   C     0.73481   0.49922   0.15485   0.00000  Uiso   1.00
C267   C     0.93185   0.50078   0.17848   0.00000  Uiso   1.00
C268   C     0.67971   0.49536   0.14897   0.00000  Uiso   1.00
C269   C     0.98696   0.50464   0.18437   0.00000  Uiso   1.00
C270   C     0.78967   0.35440   0.14755   0.00000  Uiso   1.00
C271   C     0.87699   0.64560   0.18578   0.00000  Uiso   1.00
C272   C     0.78787   0.64435   0.14707   0.00000  Uiso   1.00
Cu273  Cu    0.83333   0.50001   0.21355   0.00000  Uiso   1.00
Cu274  Cu    0.83333   0.49999   0.11978   0.00000  Uiso   1.00
F275   F     0.98918   0.47941   0.10776   0.00000  Uiso   1.00
F276   F     0.67749   0.52059   0.22558   0.00000  Uiso   1.00
F277   F     0.74754   0.37580   0.13043   0.00000  Uiso   1.00
F278   F     0.91913   0.62420   0.20290   0.00000  Uiso   1.00
H279   H     0.73746   0.58718   0.12975   0.00000  Uiso   1.00
H280   H     0.92922   0.41282   0.20356   0.00000  Uiso   1.00
H281   H     0.77581   0.41876   0.05824   0.00000  Uiso   1.00
H282   H     0.89084   0.58126   0.27511   0.00000  Uiso   1.00
H283   H     0.77770   0.41872   0.26048   0.00000  Uiso   1.00
H284   H     0.88896   0.58129   0.07285   0.00000  Uiso   1.00
N285   N     0.83335   0.50001   0.28403   0.00000  Uiso   1.00
N286   N     0.83332   0.49999   0.04931   0.00000  Uiso   1.00
O287   O     0.83333   0.43989   0.20625   0.00000  Uiso   1.00
O288   O     0.96449   0.36167   0.22453   0.00000  Uiso   1.00
O289   O     0.71681   0.45411   0.03649   0.00000  Uiso   1.00
O290   O     0.94984   0.54590   0.29683   0.00000  Uiso   1.00
O291   O     0.71714   0.45087   0.27095   0.00000  Uiso   1.00
O292   O     0.94952   0.54913   0.06239   0.00000  Uiso   1.00
O293   O     0.83334   0.56011   0.12709   0.00000  Uiso   1.00
O294   O     0.83333   0.43988   0.12706   0.00000  Uiso   1.00
O295   O     0.83334   0.56012   0.20628   0.00000  Uiso   1.00
O296   O     0.75828   0.50000   0.19712   0.00000  Uiso   1.00
O297   O     0.90839   0.50000   0.13621   0.00000  Uiso   1.00
O298   O     0.75828   0.49999   0.11793   0.00000  Uiso   1.00
O299   O     0.90839   0.50001   0.21540   0.00000  Uiso   1.00
O300   O     0.70217   0.63833   0.10882   0.00000  Uiso   1.00
C301   C     0.16709   0.75429   0.16673   0.00000  Uiso   1.00
C302   C     0.21213   0.68899   0.18627   0.00000  Uiso   1.00
C303   C     0.16550   0.95705   0.16645   0.00000  Uiso   1.00
C304   C     0.16783   0.70962   0.16688   0.00000  Uiso   1.00
C305   C     0.13234   0.80848   0.02064   0.00000  Uiso   1.00
C306   C     0.20099   0.85819   0.31270   0.00000  Uiso   1.00
C307   C     0.13245   0.80834   0.30449   0.00000  Uiso   1.00
C308   C     0.20089   0.85832   0.02884   0.00000  Uiso   1.00
C309   C     0.07319   0.95406   0.12758   0.00000  Uiso   1.00
C310   C     0.26014   0.71261   0.20576   0.00000  Uiso   1.00
C311   C     0.09590   0.78027   0.04099   0.00000  Uiso   1.00
C312   C     0.16624   0.91238   0.16660   0.00000  Uiso   1.00
C313   C     0.23743   0.88641   0.29234   0.00000  Uiso   1.00
C314   C     0.09676   0.77925   0.27565   0.00000  Uiso   1.00
C315   C     0.23657   0.88742   0.05769   0.00000  Uiso   1.00
C316   C     0.06815   0.83255   0.15485   0.00000  Uiso   1.00
C317   C     0.26519   0.83411   0.17848   0.00000  Uiso   1.00
C318   C     0.01304   0.82870   0.14897   0.00000  Uiso   1.00
C319   C     0.32029   0.83797   0.18437   0.00000  Uiso   1.00
C320   C     0.12301   0.68774   0.14755   0.00000  Uiso   1.00
C321   C     0.21032   0.97893   0.18578   0.00000  Uiso   1.00
C322   C     0.12120   0.97768   0.14707   0.00000  Uiso   1.00
Cu323  Cu    0.16667   0.83334   0.21355   0.00000  Uiso   1.00
Cu324  Cu    0.16667   0.83333   0.11978   0.00000  Uiso   1.00
F325   F     0.32251   0.81274   0.10776   0.00000  Uiso   1.00
F326   F     0.01082   0.85393   0.22558   0.00000  Uiso   1.00
F327   F     0.08087   0.70913   0.13043   0.00000  Uiso   1.00
F328   F     0.25246   0.95753   0.20290   0.00000  Uiso   1.00
H329   H     0.07079   0.92051   0.12975   0.00000  Uiso   1.00
H330   H     0.26255   0.74616   0.20356   0.00000  Uiso   1.00
H331   H     0.10914   0.75209   0.05824   0.00000  Uiso   1.00
H332   H     0.22417   0.91459   0.27511   0.00000  Uiso   1.00
H333   H     0.11103   0.75205   0.26048   0.00000  Uiso   1.00
H334   H     0.22229   0.91463   0.07285   0.00000  Uiso   1.00
N335   N     0.16668   0.83334   0.28403   0.00000  Uiso   1.00
N336   N     0.16665   0.83332   0.04931   0.00000  Uiso   1.00
O337   O     0.16666   0.77322   0.20625   0.00000  Uiso   1.00
O338   O     0.29782   0.69500   0.22453   0.00000  Uiso   1.00
O339   O     0.05014   0.78744   0.03649   0.00000  Uiso   1.00
O340   O     0.28318   0.87923   0.29683   0.00000  Uiso   1.00
O341   O     0.05048   0.78420   0.27095   0.00000  Uiso   1.00
O342   O     0.28285   0.88246   0.06239   0.00000  Uiso   1.00
O343   O     0.16667   0.89345   0.12709   0.00000  Uiso   1.00
O344   O     0.16666   0.77321   0.12706   0.00000  Uiso   1.00
O345   O     0.16667   0.89346   0.20628   0.00000  Uiso   1.00
O346   O     0.09161   0.83334   0.19712   0.00000  Uiso   1.00
O347   O     0.24172   0.83333   0.13621   0.00000  Uiso   1.00
O348   O     0.09161   0.83333   0.11793   0.00000  Uiso   1.00
O349   O     0.24172   0.83334   0.21540   0.00000  Uiso   1.00
O350   O     0.03550   0.97166   0.10882   0.00000  Uiso   1.00
C351   C     0.50042   0.75429   0.16673   0.00000  Uiso   1.00
C352   C     0.54546   0.68899   0.18627   0.00000  Uiso   1.00
C353   C     0.49884   0.95705   0.16645   0.00000  Uiso   1.00
C354   C     0.50116   0.70962   0.16688   0.00000  Uiso   1.00
C355   C     0.46567   0.80848   0.02064   0.00000  Uiso   1.00
C356   C     0.53432   0.85819   0.31270   0.00000  Uiso   1.00
C357   C     0.46578   0.80834   0.30449   0.00000  Uiso   1.00
C358   C     0.53422   0.85832   0.02884   0.00000  Uiso   1.00
C359   C     0.40653   0.95406   0.12758   0.00000  Uiso   1.00
C360   C     0.59347   0.71261   0.20576   0.00000  Uiso   1.00
C361   C     0.42923   0.78027   0.04099   0.00000  Uiso   1.00
C362   C     0.49958   0.91238   0.16660   0.00000  Uiso   1.00
C363   C     0.57076   0.88641   0.29234   0.00000  Uiso   1.00
C364   C     0.43009   0.77925   0.27565   0.00000  Uiso   1.00
C365   C     0.56990   0.88742   0.05769   0.00000  Uiso   1.00
C366   C     0.40148   0.83255   0.15485   0.00000  Uiso   1.00
C367   C     0.59852   0.83411   0.17848   0.00000  Uiso   1.00
C368   C     0.34638   0.82870   0.14897   0.00000  Uiso   1.00
C369   C     0.65362   0.83797   0.18437   0.00000  Uiso   1.00
C370   C     0.45634   0.68774   0.14755   0.00000  Uiso   1.00
C371   C     0.54366   0.97893   0.18578   0.00000  Uiso   1.00
C372   C     0.45453   0.97768   0.14707   0.00000  Uiso   1.00
Cu373  Cu    0.50000   0.83334   0.21355   0.00000  Uiso   1.00
Cu374  Cu    0.50000   0.83333   0.11978   0.00000  Uiso   1.00
F375   F     0.65584   0.81274   0.10776   0.00000  Uiso   1.00
F376   F     0.34416   0.85393   0.22558   0.00000  Uiso   1.00
F377   F     0.41420   0.70913   0.13043   0.00000  Uiso   1.00
F378   F     0.58579   0.95753   0.20290   0.00000  Uiso   1.00
H379   H     0.40412   0.92051   0.12975   0.00000  Uiso   1.00
H380   H     0.59588   0.74616   0.20356   0.00000  Uiso   1.00
H381   H     0.44248   0.75209   0.05824   0.00000  Uiso   1.00
H382   H     0.55750   0.91459   0.27511   0.00000  Uiso   1.00
H383   H     0.44437   0.75205   0.26048   0.00000  Uiso   1.00
H384   H     0.55562   0.91463   0.07285   0.00000  Uiso   1.00
N385   N     0.50001   0.83334   0.28403   0.00000  Uiso   1.00
N386   N     0.49999   0.83332   0.04931   0.00000  Uiso   1.00
O387   O     0.50000   0.77322   0.20625   0.00000  Uiso   1.00
O388   O     0.63115   0.69500   0.22453   0.00000  Uiso   1.00
O389   O     0.38348   0.78744   0.03649   0.00000  Uiso   1.00
O390   O     0.61651   0.87923   0.29683   0.00000  Uiso   1.00
O391   O     0.38381   0.78420   0.27095   0.00000  Uiso   1.00
O392   O     0.61619   0.88246   0.06239   0.00000  Uiso   1.00
O393   O     0.50000   0.89345   0.12709   0.00000  Uiso   1.00
O394   O     0.50000   0.77321   0.12706   0.00000  Uiso   1.00
O395   O     0.50000   0.89346   0.20628   0.00000  Uiso   1.00
O396   O     0.42495   0.83334   0.19712   0.00000  Uiso   1.00
O397   O     0.57505   0.83333   0.13621   0.00000  Uiso   1.00
O398   O     0.42494   0.83333   0.11793   0.00000  Uiso   1.00
O399   O     0.57506   0.83334   0.21540   0.00000  Uiso   1.00
O400   O     0.36884   0.97166   0.10882   0.00000  Uiso   1.00
C401   C     0.83376   0.75429   0.16673   0.00000  Uiso   1.00
C402   C     0.87880   0.68899   0.18627   0.00000  Uiso   1.00
C403   C     0.83217   0.95705   0.16645   0.00000  Uiso   1.00
C404   C     0.83449   0.70962   0.16688   0.00000  Uiso   1.00
C405   C     0.79901   0.80848   0.02064   0.00000  Uiso   1.00
C406   C     0.86766   0.85819   0.31270   0.00000  Uiso   1.00
C407   C     0.79911   0.80834   0.30449   0.00000  Uiso   1.00
C408   C     0.86755   0.85832   0.02884   0.00000  Uiso   1.00
C409   C     0.73986   0.95406   0.12758   0.00000  Uiso   1.00
C410   C     0.92680   0.71261   0.20576   0.00000  Uiso   1.00
C411   C     0.76256   0.78027   0.04099   0.00000  Uiso   1.00
C412   C     0.83291   0.91238   0.16660   0.00000  Uiso   1.00
C413   C     0.90409   0.88641   0.29234   0.00000  Uiso   1.00
C414   C     0.76343   0.77925   0.27565   0.00000  Uiso   1.00
C415   C     0.90323   0.88742   0.05769   0.00000  Uiso   1.00
C416   C     0.73481   0.83255   0.15485   0.00000  Uiso   1.00
C417   C     0.93185   0.83411   0.17848   0.00000  Uiso   1.00
C418   C     0.67971   0.82870   0.14897   0.00000  Uiso   1.00
C419   C     0.98696   0.83797   0.18437   0.00000  Uiso   1.00
C420   C     0.78967   0.68774   0.14755   0.00000  Uiso   1.00
C421   C     0.87699   0.97893   0.18578   0.00000  Uiso   1.00
C422   C     0.78787   0.97768   0.14707   0.00000  Uiso   1.00
Cu423  Cu    0.83333   0.83334   0.21355   0.00000  Uiso   1.00
Cu424  Cu    0.83333   0.83333   0.11978   0.00000  Uiso   1.00
F425   F     0.98918   0.81274   0.10776   0.00000  Uiso   1.00
F426   F     0.67749   0.85393   0.22558   0.00000  Uiso   1.00
F427   F     0.74754   0.70913   0.13043   0.00000  Uiso   1.00
F428   F     0.91913   0.95753   0.20290   0.00000  Uiso   1.00
H429   H     0.73746   0.92051   0.12975   0.00000  Uiso   1.00
H430   H     0.92922   0.74616   0.20356   0.00000  Uiso   1.00
H431   H     0.77581   0.75209   0.05824   0.00000  Uiso   1.00
H432   H     0.89084   0.91459   0.27511   0.00000  Uiso   1.00
H433   H     0.77770   0.75205   0.26048   0.00000  Uiso   1.00
H434   H     0.88896   0.91463   0.07285   0.00000  Uiso   1.00
N435   N     0.83335   0.83334   0.28403   0.00000  Uiso   1.00
N436   N     0.83332   0.83332   0.04931   0.00000  Uiso   1.00
O437   O     0.83333   0.77322   0.20625   0.00000  Uiso   1.00
O438   O     0.96449   0.69500   0.22453   0.00000  Uiso   1.00
O439   O     0.71681   0.78744   0.03649   0.00000  Uiso   1.00
O440   O     0.94984   0.87923   0.29683   0.00000  Uiso   1.00
O441   O     0.71714   0.78420   0.27095   0.00000  Uiso   1.00
O442   O     0.94952   0.88246   0.06239   0.00000  Uiso   1.00
O443   O     0.83334   0.89345   0.12709   0.00000  Uiso   1.00
O444   O     0.83333   0.77321   0.12706   0.00000  Uiso   1.00
O445   O     0.83334   0.89346   0.20628   0.00000  Uiso   1.00
O446   O     0.75828   0.83334   0.19712   0.00000  Uiso   1.00
O447   O     0.90839   0.83333   0.13621   0.00000  Uiso   1.00
O448   O     0.75828   0.83333   0.11793   0.00000  Uiso   1.00
O449   O     0.90839   0.83334   0.21540   0.00000  Uiso   1.00
O450   O     0.70217   0.97166   0.10882   0.00000  Uiso   1.00
C451   C     0.16709   0.08762   0.50006   0.00000  Uiso   1.00
C452   C     0.21213   0.02232   0.51960   0.00000  Uiso   1.00
C453   C     0.16550   0.29038   0.49978   0.00000  Uiso   1.00
C454   C     0.16783   0.04295   0.50022   0.00000  Uiso   1.00
C455   C     0.13234   0.14181   0.35397   0.00000  Uiso   1.00
C456   C     0.20099   0.19152   0.64603   0.00000  Uiso   1.00
C457   C     0.13245   0.14168   0.63782   0.00000  Uiso   1.00
C458   C     0.20089   0.19166   0.36218   0.00000  Uiso   1.00
C459   C     0.07319   0.28739   0.46091   0.00000  Uiso   1.00
C460   C     0.26014   0.04594   0.53909   0.00000  Uiso   1.00
C461   C     0.09590   0.11360   0.37432   0.00000  Uiso   1.00
C462   C     0.16624   0.24571   0.49994   0.00000  Uiso   1.00
C463   C     0.23743   0.21974   0.62568   0.00000  Uiso   1.00
C464   C     0.09676   0.11259   0.60898   0.00000  Uiso   1.00
C465   C     0.23657   0.22075   0.39102   0.00000  Uiso   1.00
C466   C     0.06815   0.16589   0.48818   0.00000  Uiso   1.00
C467   C     0.26519   0.16745   0.51182   0.00000  Uiso   1.00
C468   C     0.01304   0.16203   0.48230   0.00000  Uiso   1.00
C469   C     0.32029   0.17130   0.51770   0.00000  Uiso   1.00
C470   C     0.12301   0.02107   0.48089   0.00000  Uiso   1.00
C471   C     0.21032   0.31226   0.51911   0.00000  Uiso   1.00
C472   C     0.12120   0.31101   0.48040   0.00000  Uiso   1.00
Cu473  Cu    0.16667   0.16667   0.54689   0.00000  Uiso   1.00
Cu474  Cu    0.16667   0.16666   0.45311   0.00000  Uiso   1.00
F475   F     0.32251   0.14607   0.44109   0.00000  Uiso   1.00
F476   F     0.01082   0.18726   0.55891   0.00000  Uiso   1.00
F477   F     0.08087   0.04246   0.46377   0.00000  Uiso   1.00
F478   F     0.25246   0.29087   0.53623   0.00000  Uiso   1.00
H479   H     0.07079   0.25384   0.46308   0.00000  Uiso   1.00
H480   H     0.26255   0.07949   0.53690   0.00000  Uiso   1.00
H481   H     0.10914   0.08542   0.39157   0.00000  Uiso   1.00
H482   H     0.22417   0.24792   0.60845   0.00000  Uiso   1.00
H483   H     0.11103   0.08538   0.59381   0.00000  Uiso   1.00
H484   H     0.22229   0.24796   0.40618   0.00000  Uiso   1.00
N485   N     0.16668   0.16668   0.61736   0.00000  Uiso   1.00
N486   N     0.16665   0.16666   0.38264   0.00000  Uiso   1.00
O487   O     0.16666   0.10655   0.53958   0.00000  Uiso   1.00
O488   O     0.29782   0.02834   0.55787   0.00000  Uiso   1.00
O489   O     0.05014   0.12077   0.36982   0.00000  Uiso   1.00
O490   O     0.28318   0.21257   0.63016   0.00000  Uiso   1.00
O491   O     0.05048   0.11753   0.60428   0.00000  Uiso   1.00
O492   O     0.28285   0.21580   0.39572   0.00000  Uiso   1.00
O493   O     0.16667   0.22678   0.46042   0.00000  Uiso   1.00
O494   O     0.16666   0.10654   0.46039   0.00000  Uiso   1.00
O495   O     0.16667   0.22679   0.53961   0.00000  Uiso   1.00
O496   O     0.09161   0.16667   0.53046   0.00000  Uiso   1.00
O497   O     0.24172   0.16666   0.46954   0.00000  Uiso   1.00
O498   O     0.09161   0.16666   0.45127   0.00000  Uiso   1.00
O499   O     0.24172   0.16667   0.54873   0.00000  Uiso   1.00
O500   O     0.03550   0.30500   0.44216   0.00000  Uiso   1.00
C501   C     0.50042   0.08762   0.50006   0.00000  Uiso   1.00
C502   C     0.54546   0.02232   0.51960   0.00000  Uiso   1.00
C503   C     0.49884   0.29038   0.49978   0.00000  Uiso   1.00
C504   C     0.50116   0.04295   0.50022   0.00000  Uiso   1.00
C505   C     0.46567   0.14181   0.35397   0.00000  Uiso   1.00
C506   C     0.53432   0.19152   0.64603   0.00000  Uiso   1.00
C507   C     0.46578   0.14168   0.63782   0.00000  Uiso   1.00
C508   C     0.53422   0.19166   0.36218   0.00000  Uiso   1.00
C509   C     0.40653   0.28739   0.46091   0.00000  Uiso   1.00
C510   C     0.59347   0.04594   0.53909   0.00000  Uiso   1.00
C511   C     0.42923   0.11360   0.37432   0.00000  Uiso   1.00
C512   C     0.49958   0.24571   0.49994   0.00000  Uiso   1.00
C513   C     0.57076   0.21974   0.62568   0.00000  Uiso   1.00
C514   C     0.43009   0.11259   0.60898   0.00000  Uiso   1.00
C515   C     0.56990   0.22075   0.39102   0.00000  Uiso   1.00
C516   C     0.40148   0.16589   0.48818   0.00000  Uiso   1.00
C517   C     0.59852   0.16745   0.51182   0.00000  Uiso   1.00
C518   C     0.34638   0.16203   0.48230   0.00000  Uiso   1.00
C519   C     0.65362   0.17130   0.51770   0.00000  Uiso   1.00
C520   C     0.45634   0.02107   0.48089   0.00000  Uiso   1.00
C521   C     0.54366   0.31226   0.51911   0.00000  Uiso   1.00
C522   C     0.45453   0.31101   0.48040   0.00000  Uiso   1.00
Cu523  Cu    0.50000   0.16667   0.54689   0.00000  Uiso   1.00
Cu524  Cu    0.50000   0.16666   0.45311   0.00000  Uiso   1.00
F525   F     0.65584   0.14607   0.44109   0.00000  Uiso   1.00
F526   F     0.34416   0.18726   0.55891   0.00000  Uiso   1.00
F527   F     0.41420   0.04246   0.46377   0.00000  Uiso   1.00
F528   F     0.58579   0.29087   0.53623   0.00000  Uiso   1.00
H529   H     0.40412   0.25384   0.46308   0.00000  Uiso   1.00
H530   H     0.59588   0.07949   0.53690   0.00000  Uiso   1.00
H531   H     0.44248   0.08542   0.39157   0.00000  Uiso   1.00
H532   H     0.55750   0.24792   0.60845   0.00000  Uiso   1.00
H533   H     0.44437   0.08538   0.59381   0.00000  Uiso   1.00
H534   H     0.55562   0.24796   0.40618   0.00000  Uiso   1.00
N535   N     0.50001   0.16668   0.61736   0.00000  Uiso   1.00
N536   N     0.49999   0.16666   0.38264   0.00000  Uiso   1.00
O537   O     0.50000   0.10655   0.53958   0.00000  Uiso   1.00
O538   O     0.63115   0.02834   0.55787   0.00000  Uiso   1.00
O539   O     0.38348   0.12077   0.36982   0.00000  Uiso   1.00
O540   O     0.61651   0.21257   0.63016   0.00000  Uiso   1.00
O541   O     0.38381   0.11753   0.60428   0.00000  Uiso   1.00
O542   O     0.61619   0.21580   0.39572   0.00000  Uiso   1.00
O543   O     0.50000   0.22678   0.46042   0.00000  Uiso   1.00
O544   O     0.50000   0.10654   0.46039   0.00000  Uiso   1.00
O545   O     0.50000   0.22679   0.53961   0.00000  Uiso   1.00
O546   O     0.42495   0.16667   0.53046   0.00000  Uiso   1.00
O547   O     0.57505   0.16666   0.46954   0.00000  Uiso   1.00
O548   O     0.42494   0.16666   0.45127   0.00000  Uiso   1.00
O549   O     0.57506   0.16667   0.54873   0.00000  Uiso   1.00
O550   O     0.36884   0.30500   0.44216   0.00000  Uiso   1.00
C551   C     0.83376   0.08762   0.50006   0.00000  Uiso   1.00
C552   C     0.87880   0.02232   0.51960   0.00000  Uiso   1.00
C553   C     0.83217   0.29038   0.49978   0.00000  Uiso   1.00
C554   C     0.83449   0.04295   0.50022   0.00000  Uiso   1.00
C555   C     0.79901   0.14181   0.35397   0.00000  Uiso   1.00
C556   C     0.86766   0.19152   0.64603   0.00000  Uiso   1.00
C557   C     0.79911   0.14168   0.63782   0.00000  Uiso   1.00
C558   C     0.86755   0.19166   0.36218   0.00000  Uiso   1.00
C559   C     0.73986   0.28739   0.46091   0.00000  Uiso   1.00
C560   C     0.92680   0.04594   0.53909   0.00000  Uiso   1.00
C561   C     0.76256   0.11360   0.37432   0.00000  Uiso   1.00
C562   C     0.83291   0.24571   0.49994   0.00000  Uiso   1.00
C563   C     0.90409   0.21974   0.62568   0.00000  Uiso   1.00
C564   C     0.76343   0.11259   0.60898   0.00000  Uiso   1.00
C565   C     0.90323   0.22075   0.39102   0.00000  Uiso   1.00
C566   C     0.73481   0.16589   0.48818   0.00000  Uiso   1.00
C567   C     0.93185   0.16745   0.51182   0.00000  Uiso   1.00
C568   C     0.67971   0.16203   0.48230   0.00000  Uiso   1.00
C569   C     0.98696   0.17130   0.51770   0.00000  Uiso   1.00
C570   C     0.78967   0.02107   0.48089   0.00000  Uiso   1.00
C571   C     0.87699   0.31226   0.51911   0.00000  Uiso   1.00
C572   C     0.78787   0.31101   0.48040   0.00000  Uiso   1.00
Cu573  Cu    0.83333   0.16667   0.54689   0.00000  Uiso   1.00
Cu574  Cu    0.83333   0.16666   0.45311   0.00000  Uiso   1.00
F575   F     0.98918   0.14607   0.44109   0.00000  Uiso   1.00
F576   F     0.67749   0.18726   0.55891   0.00000  Uiso   1.00
F577   F     0.74754   0.04246   0.46377   0.00000  Uiso   1.00
F578   F     0.91913   0.29087   0.53623   0.00000  Uiso   1.00
H579   H     0.73746   0.25384   0.46308   0.00000  Uiso   1.00
H580   H     0.92922   0.07949   0.53690   0.00000  Uiso   1.00
H581   H     0.77581   0.08542   0.39157   0.00000  Uiso   1.00
H582   H     0.89084   0.24792   0.60845   0.00000  Uiso   1.00
H583   H     0.77770   0.08538   0.59381   0.00000  Uiso   1.00
H584   H     0.88896   0.24796   0.40618   0.00000  Uiso   1.00
N585   N     0.83335   0.16668   0.61736   0.00000  Uiso   1.00
N586   N     0.83332   0.16666   0.38264   0.00000  Uiso   1.00
O587   O     0.83333   0.10655   0.53958   0.00000  Uiso   1.00
O588   O     0.96449   0.02834   0.55787   0.00000  Uiso   1.00
O589   O     0.71681   0.12077   0.36982   0.00000  Uiso   1.00
O590   O     0.94984   0.21257   0.63016   0.00000  Uiso   1.00
O591   O     0.71714   0.11753   0.60428   0.00000  Uiso   1.00
O592   O     0.94952   0.21580   0.39572   0.00000  Uiso   1.00
O593   O     0.83334   0.22678   0.46042   0.00000  Uiso   1.00
O594   O     0.83333   0.10654   0.46039   0.00000  Uiso   1.00
O595   O     0.83334   0.22679   0.53961   0.00000  Uiso   1.00
O596   O     0.75828   0.16667   0.53046   0.00000  Uiso   1.00
O597   O     0.90839   0.16666   0.46954   0.00000  Uiso   1.00
O598   O     0.75828   0.16666   0.45127   0.00000  Uiso   1.00
O599   O     0.90839   0.16667   0.54873   0.00000  Uiso   1.00
O600   O     0.70217   0.30500   0.44216   0.00000  Uiso   1.00
C601   C     0.16709   0.42095   0.50006   0.00000  Uiso   1.00
C602   C     0.21213   0.35565   0.51960   0.00000  Uiso   1.00
C603   C     0.16550   0.62371   0.49978   0.00000  Uiso   1.00
C604   C     0.16783   0.37629   0.50022   0.00000  Uiso   1.00
C605   C     0.13234   0.47515   0.35397   0.00000  Uiso   1.00
C606   C     0.20099   0.52486   0.64603   0.00000  Uiso   1.00
C607   C     0.13245   0.47501   0.63782   0.00000  Uiso   1.00
C608   C     0.20089   0.52499   0.36218   0.00000  Uiso   1.00
C609   C     0.07319   0.62073   0.46091   0.00000  Uiso   1.00
C610   C     0.26014   0.37927   0.53909   0.00000  Uiso   1.00
C611   C     0.09590   0.44693   0.37432   0.00000  Uiso   1.00
C612   C     0.16624   0.57904   0.49994   0.00000  Uiso   1.00
C613   C     0.23743   0.55308   0.62568   0.00000  Uiso   1.00
C614   C     0.09676   0.44592   0.60898   0.00000  Uiso   1.00
C615   C     0.23657   0.55408   0.39102   0.00000  Uiso   1.00
C616   C     0.06815   0.49922   0.48818   0.00000  Uiso   1.00
C617   C     0.26519   0.50078   0.51182   0.00000  Uiso   1.00
C618   C     0.01304   0.49536   0.48230   0.00000  Uiso   1.00
C619   C     0.32029   0.50464   0.51770   0.00000  Uiso   1.00
C620   C     0.12301   0.35440   0.48089   0.00000  Uiso   1.00
C621   C     0.21032   0.64560   0.51911   0.00000  Uiso   1.00
C622   C     0.12120   0.64435   0.48040   0.00000  Uiso   1.00
Cu623  Cu    0.16667   0.50001   0.54689   0.00000  Uiso   1.00
Cu624  Cu    0.16667   0.49999   0.45311   0.00000  Uiso   1.00
F625   F     0.32251   0.47941   0.44109   0.00000  Uiso   1.00
F626   F     0.01082   0.52059   0.55891   0.00000  Uiso   1.00
F627   F     0.08087   0.37580   0.46377   0.00000  Uiso   1.00
F628   F     0.25246   0.62420   0.53623   0.00000  Uiso   1.00
H629   H     0.07079   0.58718   0.46308   0.00000  Uiso   1.00
H630   H     0.26255   0.41282   0.53690   0.00000  Uiso   1.00
H631   H     0.10914   0.41876   0.39157   0.00000  Uiso   1.00
H632   H     0.22417   0.58126   0.60845   0.00000  Uiso   1.00
H633   H     0.11103   0.41872   0.59381   0.00000  Uiso   1.00
H634   H     0.22229   0.58129   0.40618   0.00000  Uiso   1.00
N635   N     0.16668   0.50001   0.61736   0.00000  Uiso   1.00
N636   N     0.16665   0.49999   0.38264   0.00000  Uiso   1.00
O637   O     0.16666   0.43989   0.53958   0.00000  Uiso   1.00
O638   O     0.29782   0.36167   0.55787   0.00000  Uiso   1.00
O639   O     0.05014   0.45411   0.36982   0.00000  Uiso   1.00
O640   O     0.28318   0.54590   0.63016   0.00000  Uiso   1.00
O641   O     0.05048   0.45087   0.60428   0.00000  Uiso   1.00
O642   O     0.28285   0.54913   0.39572   0.00000  Uiso   1.00
O643   O     0.16667   0.56011   0.46042   0.00000  Uiso   1.00
O644   O     0.16666   0.43988   0.46039   0.00000  Uiso   1.00
O645   O     0.16667   0.56012   0.53961   0.00000  Uiso   1.00
O646   O     0.09161   0.50000   0.53046   0.00000  Uiso   1.00
O647   O     0.24172   0.50000   0.46954   0.00000  Uiso   1.00
O648   O     0.09161   0.49999   0.45127   0.00000  Uiso   1.00
O649   O     0.24172   0.50001   0.54873   0.00000  Uiso   1.00
O650   O     0.03550   0.63833   0.44216   0.00000  Uiso   1.00
C651   C     0.50042   0.42095   0.50006   0.00000  Uiso   1.00
C652   C     0.54546   0.35565   0.51960   0.00000  Uiso   1.00
C653   C     0.49884   0.62371   0.49978   0.00000  Uiso   1.00
C654   C     0.50116   0.37629   0.50022   0.00000  Uiso   1.00
C655   C     0.46567   0.47515   0.35397   0.00000  Uiso   1.00
C656   C     0.53432   0.52486   0.64603   0.00000  Uiso   1.00
C657   C     0.46578   0.47501   0.63782   0.00000  Uiso   1.00
C658   C     0.53422   0.52499   0.36218   0.00000  Uiso   1.00
C659   C     0.40653   0.62073   0.46091   0.00000  Uiso   1.00
C660   C     0.59347   0.37927   0.53909   0.00000  Uiso   1.00
C661   C     0.42923   0.44693   0.37432   0.00000  Uiso   1.00
C662   C     0.49958   0.57904   0.49994   0.00000  Uiso   1.00
C663   C     0.57076   0.55308   0.62568   0.00000  Uiso   1.00
C664   C     0.43009   0.44592   0.60898   0.00000  Uiso   1.00
C665   C     0.56990   0.55408   0.39102   0.00000  Uiso   1.00
C666   C     0.40148   0.49922   0.48818   0.00000  Uiso   1.00
C667   C     0.59852   0.50078   0.51182   0.00000  Uiso   1.00
C668   C     0.34638   0.49536   0.48230   0.00000  Uiso   1.00
C669   C     0.65362   0.50464   0.51770   0.00000  Uiso   1.00
C670   C     0.45634   0.35440   0.48089   0.00000  Uiso   1.00
C671   C     0.54366   0.64560   0.51911   0.00000  Uiso   1.00
C672   C     0.45453   0.64435   0.48040   0.00000  Uiso   1.00
Cu673  Cu    0.50000   0.50001   0.54689   0.00000  Uiso   1.00
Cu674  Cu    0.50000   0.49999   0.45311   0.00000  Uiso   1.00
F675   F     0.65584   0.47941   0.44109   0.00000  Uiso   1.00
F676   F     0.34416   0.52059   0.55891   0.00000  Uiso   1.00
F677   F     0.41420   0.37580   0.46377   0.00000  Uiso   1.00
F678   F     0.58579   0.62420   0.53623   0.00000  Uiso   1.00
H679   H     0.40412   0.58718   0.46308   0.00000  Uiso   1.00
H680   H     0.59588   0.41282   0.53690   0.00000  Uiso   1.00
H681   H     0.44248   0.41876   0.39157   0.00000  Uiso   1.00
H682   H     0.55750   0.58126   0.60845   0.00000  Uiso   1.00
H683   H     0.44437   0.41872   0.59381   0.00000  Uiso   1.00
H684   H     0.55562   0.58129   0.40618   0.00000  Uiso   1.00
N685   N     0.50001   0.50001   0.61736   0.00000  Uiso   1.00
N686   N     0.49999   0.49999   0.38264   0.00000  Uiso   1.00
O687   O     0.50000   0.43989   0.53958   0.00000  Uiso   1.00
O688   O     0.63115   0.36167   0.55787   0.00000  Uiso   1.00
O689   O     0.38348   0.45411   0.36982   0.00000  Uiso   1.00
O690   O     0.61651   0.54590   0.63016   0.00000  Uiso   1.00
O691   O     0.38381   0.45087   0.60428   0.00000  Uiso   1.00
O692   O     0.61619   0.54913   0.39572   0.00000  Uiso   1.00
O693   O     0.50000   0.56011   0.46042   0.00000  Uiso   1.00
O694   O     0.50000   0.43988   0.46039   0.00000  Uiso   1.00
O695   O     0.50000   0.56012   0.53961   0.00000  Uiso   1.00
O696   O     0.42495   0.50000   0.53046   0.00000  Uiso   1.00
O697   O     0.57505   0.50000   0.46954   0.00000  Uiso   1.00
O698   O     0.42494   0.49999   0.45127   0.00000  Uiso   1.00
O699   O     0.57506   0.50001   0.54873   0.00000  Uiso   1.00
O700   O     0.36884   0.63833   0.44216   0.00000  Uiso   1.00
C701   C     0.83376   0.42095   0.50006   0.00000  Uiso   1.00
C702   C     0.87880   0.35565   0.51960   0.00000  Uiso   1.00
C703   C     0.83217   0.62371   0.49978   0.00000  Uiso   1.00
C704   C     0.83449   0.37629   0.50022   0.00000  Uiso   1.00
C705   C     0.79901   0.47515   0.35397   0.00000  Uiso   1.00
C706   C     0.86766   0.52486   0.64603   0.00000  Uiso   1.00
C707   C     0.79911   0.47501   0.63782   0.00000  Uiso   1.00
C708   C     0.86755   0.52499   0.36218   0.00000  Uiso   1.00
C709   C     0.73986   0.62073   0.46091   0.00000  Uiso   1.00
C710   C     0.92680   0.37927   0.53909   0.00000  Uiso   1.00
C711   C     0.76256   0.44693   0.37432   0.00000  Uiso   1.00
C712   C     0.83291   0.57904   0.49994   0.00000  Uiso   1.00
C713   C     0.90409   0.55308   0.62568   0.00000  Uiso   1.00
C714   C     0.76343   0.44592   0.60898   0.00000  Uiso   1.00
C715   C     0.90323   0.55408   0.39102   0.00000  Uiso   1.00
C716   C     0.73481   0.49922   0.48818   0.00000  Uiso   1.00
C717   C     0.93185   0.50078   0.51182   0.00000  Uiso   1.00
C718   C     0.67971   0.49536   0.48230   0.00000  Uiso   1.00
C719   C     0.98696   0.50464   0.51770   0.00000  Uiso   1.00
C720   C     0.78967   0.35440   0.48089   0.00000  Uiso   1.00
C721   C     0.87699   0.64560   0.51911   0.00000  Uiso   1.00
C722   C     0.78787   0.64435   0.48040   0.00000  Uiso   1.00
Cu723  Cu    0.83333   0.50001   0.54689   0.00000  Uiso   1.00
Cu724  Cu    0.83333   0.49999   0.45311   0.00000  Uiso   1.00
F725   F     0.98918   0.47941   0.44109   0.00000  Uiso   1.00
F726   F     0.67749   0.52059   0.55891   0.00000  Uiso   1.00
F727   F     0.74754   0.37580   0.46377   0.00000  Uiso   1.00
F728   F     0.91913   0.62420   0.53623   0.00000  Uiso   1.00
H729   H     0.73746   0.58718   0.46308   0.00000  Uiso   1.00
H730   H     0.92922   0.41282   0.53690   0.00000  Uiso   1.00
H731   H     0.77581   0.41876   0.39157   0.00000  Uiso   1.00
H732   H     0.89084   0.58126   0.60845   0.00000  Uiso   1.00
H733   H     0.77770   0.41872   0.59381   0.00000  Uiso   1.00
H734   H     0.88896   0.58129   0.40618   0.00000  Uiso   1.00
N735   N     0.83335   0.50001   0.61736   0.00000  Uiso   1.00
N736   N     0.83332   0.49999   0.38264   0.00000  Uiso   1.00
O737   O     0.83333   0.43989   0.53958   0.00000  Uiso   1.00
O738   O     0.96449   0.36167   0.55787   0.00000  Uiso   1.00
O739   O     0.71681   0.45411   0.36982   0.00000  Uiso   1.00
O740   O     0.94984   0.54590   0.63016   0.00000  Uiso   1.00
O741   O     0.71714   0.45087   0.60428   0.00000  Uiso   1.00
O742   O     0.94952   0.54913   0.39572   0.00000  Uiso   1.00
O743   O     0.83334   0.56011   0.46042   0.00000  Uiso   1.00
O744   O     0.83333   0.43988   0.46039   0.00000  Uiso   1.00
O745   O     0.83334   0.56012   0.53961   0.00000  Uiso   1.00
O746   O     0.75828   0.50000   0.53046   0.00000  Uiso   1.00
O747   O     0.90839   0.50000   0.46954   0.00000  Uiso   1.00
O748   O     0.75828   0.49999   0.45127   0.00000  Uiso   1.00
O749   O     0.90839   0.50001   0.54873   0.00000  Uiso   1.00
O750   O     0.70217   0.63833   0.44216   0.00000  Uiso   1.00
C751   C     0.16709   0.75429   0.50006   0.00000  Uiso   1.00
C752   C     0.21213   0.68899   0.51960   0.00000  Uiso   1.00
C753   C     0.16550   0.95705   0.49978   0.00000  Uiso   1.00
C754   C     0.16783   0.70962   0.50022   0.00000  Uiso   1.00
C755   C     0.13234   0.80848   0.35397   0.00000  Uiso   1.00
C756   C     0.20099   0.85819   0.64603   0.00000  Uiso   1.00
C757   C     0.13245   0.80834   0.63782   0.00000  Uiso   1.00
C758   C     0.20089   0.85832   0.36218   0.00000  Uiso   1.00
C759   C     0.07319   0.95406   0.46091   0.00000  Uiso   1.00
C760   C     0.26014   0.71261   0.53909   0.00000  Uiso   1.00
C761   C     0.09590   0.78027   0.37432   0.00000  Uiso   1.00
C762   C     0.16624   0.91238   0.49994   0.00000  Uiso   1.00
C763   C     0.23743   0.88641   0.62568   0.00000  Uiso   1.00
C764   C     0.09676   0.77925   0.60898   0.00000  Uiso   1.00
C765   C     0.23657   0.88742   0.39102   0.00000  Uiso   1.00
C766   C     0.06815   0.83255   0.48818   0.00000  Uiso   1.00
C767   C     0.26519   0.83411   0.51182   0.00000  Uiso   1.00
C768   C     0.01304   0.82870   0.48230   0.00000  Uiso   1.00
C769   C     0.32029   0.83797   0.51770   0.00000  Uiso   1.00
C770   C     0.12301   0.68774   0.48089   0.00000  Uiso   1.00
C771   C     0.21032   0.97893   0.51911   0.00000  Uiso   1.00
C772   C     0.12120   0.97768   0.48040   0.00000  Uiso   1.00
Cu773  Cu    0.16667   0.83334   0.54689   0.00000  Uiso   1.00
Cu774  Cu    0.16667   0.83333   0.45311   0.00000  Uiso   1.00
F775   F     0.32251   0.81274   0.44109   0.00000  Uiso   1.00
F776   F     0.01082   0.85393   0.55891   0.00000  Uiso   1.00
F777   F     0.08087   0.70913   0.46377   0.00000  Uiso   1.00
F778   F     0.25246   0.95753   0.53623   0.00000  Uiso   1.00
H779   H     0.07079   0.92051   0.46308   0.00000  Uiso   1.00
H780   H     0.26255   0.74616   0.53690   0.00000  Uiso   1.00
H781   H     0.10914   0.75209   0.39157   0.00000  Uiso   1.00
H782   H     0.22417   0.91459   0.60845   0.00000  Uiso   1.00
H783   H     0.11103   0.75205   0.59381   0.00000  Uiso   1.00
H784   H     0.22229   0.91463   0.40618   0.00000  Uiso   1.00
N785   N     0.16668   0.83334   0.61736   0.00000  Uiso   1.00
N786   N     0.16665   0.83332   0.38264   0.00000  Uiso   1.00
O787   O     0.16666   0.77322   0.53958   0.00000  Uiso   1.00
O788   O     0.29782   0.69500   0.55787   0.00000  Uiso   1.00
O789   O     0.05014   0.78744   0.36982   0.00000  Uiso   1.00
O790   O     0.28318   0.87923   0.63016   0.00000  Uiso   1.00
O791   O     0.05048   0.78420   0.60428   0.00000  Uiso   1.00
O792   O     0.28285   0.88246   0.39572   0.00000  Uiso   1.00
O793   O     0.16667   0.89345   0.46042   0.00000  Uiso   1.00
O794   O     0.16666   0.77321   0.46039   0.00000  Uiso   1.00
O795   O     0.16667   0.89346   0.53961   0.00000  Uiso   1.00
O796   O     0.09161   0.83334   0.53046   0.00000  Uiso   1.00
O797   O     0.24172   0.83333   0.46954   0.00000  Uiso   1.00
O798   O     0.09161   0.83333   0.45127   0.00000  Uiso   1.00
O799   O     0.24172   0.83334   0.54873   0.00000  Uiso   1.00
O800   O     0.03550   0.97166   0.44216   0.00000  Uiso   1.00
C801   C     0.50042   0.75429   0.50006   0.00000  Uiso   1.00
C802   C     0.54546   0.68899   0.51960   0.00000  Uiso   1.00
C803   C     0.49884   0.95705   0.49978   0.00000  Uiso   1.00
C804   C     0.50116   0.70962   0.50022   0.00000  Uiso   1.00
C805   C     0.46567   0.80848   0.35397   0.00000  Uiso   1.00
C806   C     0.53432   0.85819   0.64603   0.00000  Uiso   1.00
C807   C     0.46578   0.80834   0.63782   0.00000  Uiso   1.00
C808   C     0.53422   0.85832   0.36218   0.00000  Uiso   1.00
C809   C     0.40653   0.95406   0.46091   0.00000  Uiso   1.00
C810   C     0.59347   0.71261   0.53909   0.00000  Uiso   1.00
C811   C     0.42923   0.78027   0.37432   0.00000  Uiso   1.00
C812   C     0.49958   0.91238   0.49994   0.00000  Uiso   1.00
C813   C     0.57076   0.88641   0.62568   0.00000  Uiso   1.00
C814   C     0.43009   0.77925   0.60898   0.00000  Uiso   1.00
C815   C     0.56990   0.88742   0.39102   0.00000  Uiso   1.00
C816   C     0.40148   0.83255   0.48818   0.00000  Uiso   1.00
C817   C     0.59852   0.83411   0.51182   0.00000  Uiso   1.00
C818   C     0.34638   0.82870   0.48230   0.00000  Uiso   1.00
C819   C     0.65362   0.83797   0.51770   0.00000  Uiso   1.00
C820   C     0.45634   0.68774   0.48089   0.00000  Uiso   1.00
C821   C     0.54366   0.97893   0.51911   0.00000  Uiso   1.00
C822   C     0.45453   0.97768   0.48040   0.00000  Uiso   1.00
Cu823  Cu    0.50000   0.83334   0.54689   0.00000  Uiso   1.00
Cu824  Cu    0.50000   0.83333   0.45311   0.00000  Uiso   1.00
F825   F     0.65584   0.81274   0.44109   0.00000  Uiso   1.00
F826   F     0.34416   0.85393   0.55891   0.00000  Uiso   1.00
F827   F     0.41420   0.70913   0.46377   0.00000  Uiso   1.00
F828   F     0.58579   0.95753   0.53623   0.00000  Uiso   1.00
H829   H     0.40412   0.92051   0.46308   0.00000  Uiso   1.00
H830   H     0.59588   0.74616   0.53690   0.00000  Uiso   1.00
H831   H     0.44248   0.75209   0.39157   0.00000  Uiso   1.00
H832   H     0.55750   0.91459   0.60845   0.00000  Uiso   1.00
H833   H     0.44437   0.75205   0.59381   0.00000  Uiso   1.00
H834   H     0.55562   0.91463   0.40618   0.00000  Uiso   1.00
N835   N     0.50001   0.83334   0.61736   0.00000  Uiso   1.00
N836   N     0.49999   0.83332   0.38264   0.00000  Uiso   1.00
O837   O     0.50000   0.77322   0.53958   0.00000  Uiso   1.00
O838   O     0.63115   0.69500   0.55787   0.00000  Uiso   1.00
O839   O     0.38348   0.78744   0.36982   0.00000  Uiso   1.00
O840   O     0.61651   0.87923   0.63016   0.00000  Uiso   1.00
O841   O     0.38381   0.78420   0.60428   0.00000  Uiso   1.00
O842   O     0.61619   0.88246   0.39572   0.00000  Uiso   1.00
O843   O     0.50000   0.89345   0.46042   0.00000  Uiso   1.00
O844   O     0.50000   0.77321   0.46039   0.00000  Uiso   1.00
O845   O     0.50000   0.89346   0.53961   0.00000  Uiso   1.00
O846   O     0.42495   0.83334   0.53046   0.00000  Uiso   1.00
O847   O     0.57505   0.83333   0.46954   0.00000  Uiso   1.00
O848   O     0.42494   0.83333   0.45127   0.00000  Uiso   1.00
O849   O     0.57506   0.83334   0.54873   0.00000  Uiso   1.00
O850   O     0.36884   0.97166   0.44216   0.00000  Uiso   1.00
C851   C     0.83376   0.75429   0.50006   0.00000  Uiso   1.00
C852   C     0.87880   0.68899   0.51960   0.00000  Uiso   1.00
C853   C     0.83217   0.95705   0.49978   0.00000  Uiso   1.00
C854   C     0.83449   0.70962   0.50022   0.00000  Uiso   1.00
C855   C     0.79901   0.80848   0.35397   0.00000  Uiso   1.00
C856   C     0.86766   0.85819   0.64603   0.00000  Uiso   1.00
C857   C     0.79911   0.80834   0.63782   0.00000  Uiso   1.00
C858   C     0.86755   0.85832   0.36218   0.00000  Uiso   1.00
C859   C     0.73986   0.95406   0.46091   0.00000  Uiso   1.00
C860   C     0.92680   0.71261   0.53909   0.00000  Uiso   1.00
C861   C     0.76256   0.78027   0.37432   0.00000  Uiso   1.00
C862   C     0.83291   0.91238   0.49994   0.00000  Uiso   1.00
C863   C     0.90409   0.88641   0.62568   0.00000  Uiso   1.00
C864   C     0.76343   0.77925   0.60898   0.00000  Uiso   1.00
C865   C     0.90323   0.88742   0.39102   0.00000  Uiso   1.00
C866   C     0.73481   0.83255   0.48818   0.00000  Uiso   1.00
C867   C     0.93185   0.83411   0.51182   0.00000  Uiso   1.00
C868   C     0.67971   0.82870   0.48230   0.00000  Uiso   1.00
C869   C     0.98696   0.83797   0.51770   0.00000  Uiso   1.00
C870   C     0.78967   0.68774   0.48089   0.00000  Uiso   1.00
C871   C     0.87699   0.97893   0.51911   0.00000  Uiso   1.00
C872   C     0.78787   0.97768   0.48040   0.00000  Uiso   1.00
Cu873  Cu    0.83333   0.83334   0.54689   0.00000  Uiso   1.00
Cu874  Cu    0.83333   0.83333   0.45311   0.00000  Uiso   1.00
F875   F     0.98918   0.81274   0.44109   0.00000  Uiso   1.00
F876   F     0.67749   0.85393   0.55891   0.00000  Uiso   1.00
F877   F     0.74754   0.70913   0.46377   0.00000  Uiso   1.00
F878   F     0.91913   0.95753   0.53623   0.00000  Uiso   1.00
H879   H     0.73746   0.92051   0.46308   0.00000  Uiso   1.00
H880   H     0.92922   0.74616   0.53690   0.00000  Uiso   1.00
H881   H     0.77581   0.75209   0.39157   0.00000  Uiso   1.00
H882   H     0.89084   0.91459   0.60845   0.00000  Uiso   1.00
H883   H     0.77770   0.75205   0.59381   0.00000  Uiso   1.00
H884   H     0.88896   0.91463   0.40618   0.00000  Uiso   1.00
N885   N     0.83335   0.83334   0.61736   0.00000  Uiso   1.00
N886   N     0.83332   0.83332   0.38264   0.00000  Uiso   1.00
O887   O     0.83333   0.77322   0.53958   0.00000  Uiso   1.00
O888   O     0.96449   0.69500   0.55787   0.00000  Uiso   1.00
O889   O     0.71681   0.78744   0.36982   0.00000  Uiso   1.00
O890   O     0.94984   0.87923   0.63016   0.00000  Uiso   1.00
O891   O     0.71714   0.78420   0.60428   0.00000  Uiso   1.00
O892   O     0.94952   0.88246   0.39572   0.00000  Uiso   1.00
O893   O     0.83334   0.89345   0.46042   0.00000  Uiso   1.00
O894   O     0.83333   0.77321   0.46039   0.00000  Uiso   1.00
O895   O     0.83334   0.89346   0.53961   0.00000  Uiso   1.00
O896   O     0.75828   0.83334   0.53046   0.00000  Uiso   1.00
O897   O     0.90839   0.83333   0.46954   0.00000  Uiso   1.00
O898   O     0.75828   0.83333   0.45127   0.00000  Uiso   1.00
O899   O     0.90839   0.83334   0.54873   0.00000  Uiso   1.00
O900   O     0.70217   0.97166   0.44216   0.00000  Uiso   1.00
C901   C     0.16709   0.08762   0.83340   0.00000  Uiso   1.00
C902   C     0.21213   0.02232   0.85293   0.00000  Uiso   1.00
C903   C     0.16550   0.29038   0.83312   0.00000  Uiso   1.00
C904   C     0.16783   0.04295   0.83355   0.00000  Uiso   1.00
C905   C     0.13234   0.14181   0.68730   0.00000  Uiso   1.00
C906   C     0.20099   0.19152   0.97936   0.00000  Uiso   1.00
C907   C     0.13245   0.14168   0.97116   0.00000  Uiso   1.00
C908   C     0.20089   0.19166   0.69551   0.00000  Uiso   1.00
C909   C     0.07319   0.28739   0.79424   0.00000  Uiso   1.00
C910   C     0.26014   0.04594   0.87242   0.00000  Uiso   1.00
C911   C     0.09590   0.11360   0.70765   0.00000  Uiso   1.00
C912   C     0.16624   0.24571   0.83327   0.00000  Uiso   1.00
C913   C     0.23743   0.21974   0.95901   0.00000  Uiso   1.00
C914   C     0.09676   0.11259   0.94231   0.00000  Uiso   1.00
C915   C     0.23657   0.22075   0.72435   0.00000  Uiso   1.00
C916   C     0.06815   0.16589   0.82152   0.00000  Uiso   1.00
C917   C     0.26519   0.16745   0.84515   0.00000  Uiso   1.00
C918   C     0.01304   0.16203   0.81563   0.00000  Uiso   1.00
C919   C     0.32029   0.17130   0.85103   0.00000  Uiso   1.00
C920   C     0.12301   0.02107   0.81422   0.00000  Uiso   1.00
C921   C     0.21032   0.31226   0.85245   0.00000  Uiso   1.00
C922   C     0.12120   0.31101   0.81373   0.00000  Uiso   1.00
Cu923  Cu    0.16667   0.16667   0.88022   0.00000  Uiso   1.00
Cu924  Cu    0.16667   0.16666   0.78645   0.00000  Uiso   1.00
F925   F     0.32251   0.14607   0.77442   0.00000  Uiso   1.00
F926   F     0.01082   0.18726   0.89224   0.00000  Uiso   1.00
F927   F     0.08087   0.04246   0.79710   0.00000  Uiso   1.00
F928   F     0.25246   0.29087   0.86956   0.00000  Uiso   1.00
H929   H     0.07079   0.25384   0.79642   0.00000  Uiso   1.00
H930   H     0.26255   0.07949   0.87023   0.00000  Uiso   1.00
H931   H     0.10914   0.08542   0.72490   0.00000  Uiso   1.00
H932   H     0.22417   0.24792   0.94178   0.00000  Uiso   1.00
H933   H     0.11103   0.08538   0.92714   0.00000  Uiso   1.00
H934   H     0.22229   0.24796   0.73951   0.00000  Uiso   1.00
N935   N     0.16668   0.16668   0.95069   0.00000  Uiso   1.00
N936   N     0.16665   0.16666   0.71597   0.00000  Uiso   1.00
O937   O     0.16666   0.10655   0.87291   0.00000  Uiso   1.00
O938   O     0.29782   0.02834   0.89120   0.00000  Uiso   1.00
O939   O     0.05014   0.12077   0.70316   0.00000  Uiso   1.00
O940   O     0.28318   0.21257   0.96349   0.00000  Uiso   1.00
O941   O     0.05048   0.11753   0.93762   0.00000  Uiso   1.00
O942   O     0.28285   0.21580   0.72906   0.00000  Uiso   1.00
O943   O     0.16667   0.22678   0.79375   0.00000  Uiso   1.00
O944   O     0.16666   0.10654   0.79372   0.00000  Uiso   1.00
O945   O     0.16667   0.22679   0.87294   0.00000  Uiso   1.00
O946   O     0.09161   0.16667   0.86379   0.00000  Uiso   1.00
O947   O     0.24172   0.16666   0.80288   0.00000  Uiso   1.00
O948   O     0.09161   0.16666   0.78460   0.00000  Uiso   1.00
O949   O     0.24172   0.16667   0.88207   0.00000  Uiso   1.00
O950   O     0.03550   0.30500   0.77549   0.00000  Uiso   1.00
C951   C     0.50042   0.08762   0.83340   0.00000  Uiso   1.00
C952   C     0.54546   0.02232   0.85293   0.00000  Uiso   1.00
C953   C     0.49884   0.29038   0.83312   0.00000  Uiso   1.00
C954   C     0.50116   0.04295   0.83355   0.00000  Uiso   1.00
C955   C     0.46567   0.14181   0.68730   0.00000  Uiso   1.00
C956   C     0.53432   0.19152   0.97936   0.00000  Uiso   1.00
C957   C     0.46578   0.14168   0.97116   0.00000  Uiso   1.00
C958   C     0.53422   0.19166   0.69551   0.00000  Uiso   1.00
C959   C     0.40653   0.28739   0.79424   0.00000  Uiso   1.00
C960   C     0.59347   0.04594   0.87242   0.00000  Uiso   1.00
C961   C     0.42923   0.11360   0.70765   0.00000  Uiso   1.00
C962   C     0.49958   0.24571   0.83327   0.00000  Uiso   1.00
C963   C     0.57076   0.21974   0.95901   0.00000  Uiso   1.00
C964   C     0.43009   0.11259   0.94231   0.00000  Uiso   1.00
C965   C     0.56990   0.22075   0.72435   0.00000  Uiso   1.00
C966   C     0.40148   0.16589   0.82152   0.00000  Uiso   1.00
C967   C     0.59852   0.16745   0.84515   0.00000  Uiso   1.00
C968   C     0.34638   0.16203   0.81563   0.00000  Uiso   1.00
C969   C     0.65362   0.17130   0.85103   0.00000  Uiso   1.00
C970   C     0.45634   0.02107   0.81422   0.00000  Uiso   1.00
C971   C     0.54366   0.31226   0.85245   0.00000  Uiso   1.00
C972   C     0.45453   0.31101   0.81373   0.00000  Uiso   1.00
Cu973  Cu    0.50000   0.16667   0.88022   0.00000  Uiso   1.00
Cu974  Cu    0.50000   0.16666   0.78645   0.00000  Uiso   1.00
F975   F     0.65584   0.14607   0.77442   0.00000  Uiso   1.00
F976   F     0.34416   0.18726   0.89224   0.00000  Uiso   1.00
F977   F     0.41420   0.04246   0.79710   0.00000  Uiso   1.00
F978   F     0.58579   0.29087   0.86956   0.00000  Uiso   1.00
H979   H     0.40412   0.25384   0.79642   0.00000  Uiso   1.00
H980   H     0.59588   0.07949   0.87023   0.00000  Uiso   1.00
H981   H     0.44248   0.08542   0.72490   0.00000  Uiso   1.00
H982   H     0.55750   0.24792   0.94178   0.00000  Uiso   1.00
H983   H     0.44437   0.08538   0.92714   0.00000  Uiso   1.00
H984   H     0.55562   0.24796   0.73951   0.00000  Uiso   1.00
N985   N     0.50001   0.16668   0.95069   0.00000  Uiso   1.00
N986   N     0.49999   0.16666   0.71597   0.00000  Uiso   1.00
O987   O     0.50000   0.10655   0.87291   0.00000  Uiso   1.00
O988   O     0.63115   0.02834   0.89120   0.00000  Uiso   1.00
O989   O     0.38348   0.12077   0.70316   0.00000  Uiso   1.00
O990   O     0.61651   0.21257   0.96349   0.00000  Uiso   1.00
O991   O     0.38381   0.11753   0.93762   0.00000  Uiso   1.00
O992   O     0.61619   0.21580   0.72906   0.00000  Uiso   1.00
O993   O     0.50000   0.22678   0.79375   0.00000  Uiso   1.00
O994   O     0.50000   0.10654   0.79372   0.00000  Uiso   1.00
O995   O     0.50000   0.22679   0.87294   0.00000  Uiso   1.00
O996   O     0.42495   0.16667   0.86379   0.00000  Uiso   1.00
O997   O     0.57505   0.16666   0.80288   0.00000  Uiso   1.00
O998   O     0.42494   0.16666   0.78460   0.00000  Uiso   1.00
O999   O     0.57506   0.16667   0.88207   0.00000  Uiso   1.00
O1000  O     0.36884   0.30500   0.77549   0.00000  Uiso   1.00
C1001  C     0.83376   0.08762   0.83340   0.00000  Uiso   1.00
C1002  C     0.87880   0.02232   0.85293   0.00000  Uiso   1.00
C1003  C     0.83217   0.29038   0.83312   0.00000  Uiso   1.00
C1004  C     0.83449   0.04295   0.83355   0.00000  Uiso   1.00
C1005  C     0.79901   0.14181   0.68730   0.00000  Uiso   1.00
C1006  C     0.86766   0.19152   0.97936   0.00000  Uiso   1.00
C1007  C     0.79911   0.14168   0.97116   0.00000  Uiso   1.00
C1008  C     0.86755   0.19166   0.69551   0.00000  Uiso   1.00
C1009  C     0.73986   0.28739   0.79424   0.00000  Uiso   1.00
C1010  C     0.92680   0.04594   0.87242   0.00000  Uiso   1.00
C1011  C     0.76256   0.11360   0.70765   0.00000  Uiso   1.00
C1012  C     0.83291   0.24571   0.83327   0.00000  Uiso   1.00
C1013  C     0.90409   0.21974   0.95901   0.00000  Uiso   1.00
C1014  C     0.76343   0.11259   0.94231   0.00000  Uiso   1.00
C1015  C     0.90323   0.22075   0.72435   0.00000  Uiso   1.00
C1016  C     0.73481   0.16589   0.82152   0.00000  Uiso   1.00
C1017  C     0.93185   0.16745   0.84515   0.00000  Uiso   1.00
C1018  C     0.67971   0.16203   0.81563   0.00000  Uiso   1.00
C1019  C     0.98696   0.17130   0.85103   0.00000  Uiso   1.00
C1020  C     0.78967   0.02107   0.81422   0.00000  Uiso   1.00
C1021  C     0.87699   0.31226   0.85245   0.00000  Uiso   1.00
C1022  C     0.78787   0.31101   0.81373   0.00000  Uiso   1.00
Cu1023 Cu    0.83333   0.16667   0.88022   0.00000  Uiso   1.00
Cu1024 Cu    0.83333   0.16666   0.78645   0.00000  Uiso   1.00
F1025  F     0.98918   0.14607   0.77442   0.00000  Uiso   1.00
F1026  F     0.67749   0.18726   0.89224   0.00000  Uiso   1.00
F1027  F     0.74754   0.04246   0.79710   0.00000  Uiso   1.00
F1028  F     0.91913   0.29087   0.86956   0.00000  Uiso   1.00
H1029  H     0.73746   0.25384   0.79642   0.00000  Uiso   1.00
H1030  H     0.92922   0.07949   0.87023   0.00000  Uiso   1.00
H1031  H     0.77581   0.08542   0.72490   0.00000  Uiso   1.00
H1032  H     0.89084   0.24792   0.94178   0.00000  Uiso   1.00
H1033  H     0.77770   0.08538   0.92714   0.00000  Uiso   1.00
H1034  H     0.88896   0.24796   0.73951   0.00000  Uiso   1.00
N1035  N     0.83335   0.16668   0.95069   0.00000  Uiso   1.00
N1036  N     0.83332   0.16666   0.71597   0.00000  Uiso   1.00
O1037  O     0.83333   0.10655   0.87291   0.00000  Uiso   1.00
O1038  O     0.96449   0.02834   0.89120   0.00000  Uiso   1.00
O1039  O     0.71681   0.12077   0.70316   0.00000  Uiso   1.00
O1040  O     0.94984   0.21257   0.96349   0.00000  Uiso   1.00
O1041  O     0.71714   0.11753   0.93762   0.00000  Uiso   1.00
O1042  O     0.94952   0.21580   0.72906   0.00000  Uiso   1.00
O1043  O     0.83334   0.22678   0.79375   0.00000  Uiso   1.00
O1044  O     0.83333   0.10654   0.79372   0.00000  Uiso   1.00
O1045  O     0.83334   0.22679   0.87294   0.00000  Uiso   1.00
O1046  O     0.75828   0.16667   0.86379   0.00000  Uiso   1.00
O1047  O     0.90839   0.16666   0.80288   0.00000  Uiso   1.00
O1048  O     0.75828   0.16666   0.78460   0.00000  Uiso   1.00
O1049  O     0.90839   0.16667   0.88207   0.00000  Uiso   1.00
O1050  O     0.70217   0.30500   0.77549   0.00000  Uiso   1.00
C1051  C     0.16709   0.42095   0.83340   0.00000  Uiso   1.00
C1052  C     0.21213   0.35565   0.85293   0.00000  Uiso   1.00
C1053  C     0.16550   0.62371   0.83312   0.00000  Uiso   1.00
C1054  C     0.16783   0.37629   0.83355   0.00000  Uiso   1.00
C1055  C     0.13234   0.47515   0.68730   0.00000  Uiso   1.00
C1056  C     0.20099   0.52486   0.97936   0.00000  Uiso   1.00
C1057  C     0.13245   0.47501   0.97116   0.00000  Uiso   1.00
C1058  C     0.20089   0.52499   0.69551   0.00000  Uiso   1.00
C1059  C     0.07319   0.62073   0.79424   0.00000  Uiso   1.00
C1060  C     0.26014   0.37927   0.87242   0.00000  Uiso   1.00
C1061  C     0.09590   0.44693   0.70765   0.00000  Uiso   1.00
C1062  C     0.16624   0.57904   0.83327   0.00000  Uiso   1.00
C1063  C     0.23743   0.55308   0.95901   0.00000  Uiso   1.00
C1064  C     0.09676   0.44592   0.94231   0.00000  Uiso   1.00
C1065  C     0.23657   0.55408   0.72435   0.00000  Uiso   1.00
C1066  C     0.06815   0.49922   0.82152   0.00000  Uiso   1.00
C1067  C     0.26519   0.50078   0.84515   0.00000  Uiso   1.00
C1068  C     0.01304   0.49536   0.81563   0.00000  Uiso   1.00
C1069  C     0.32029   0.50464   0.85103   0.00000  Uiso   1.00
C1070  C     0.12301   0.35440   0.81422   0.00000  Uiso   1.00
C1071  C     0.21032   0.64560   0.85245   0.00000  Uiso   1.00
C1072  C     0.12120   0.64435   0.81373   0.00000  Uiso   1.00
Cu1073 Cu    0.16667   0.50001   0.88022   0.00000  Uiso   1.00
Cu1074 Cu    0.16667   0.49999   0.78645   0.00000  Uiso   1.00
F1075  F     0.32251   0.47941   0.77442   0.00000  Uiso   1.00
F1076  F     0.01082   0.52059   0.89224   0.00000  Uiso   1.00
F1077  F     0.08087   0.37580   0.79710   0.00000  Uiso   1.00
F1078  F     0.25246   0.62420   0.86956   0.00000  Uiso   1.00
H1079  H     0.07079   0.58718   0.79642   0.00000  Uiso   1.00
H1080  H     0.26255   0.41282   0.87023   0.00000  Uiso   1.00
H1081  H     0.10914   0.41876   0.72490   0.00000  Uiso   1.00
H1082  H     0.22417   0.58126   0.94178   0.00000  Uiso   1.00
H1083  H     0.11103   0.41872   0.92714   0.00000  Uiso   1.00
H1084  H     0.22229   0.58129   0.73951   0.00000  Uiso   1.00
N1085  N     0.16668   0.50001   0.95069   0.00000  Uiso   1.00
N1086  N     0.16665   0.49999   0.71597   0.00000  Uiso   1.00
O1087  O     0.16666   0.43989   0.87291   0.00000  Uiso   1.00
O1088  O     0.29782   0.36167   0.89120   0.00000  Uiso   1.00
O1089  O     0.05014   0.45411   0.70316   0.00000  Uiso   1.00
O1090  O     0.28318   0.54590   0.96349   0.00000  Uiso   1.00
O1091  O     0.05048   0.45087   0.93762   0.00000  Uiso   1.00
O1092  O     0.28285   0.54913   0.72906   0.00000  Uiso   1.00
O1093  O     0.16667   0.56011   0.79375   0.00000  Uiso   1.00
O1094  O     0.16666   0.43988   0.79372   0.00000  Uiso   1.00
O1095  O     0.16667   0.56012   0.87294   0.00000  Uiso   1.00
O1096  O     0.09161   0.50000   0.86379   0.00000  Uiso   1.00
O1097  O     0.24172   0.50000   0.80288   0.00000  Uiso   1.00
O1098  O     0.09161   0.49999   0.78460   0.00000  Uiso   1.00
O1099  O     0.24172   0.50001   0.88207   0.00000  Uiso   1.00
O1100  O     0.03550   0.63833   0.77549   0.00000  Uiso   1.00
C1101  C     0.50042   0.42095   0.83340   0.00000  Uiso   1.00
C1102  C     0.54546   0.35565   0.85293   0.00000  Uiso   1.00
C1103  C     0.49884   0.62371   0.83312   0.00000  Uiso   1.00
C1104  C     0.50116   0.37629   0.83355   0.00000  Uiso   1.00
C1105  C     0.46567   0.47515   0.68730   0.00000  Uiso   1.00
C1106  C     0.53432   0.52486   0.97936   0.00000  Uiso   1.00
C1107  C     0.46578   0.47501   0.97116   0.00000  Uiso   1.00
C1108  C     0.53422   0.52499   0.69551   0.00000  Uiso   1.00
C1109  C     0.40653   0.62073   0.79424   0.00000  Uiso   1.00
C1110  C     0.59347   0.37927   0.87242   0.00000  Uiso   1.00
C1111  C     0.42923   0.44693   0.70765   0.00000  Uiso   1.00
C1112  C     0.49958   0.57904   0.83327   0.00000  Uiso   1.00
C1113  C     0.57076   0.55308   0.95901   0.00000  Uiso   1.00
C1114  C     0.43009   0.44592   0.94231   0.00000  Uiso   1.00
C1115  C     0.56990   0.55408   0.72435   0.00000  Uiso   1.00
C1116  C     0.40148   0.49922   0.82152   0.00000  Uiso   1.00
C1117  C     0.59852   0.50078   0.84515   0.00000  Uiso   1.00
C1118  C     0.34638   0.49536   0.81563   0.00000  Uiso   1.00
C1119  C     0.65362   0.50464   0.85103   0.00000  Uiso   1.00
C1120  C     0.45634   0.35440   0.81422   0.00000  Uiso   1.00
C1121  C     0.54366   0.64560   0.85245   0.00000  Uiso   1.00
C1122  C     0.45453   0.64435   0.81373   0.00000  Uiso   1.00
Cu1123 Cu    0.50000   0.50001   0.88022   0.00000  Uiso   1.00
Cu1124 Cu    0.50000   0.49999   0.78645   0.00000  Uiso   1.00
F1125  F     0.65584   0.47941   0.77442   0.00000  Uiso   1.00
F1126  F     0.34416   0.52059   0.89224   0.00000  Uiso   1.00
F1127  F     0.41420   0.37580   0.79710   0.00000  Uiso   1.00
F1128  F     0.58579   0.62420   0.86956   0.00000  Uiso   1.00
H1129  H     0.40412   0.58718   0.79642   0.00000  Uiso   1.00
H1130  H     0.59588   0.41282   0.87023   0.00000  Uiso   1.00
H1131  H     0.44248   0.41876   0.72490   0.00000  Uiso   1.00
H1132  H     0.55750   0.58126   0.94178   0.00000  Uiso   1.00
H1133  H     0.44437   0.41872   0.92714   0.00000  Uiso   1.00
H1134  H     0.55562   0.58129   0.73951   0.00000  Uiso   1.00
N1135  N     0.50001   0.50001   0.95069   0.00000  Uiso   1.00
N1136  N     0.49999   0.49999   0.71597   0.00000  Uiso   1.00
O1137  O     0.50000   0.43989   0.87291   0.00000  Uiso   1.00
O1138  O     0.63115   0.36167   0.89120   0.00000  Uiso   1.00
O1139  O     0.38348   0.45411   0.70316   0.00000  Uiso   1.00
O1140  O     0.61651   0.54590   0.96349   0.00000  Uiso   1.00
O1141  O     0.38381   0.45087   0.93762   0.00000  Uiso   1.00
O1142  O     0.61619   0.54913   0.72906   0.00000  Uiso   1.00
O1143  O     0.50000   0.56011   0.79375   0.00000  Uiso   1.00
O1144  O     0.50000   0.43988   0.79372   0.00000  Uiso   1.00
O1145  O     0.50000   0.56012   0.87294   0.00000  Uiso   1.00
O1146  O     0.42495   0.50000   0.86379   0.00000  Uiso   1.00
O1147  O     0.57505   0.50000   0.80288   0.00000  Uiso   1.00
O1148  O     0.42494   0.49999   0.78460   0.00000  Uiso   1.00
O1149  O     0.57506   0.50001   0.88207   0.00000  Uiso   1.00
O1150  O     0.36884   0.63833   0.77549   0.00000  Uiso   1.00
C1151  C     0.83376   0.42095   0.83340   0.00000  Uiso   1.00
C1152  C     0.87880   0.35565   0.85293   0.00000  Uiso   1.00
C1153  C     0.83217   0.62371   0.83312   0.00000  Uiso   1.00
C1154  C     0.83449   0.37629   0.83355   0.00000  Uiso   1.00
C1155  C     0.79901   0.47515   0.68730   0.00000  Uiso   1.00
C1156  C     0.86766   0.52486   0.97936   0.00000  Uiso   1.00
C1157  C     0.79911   0.47501   0.97116   0.00000  Uiso   1.00
C1158  C     0.86755   0.52499   0.69551   0.00000  Uiso   1.00
C1159  C     0.73986   0.62073   0.79424   0.00000  Uiso   1.00
C1160  C     0.92680   0.37927   0.87242   0.00000  Uiso   1.00
C1161  C     0.76256   0.44693   0.70765   0.00000  Uiso   1.00
C1162  C     0.83291   0.57904   0.83327   0.00000  Uiso   1.00
C1163  C     0.90409   0.55308   0.95901   0.00000  Uiso   1.00
C1164  C     0.76343   0.44592   0.94231   0.00000  Uiso   1.00
C1165  C     0.90323   0.55408   0.72435   0.00000  Uiso   1.00
C1166  C     0.73481   0.49922   0.82152   0.00000  Uiso   1.00
C1167  C     0.93185   0.50078   0.84515   0.00000  Uiso   1.00
C1168  C     0.67971   0.49536   0.81563   0.00000  Uiso   1.00
C1169  C     0.98696   0.50464   0.85103   0.00000  Uiso   1.00
C1170  C     0.78967   0.35440   0.81422   0.00000  Uiso   1.00
C1171  C     0.87699   0.64560   0.85245   0.00000  Uiso   1.00
C1172  C     0.78787   0.64435   0.81373   0.00000  Uiso   1.00
Cu1173 Cu    0.83333   0.50001   0.88022   0.00000  Uiso   1.00
Cu1174 Cu    0.83333   0.49999   0.78645   0.00000  Uiso   1.00
F1175  F     0.98918   0.47941   0.77442   0.00000  Uiso   1.00
F1176  F     0.67749   0.52059   0.89224   0.00000  Uiso   1.00
F1177  F     0.74754   0.37580   0.79710   0.00000  Uiso   1.00
F1178  F     0.91913   0.62420   0.86956   0.00000  Uiso   1.00
H1179  H     0.73746   0.58718   0.79642   0.00000  Uiso   1.00
H1180  H     0.92922   0.41282   0.87023   0.00000  Uiso   1.00
H1181  H     0.77581   0.41876   0.72490   0.00000  Uiso   1.00
H1182  H     0.89084   0.58126   0.94178   0.00000  Uiso   1.00
H1183  H     0.77770   0.41872   0.92714   0.00000  Uiso   1.00
H1184  H     0.88896   0.58129   0.73951   0.00000  Uiso   1.00
N1185  N     0.83335   0.50001   0.95069   0.00000  Uiso   1.00
N1186  N     0.83332   0.49999   0.71597   0.00000  Uiso   1.00
O1187  O     0.83333   0.43989   0.87291   0.00000  Uiso   1.00
O1188  O     0.96449   0.36167   0.89120   0.00000  Uiso   1.00
O1189  O     0.71681   0.45411   0.70316   0.00000  Uiso   1.00
O1190  O     0.94984   0.54590   0.96349   0.00000  Uiso   1.00
O1191  O     0.71714   0.45087   0.93762   0.00000  Uiso   1.00
O1192  O     0.94952   0.54913   0.72906   0.00000  Uiso   1.00
O1193  O     0.83334   0.56011   0.79375   0.00000  Uiso   1.00
O1194  O     0.83333   0.43988   0.79372   0.00000  Uiso   1.00
O1195  O     0.83334   0.56012   0.87294   0.00000  Uiso   1.00
O1196  O     0.75828   0.50000   0.86379   0.00000  Uiso   1.00
O1197  O     0.90839   0.50000   0.80288   0.00000  Uiso   1.00
O1198  O     0.75828   0.49999   0.78460   0.00000  Uiso   1.00
O1199  O     0.90839   0.50001   0.88207   0.00000  Uiso   1.00
O1200  O     0.70217   0.63833   0.77549   0.00000  Uiso   1.00
C1201  C     0.16709   0.75429   0.83340   0.00000  Uiso   1.00
C1202  C     0.21213   0.68899   0.85293   0.00000  Uiso   1.00
C1203  C     0.16550   0.95705   0.83312   0.00000  Uiso   1.00
C1204  C     0.16783   0.70962   0.83355   0.00000  Uiso   1.00
C1205  C     0.13234   0.80848   0.68730   0.00000  Uiso   1.00
C1206  C     0.20099   0.85819   0.97936   0.00000  Uiso   1.00
C1207  C     0.13245   0.80834   0.97116   0.00000  Uiso   1.00
C1208  C     0.20089   0.85832   0.69551   0.00000  Uiso   1.00
C1209  C     0.07319   0.95406   0.79424   0.00000  Uiso   1.00
C1210  C     0.26014   0.71261   0.87242   0.00000  Uiso   1.00
C1211  C     0.09590   0.78027   0.70765   0.00000  Uiso   1.00
C1212  C     0.16624   0.91238   0.83327   0.00000  Uiso   1.00
C1213  C     0.23743   0.88641   0.95901   0.00000  Uiso   1.00
C1214  C     0.09676   0.77925   0.94231   0.00000  Uiso   1.00
C1215  C     0.23657   0.88742   0.72435   0.00000  Uiso   1.00
C1216  C     0.06815   0.83255   0.82152   0.00000  Uiso   1.00
C1217  C     0.26519   0.83411   0.84515   0.00000  Uiso   1.00
C1218  C     0.01304   0.82870   0.81563   0.00000  Uiso   1.00
C1219  C     0.32029   0.83797   0.85103   0.00000  Uiso   1.00
C1220  C     0.12301   0.68774   0.81422   0.00000  Uiso   1.00
C1221  C     0.21032   0.97893   0.85245   0.00000  Uiso   1.00
C1222  C     0.12120   0.97768   0.81373   0.00000  Uiso   1.00
Cu1223 Cu    0.16667   0.83334   0.88022   0.00000  Uiso   1.00
Cu1224 Cu    0.16667   0.83333   0.78645   0.00000  Uiso   1.00
F1225  F     0.32251   0.81274   0.77442   0.00000  Uiso   1.00
F1226  F     0.01082   0.85393   0.89224   0.00000  Uiso   1.00
F1227  F     0.08087   0.70913   0.79710   0.00000  Uiso   1.00
F1228  F     0.25246   0.95753   0.86956   0.00000  Uiso   1.00
H1229  H     0.07079   0.92051   0.79642   0.00000  Uiso   1.00
H1230  H     0.26255   0.74616   0.87023   0.00000  Uiso   1.00
H1231  H     0.10914   0.75209   0.72490   0.00000  Uiso   1.00
H1232  H     0.22417   0.91459   0.94178   0.00000  Uiso   1.00
H1233  H     0.11103   0.75205   0.92714   0.00000  Uiso   1.00
H1234  H     0.22229   0.91463   0.73951   0.00000  Uiso   1.00
N1235  N     0.16668   0.83334   0.95069   0.00000  Uiso   1.00
N1236  N     0.16665   0.83332   0.71597   0.00000  Uiso   1.00
O1237  O     0.16666   0.77322   0.87291   0.00000  Uiso   1.00
O1238  O     0.29782   0.69500   0.89120   0.00000  Uiso   1.00
O1239  O     0.05014   0.78744   0.70316   0.00000  Uiso   1.00
O1240  O     0.28318   0.87923   0.96349   0.00000  Uiso   1.00
O1241  O     0.05048   0.78420   0.93762   0.00000  Uiso   1.00
O1242  O     0.28285   0.88246   0.72906   0.00000  Uiso   1.00
O1243  O     0.16667   0.89345   0.79375   0.00000  Uiso   1.00
O1244  O     0.16666   0.77321   0.79372   0.00000  Uiso   1.00
O1245  O     0.16667   0.89346   0.87294   0.00000  Uiso   1.00
O1246  O     0.09161   0.83334   0.86379   0.00000  Uiso   1.00
O1247  O     0.24172   0.83333   0.80288   0.00000  Uiso   1.00
O1248  O     0.09161   0.83333   0.78460   0.00000  Uiso   1.00
O1249  O     0.24172   0.83334   0.88207   0.00000  Uiso   1.00
O1250  O     0.03550   0.97166   0.77549   0.00000  Uiso   1.00
C1251  C     0.50042   0.75429   0.83340   0.00000  Uiso   1.00
C1252  C     0.54546   0.68899   0.85293   0.00000  Uiso   1.00
C1253  C     0.49884   0.95705   0.83312   0.00000  Uiso   1.00
C1254  C     0.50116   0.70962   0.83355   0.00000  Uiso   1.00
C1255  C     0.46567   0.80848   0.68730   0.00000  Uiso   1.00
C1256  C     0.53432   0.85819   0.97936   0.00000  Uiso   1.00
C1257  C     0.46578   0.80834   0.97116   0.00000  Uiso   1.00
C1258  C     0.53422   0.85832   0.69551   0.00000  Uiso   1.00
C1259  C     0.40653   0.95406   0.79424   0.00000  Uiso   1.00
C1260  C     0.59347   0.71261   0.87242   0.00000  Uiso   1.00
C1261  C     0.42923   0.78027   0.70765   0.00000  Uiso   1.00
C1262  C     0.49958   0.91238   0.83327   0.00000  Uiso   1.00
C1263  C     0.57076   0.88641   0.95901   0.00000  Uiso   1.00
C1264  C     0.43009   0.77925   0.94231   0.00000  Uiso   1.00
C1265  C     0.56990   0.88742   0.72435   0.00000  Uiso   1.00
C1266  C     0.40148   0.83255   0.82152   0.00000  Uiso   1.00
C1267  C     0.59852   0.83411   0.84515   0.00000  Uiso   1.00
C1268  C     0.34638   0.82870   0.81563   0.00000  Uiso   1.00
C1269  C     0.65362   0.83797   0.85103   0.00000  Uiso   1.00
C1270  C     0.45634   0.68774   0.81422   0.00000  Uiso   1.00
C1271  C     0.54366   0.97893   0.85245   0.00000  Uiso   1.00
C1272  C     0.45453   0.97768   0.81373   0.00000  Uiso   1.00
Cu1273 Cu    0.50000   0.83334   0.88022   0.00000  Uiso   1.00
Cu1274 Cu    0.50000   0.83333   0.78645   0.00000  Uiso   1.00
F1275  F     0.65584   0.81274   0.77442   0.00000  Uiso   1.00
F1276  F     0.34416   0.85393   0.89224   0.00000  Uiso   1.00
F1277  F     0.41420   0.70913   0.79710   0.00000  Uiso   1.00
F1278  F     0.58579   0.95753   0.86956   0.00000  Uiso   1.00
H1279  H     0.40412   0.92051   0.79642   0.00000  Uiso   1.00
H1280  H     0.59588   0.74616   0.87023   0.00000  Uiso   1.00
H1281  H     0.44248   0.75209   0.72490   0.00000  Uiso   1.00
H1282  H     0.55750   0.91459   0.94178   0.00000  Uiso   1.00
H1283  H     0.44437   0.75205   0.92714   0.00000  Uiso   1.00
H1284  H     0.55562   0.91463   0.73951   0.00000  Uiso   1.00
N1285  N     0.50001   0.83334   0.95069   0.00000  Uiso   1.00
N1286  N     0.49999   0.83332   0.71597   0.00000  Uiso   1.00
O1287  O     0.50000   0.77322   0.87291   0.00000  Uiso   1.00
O1288  O     0.63115   0.69500   0.89120   0.00000  Uiso   1.00
O1289  O     0.38348   0.78744   0.70316   0.00000  Uiso   1.00
O1290  O     0.61651   0.87923   0.96349   0.00000  Uiso   1.00
O1291  O     0.38381   0.78420   0.93762   0.00000  Uiso   1.00
O1292  O     0.61619   0.88246   0.72906   0.00000  Uiso   1.00
O1293  O     0.50000   0.89345   0.79375   0.00000  Uiso   1.00
O1294  O     0.50000   0.77321   0.79372   0.00000  Uiso   1.00
O1295  O     0.50000   0.89346   0.87294   0.00000  Uiso   1.00
O1296  O     0.42495   0.83334   0.86379   0.00000  Uiso   1.00
O1297  O     0.57505   0.83333   0.80288   0.00000  Uiso   1.00
O1298  O     0.42494   0.83333   0.78460   0.00000  Uiso   1.00
O1299  O     0.57506   0.83334   0.88207   0.00000  Uiso   1.00
O1300  O     0.36884   0.97166   0.77549   0.00000  Uiso   1.00
C1301  C     0.83376   0.75429   0.83340   0.00000  Uiso   1.00
C1302  C     0.87880   0.68899   0.85293   0.00000  Uiso   1.00
C1303  C     0.83217   0.95705   0.83312   0.00000  Uiso   1.00
C1304  C     0.83449   0.70962   0.83355   0.00000  Uiso   1.00
C1305  C     0.79901   0.80848   0.68730   0.00000  Uiso   1.00
C1306  C     0.86766   0.85819   0.97936   0.00000  Uiso   1.00
C1307  C     0.79911   0.80834   0.97116   0.00000  Uiso   1.00
C1308  C     0.86755   0.85832   0.69551   0.00000  Uiso   1.00
C1309  C     0.73986   0.95406   0.79424   0.00000  Uiso   1.00
C1310  C     0.92680   0.71261   0.87242   0.00000  Uiso   1.00
C1311  C     0.76256   0.78027   0.70765   0.00000  Uiso   1.00
C1312  C     0.83291   0.91238   0.83327   0.00000  Uiso   1.00
C1313  C     0.90409   0.88641   0.95901   0.00000  Uiso   1.00
C1314  C     0.76343   0.77925   0.94231   0.00000  Uiso   1.00
C1315  C     0.90323   0.88742   0.72435   0.00000  Uiso   1.00
C1316  C     0.73481   0.83255   0.82152   0.00000  Uiso   1.00
C1317  C     0.93185   0.83411   0.84515   0.00000  Uiso   1.00
C1318  C     0.67971   0.82870   0.81563   0.00000  Uiso   1.00
C1319  C     0.98696   0.83797   0.85103   0.00000  Uiso   1.00
C1320  C     0.78967   0.68774   0.81422   0.00000  Uiso   1.00
C1321  C     0.87699   0.97893   0.85245   0.00000  Uiso   1.00
C1322  C     0.78787   0.97768   0.81373   0.00000  Uiso   1.00
Cu1323 Cu    0.83333   0.83334   0.88022   0.00000  Uiso   1.00
Cu1324 Cu    0.83333   0.83333   0.78645   0.00000  Uiso   1.00
F1325  F     0.98918   0.81274   0.77442   0.00000  Uiso   1.00
F1326  F     0.67749   0.85393   0.89224   0.00000  Uiso   1.00
F1327  F     0.74754   0.70913   0.79710   0.00000  Uiso   1.00
F1328  F     0.91913   0.95753   0.86956   0.00000  Uiso   1.00
H1329  H     0.73746   0.92051   0.79642   0.00000  Uiso   1.00
H1330  H     0.92922   0.74616   0.87023   0.00000  Uiso   1.00
H1331  H     0.77581   0.75209   0.72490   0.00000  Uiso   1.00
H1332  H     0.89084   0.91459   0.94178   0.00000  Uiso   1.00
H1333  H     0.77770   0.75205   0.92714   0.00000  Uiso   1.00
H1334  H     0.88896   0.91463   0.73951   0.00000  Uiso   1.00
N1335  N     0.83335   0.83334   0.95069   0.00000  Uiso   1.00
N1336  N     0.83332   0.83332   0.71597   0.00000  Uiso   1.00
O1337  O     0.83333   0.77322   0.87291   0.00000  Uiso   1.00
O1338  O     0.96449   0.69500   0.89120   0.00000  Uiso   1.00
O1339  O     0.71681   0.78744   0.70316   0.00000  Uiso   1.00
O1340  O     0.94984   0.87923   0.96349   0.00000  Uiso   1.00
O1341  O     0.71714   0.78420   0.93762   0.00000  Uiso   1.00
O1342  O     0.94952   0.88246   0.72906   0.00000  Uiso   1.00
O1343  O     0.83334   0.89345   0.79375   0.00000  Uiso   1.00
O1344  O     0.83333   0.77321   0.79372   0.00000  Uiso   1.00
O1345  O     0.83334   0.89346   0.87294   0.00000  Uiso   1.00
O1346  O     0.75828   0.83334   0.86379   0.00000  Uiso   1.00
O1347  O     0.90839   0.83333   0.80288   0.00000  Uiso   1.00
O1348  O     0.75828   0.83333   0.78460   0.00000  Uiso   1.00
O1349  O     0.90839   0.83334   0.88207   0.00000  Uiso   1.00
O1350  O     0.70217   0.97166   0.77549   0.00000  Uiso   1.00
loop_
_geom_bond_atom_site_label_1
_geom_bond_atom_site_label_2
_geom_bond_distance
_geom_bond_site_symmetry_2
_ccdc_geom_bond_type
C1     O37     1.297   .     A
C1     O44     1.297   .     A
C1     C4      1.441   .     S
C2     C10     1.492   .     S
C2     C4      1.410   .     A
C2     C321    1.398   1_545 S
C3     C21     1.400   .     A
C3     C22     1.410   .     A
C3     C12     1.440   .     S
C4     C20     1.400   .     A
C5     C11     1.474   .     S
C5     N36     1.375   .     A
C5     C907    1.430   1_554 S
C6     C13     1.474   .     S
C6     N35     1.375   .     A
C6     C458    1.430   .     S
C7     N35     1.376   .     A
C7     C14     1.477   .     S
C7     C455    1.430   .     S
C8     C15     1.477   .     S
C8     N36     1.376   .     A
C8     C906    1.430   1_554 S
C9     H29     1.083   .     S
C9     C22     1.492   .     S
C9     O50     1.221   .     D
C10    H30     1.083   .     S
C10    O38     1.221   .     D
C11    H31     1.082   .     S
C11    O39     1.220   .     D
C12    O43     1.297   .     A
C12    O45     1.297   .     A
C13    H32     1.082   .     S
C13    O40     1.220   .     D
C14    H33     1.081   .     S
C14    O41     1.220   .     D
C15    H34     1.081   .     S
C15    O42     1.220   .     D
C16    O48     1.300   .     A
C16    O46     1.293   .     A
C16    C18     1.434   .     S
C17    C19     1.434   .     S
C17    O49     1.300   .     A
C17    O47     1.293   .     A
C18    C119    1.343   1_455 S
C18    F125    1.362   1_455 S
C19    C68     1.343   .     S
C19    F76     1.362   .     S
C20    F27     1.361   .     S
C20    C322    1.398   1_545 S
C21    F28     1.361   .     S
C21    C152    1.398   .     S
C22    C170    1.398   .     S
Cu23   Cu24    2.710   .     S
Cu23   O45     1.949   .     S
Cu23   O46     1.963   .     S
Cu23   N35     2.036   .     S
Cu23   O49     1.962   .     S
Cu23   O37     1.949   .     S
Cu24   N36     2.036   .     S
Cu24   O44     1.949   .     S
Cu24   O43     1.949   .     S
Cu24   O47     1.963   .     S
Cu24   O48     1.962   .     S
F25    C68     1.362   .     S
F26    C119    1.362   1_455 S
C51    O87     1.297   .     A
C51    O94     1.297   .     A
C51    C54     1.441   .     S
C52    C60     1.492   .     S
C52    C54     1.410   .     A
C52    C371    1.398   1_545 S
C53    C71     1.400   .     A
C53    C72     1.410   .     A
C53    C62     1.440   .     S
C54    C70     1.400   .     A
C55    C61     1.474   .     S
C55    N86     1.375   .     A
C55    C957    1.430   1_554 S
C56    C63     1.474   .     S
C56    N85     1.375   .     A
C56    C508    1.430   .     S
C57    N85     1.376   .     A
C57    C64     1.477   .     S
C57    C505    1.430   .     S
C58    C65     1.477   .     S
C58    N86     1.376   .     A
C58    C956    1.430   1_554 S
C59    H79     1.083   .     S
C59    C72     1.492   .     S
C59    O100    1.221   .     D
C60    H80     1.083   .     S
C60    O88     1.221   .     D
C61    H81     1.082   .     S
C61    O89     1.220   .     D
C62    O93     1.297   .     A
C62    O95     1.297   .     A
C63    H82     1.082   .     S
C63    O90     1.220   .     D
C64    H83     1.081   .     S
C64    O91     1.220   .     D
C65    H84     1.081   .     S
C65    O92     1.220   .     D
C66    O98     1.300   .     A
C66    O96     1.293   .     A
C66    C68     1.434   .     S
C67    C69     1.434   .     S
C67    O99     1.300   .     A
C67    O97     1.293   .     A
C69    C118    1.343   .     S
C69    F126    1.362   .     S
C70    F77     1.361   .     S
C70    C372    1.398   1_545 S
C71    F78     1.361   .     S
C71    C202    1.398   .     S
C72    C220    1.398   .     S
Cu73   Cu74    2.710   .     S
Cu73   O95     1.949   .     S
Cu73   O96     1.963   .     S
Cu73   N85     2.036   .     S
Cu73   O99     1.962   .     S
Cu73   O87     1.949   .     S
Cu74   N86     2.036   .     S
Cu74   O94     1.949   .     S
Cu74   O93     1.949   .     S
Cu74   O97     1.963   .     S
Cu74   O98     1.962   .     S
F75    C118    1.362   .     S
C101   O137    1.297   .     A
C101   O144    1.297   .     A
C101   C104    1.441   .     S
C102   C110    1.492   .     S
C102   C104    1.410   .     A
C102   C421    1.398   1_545 S
C103   C121    1.400   .     A
C103   C122    1.410   .     A
C103   C112    1.440   .     S
C104   C120    1.400   .     A
C105   C111    1.474   .     S
C105   N136    1.375   .     A
C105   C1007   1.430   1_554 S
C106   C113    1.474   .     S
C106   N135    1.375   .     A
C106   C558    1.430   .     S
C107   N135    1.376   .     A
C107   C114    1.477   .     S
C107   C555    1.430   .     S
C108   C115    1.477   .     S
C108   N136    1.376   .     A
C108   C1006   1.430   1_554 S
C109   H129    1.083   .     S
C109   C122    1.492   .     S
C109   O150    1.221   .     D
C110   H130    1.083   .     S
C110   O138    1.221   .     D
C111   H131    1.082   .     S
C111   O139    1.220   .     D
C112   O143    1.297   .     A
C112   O145    1.297   .     A
C113   H132    1.082   .     S
C113   O140    1.220   .     D
C114   H133    1.081   .     S
C114   O141    1.220   .     D
C115   H134    1.081   .     S
C115   O142    1.220   .     D
C116   O148    1.300   .     A
C116   O146    1.293   .     A
C116   C118    1.434   .     S
C117   C119    1.434   .     S
C117   O149    1.300   .     A
C117   O147    1.293   .     A
C119   C18     1.343   1_655 S
C119   F26     1.362   1_655 S
C120   F127    1.361   .     S
C120   C422    1.398   1_545 S
C121   F128    1.361   .     S
C121   C252    1.398   .     S
C122   C270    1.398   .     S
Cu123  Cu124   2.710   .     S
Cu123  O145    1.949   .     S
Cu123  O146    1.963   .     S
Cu123  N135    2.036   .     S
Cu123  O149    1.962   .     S
Cu123  O137    1.949   .     S
Cu124  N136    2.036   .     S
Cu124  O144    1.949   .     S
Cu124  O143    1.949   .     S
Cu124  O147    1.963   .     S
Cu124  O148    1.962   .     S
F125   C18     1.362   1_655 S
C151   O187    1.297   .     A
C151   O194    1.297   .     A
C151   C154    1.441   .     S
C152   C160    1.492   .     S
C152   C154    1.410   .     A
C153   C171    1.400   .     A
C153   C172    1.410   .     A
C153   C162    1.440   .     S
C154   C170    1.400   .     A
C155   C161    1.474   .     S
C155   N186    1.375   .     A
C155   C1057   1.430   1_554 S
C156   C163    1.474   .     S
C156   N185    1.375   .     A
C156   C608    1.430   .     S
C157   N185    1.376   .     A
C157   C164    1.477   .     S
C157   C605    1.430   .     S
C158   C165    1.477   .     S
C158   N186    1.376   .     A
C158   C1056   1.430   1_554 S
C159   H179    1.083   .     S
C159   C172    1.492   .     S
C159   O200    1.221   .     D
C160   H180    1.083   .     S
C160   O188    1.221   .     D
C161   H181    1.082   .     S
C161   O189    1.220   .     D
C162   O193    1.297   .     A
C162   O195    1.297   .     A
C163   H182    1.082   .     S
C163   O190    1.220   .     D
C164   H183    1.081   .     S
C164   O191    1.220   .     D
C165   H184    1.081   .     S
C165   O192    1.220   .     D
C166   O198    1.300   .     A
C166   O196    1.293   .     A
C166   C168    1.434   .     S
C167   C169    1.434   .     S
C167   O199    1.300   .     A
C167   O197    1.293   .     A
C168   C269    1.343   1_455 S
C168   F275    1.362   1_455 S
C169   C218    1.343   .     S
C169   F226    1.362   .     S
C170   F177    1.361   .     S
C171   F178    1.361   .     S
C171   C302    1.398   .     S
C172   C320    1.398   .     S
Cu173  Cu174   2.710   .     S
Cu173  O195    1.949   .     S
Cu173  O196    1.963   .     S
Cu173  N185    2.036   .     S
Cu173  O199    1.962   .     S
Cu173  O187    1.949   .     S
Cu174  N186    2.036   .     S
Cu174  O194    1.949   .     S
Cu174  O193    1.949   .     S
Cu174  O197    1.963   .     S
Cu174  O198    1.962   .     S
F175   C218    1.362   .     S
F176   C269    1.362   1_455 S
C201   O237    1.297   .     A
C201   O244    1.297   .     A
C201   C204    1.441   .     S
C202   C210    1.492   .     S
C202   C204    1.410   .     A
C203   C221    1.400   .     A
C203   C222    1.410   .     A
C203   C212    1.440   .     S
C204   C220    1.400   .     A
C205   C211    1.474   .     S
C205   N236    1.375   .     A
C205   C1107   1.430   1_554 S
C206   C213    1.474   .     S
C206   N235    1.375   .     A
C206   C658    1.430   .     S
C207   N235    1.376   .     A
C207   C214    1.477   .     S
C207   C655    1.430   .     S
C208   C215    1.477   .     S
C208   N236    1.376   .     A
C208   C1106   1.430   1_554 S
C209   H229    1.083   .     S
C209   C222    1.492   .     S
C209   O250    1.221   .     D
C210   H230    1.083   .     S
C210   O238    1.221   .     D
C211   H231    1.082   .     S
C211   O239    1.220   .     D
C212   O243    1.297   .     A
C212   O245    1.297   .     A
C213   H232    1.082   .     S
C213   O240    1.220   .     D
C214   H233    1.081   .     S
C214   O241    1.220   .     D
C215   H234    1.081   .     S
C215   O242    1.220   .     D
C216   O248    1.300   .     A
C216   O246    1.293   .     A
C216   C218    1.434   .     S
C217   C219    1.434   .     S
C217   O249    1.300   .     A
C217   O247    1.293   .     A
C219   C268    1.343   .     S
C219   F276    1.362   .     S
C220   F227    1.361   .     S
C221   F228    1.361   .     S
C221   C352    1.398   .     S
C222   C370    1.398   .     S
Cu223  Cu224   2.710   .     S
Cu223  O245    1.949   .     S
Cu223  O246    1.963   .     S
Cu223  N235    2.036   .     S
Cu223  O249    1.962   .     S
Cu223  O237    1.949   .     S
Cu224  N236    2.036   .     S
Cu224  O244    1.949   .     S
Cu224  O243    1.949   .     S
Cu224  O247    1.963   .     S
Cu224  O248    1.962   .     S
F225   C268    1.362   .     S
C251   O287    1.297   .     A
C251   O294    1.297   .     A
C251   C254    1.441   .     S
C252   C260    1.492   .     S
C252   C254    1.410   .     A
C253   C271    1.400   .     A
C253   C272    1.410   .     A
C253   C262    1.440   .     S
C254   C270    1.400   .     A
C255   C261    1.474   .     S
C255   N286    1.375   .     A
C255   C1157   1.430   1_554 S
C256   C263    1.474   .     S
C256   N285    1.375   .     A
C256   C708    1.430   .     S
C257   N285    1.376   .     A
C257   C264    1.477   .     S
C257   C705    1.430   .     S
C258   C265    1.477   .     S
C258   N286    1.376   .     A
C258   C1156   1.430   1_554 S
C259   H279    1.083   .     S
C259   C272    1.492   .     S
C259   O300    1.221   .     D
C260   H280    1.083   .     S
C260   O288    1.221   .     D
C261   H281    1.082   .     S
C261   O289    1.220   .     D
C262   O293    1.297   .     A
C262   O295    1.297   .     A
C263   H282    1.082   .     S
C263   O290    1.220   .     D
C264   H283    1.081   .     S
C264   O291    1.220   .     D
C265   H284    1.081   .     S
C265   O292    1.220   .     D
C266   O298    1.300   .     A
C266   O296    1.293   .     A
C266   C268    1.434   .     S
C267   C269    1.434   .     S
C267   O299    1.300   .     A
C267   O297    1.293   .     A
C269   C168    1.343   1_655 S
C269   F176    1.362   1_655 S
C270   F277    1.361   .     S
C271   F278    1.361   .     S
C271   C402    1.398   .     S
C272   C420    1.398   .     S
Cu273  Cu274   2.710   .     S
Cu273  O295    1.949   .     S
Cu273  O296    1.963   .     S
Cu273  N285    2.036   .     S
Cu273  O299    1.962   .     S
Cu273  O287    1.949   .     S
Cu274  N286    2.036   .     S
Cu274  O294    1.949   .     S
Cu274  O293    1.949   .     S
Cu274  O297    1.963   .     S
Cu274  O298    1.962   .     S
F275   C168    1.362   1_655 S
C301   O337    1.297   .     A
C301   O344    1.297   .     A
C301   C304    1.441   .     S
C302   C310    1.492   .     S
C302   C304    1.410   .     A
C303   C321    1.400   .     A
C303   C322    1.410   .     A
C303   C312    1.440   .     S
C304   C320    1.400   .     A
C305   C311    1.474   .     S
C305   N336    1.375   .     A
C305   C1207   1.430   1_554 S
C306   C313    1.474   .     S
C306   N335    1.375   .     A
C306   C758    1.430   .     S
C307   N335    1.376   .     A
C307   C314    1.477   .     S
C307   C755    1.430   .     S
C308   C315    1.477   .     S
C308   N336    1.376   .     A
C308   C1206   1.430   1_554 S
C309   H329    1.083   .     S
C309   C322    1.492   .     S
C309   O350    1.221   .     D
C310   H330    1.083   .     S
C310   O338    1.221   .     D
C311   H331    1.082   .     S
C311   O339    1.220   .     D
C312   O343    1.297   .     A
C312   O345    1.297   .     A
C313   H332    1.082   .     S
C313   O340    1.220   .     D
C314   H333    1.081   .     S
C314   O341    1.220   .     D
C315   H334    1.081   .     S
C315   O342    1.220   .     D
C316   O348    1.300   .     A
C316   O346    1.293   .     A
C316   C318    1.434   .     S
C317   C319    1.434   .     S
C317   O349    1.300   .     A
C317   O347    1.293   .     A
C318   C419    1.343   1_455 S
C318   F425    1.362   1_455 S
C319   C368    1.343   .     S
C319   F376    1.362   .     S
C320   F327    1.361   .     S
C321   F328    1.361   .     S
C321   C2      1.398   1_565 S
C322   C20     1.398   1_565 S
Cu323  Cu324   2.710   .     S
Cu323  O345    1.949   .     S
Cu323  O346    1.963   .     S
Cu323  N335    2.036   .     S
Cu323  O349    1.962   .     S
Cu323  O337    1.949   .     S
Cu324  N336    2.036   .     S
Cu324  O344    1.949   .     S
Cu324  O343    1.949   .     S
Cu324  O347    1.963   .     S
Cu324  O348    1.962   .     S
F325   C368    1.362   .     S
F326   C419    1.362   1_455 S
C351   O387    1.297   .     A
C351   O394    1.297   .     A
C351   C354    1.441   .     S
C352   C360    1.492   .     S
C352   C354    1.410   .     A
C353   C371    1.400   .     A
C353   C372    1.410   .     A
C353   C362    1.440   .     S
C354   C370    1.400   .     A
C355   C361    1.474   .     S
C355   N386    1.375   .     A
C355   C1257   1.430   1_554 S
C356   C363    1.474   .     S
C356   N385    1.375   .     A
C356   C808    1.430   .     S
C357   N385    1.376   .     A
C357   C364    1.477   .     S
C357   C805    1.430   .     S
C358   C365    1.477   .     S
C358   N386    1.376   .     A
C358   C1256   1.430   1_554 S
C359   H379    1.083   .     S
C359   C372    1.492   .     S
C359   O400    1.221   .     D
C360   H380    1.083   .     S
C360   O388    1.221   .     D
C361   H381    1.082   .     S
C361   O389    1.220   .     D
C362   O393    1.297   .     A
C362   O395    1.297   .     A
C363   H382    1.082   .     S
C363   O390    1.220   .     D
C364   H383    1.081   .     S
C364   O391    1.220   .     D
C365   H384    1.081   .     S
C365   O392    1.220   .     D
C366   O398    1.300   .     A
C366   O396    1.293   .     A
C366   C368    1.434   .     S
C367   C369    1.434   .     S
C367   O399    1.300   .     A
C367   O397    1.293   .     A
C369   C418    1.343   .     S
C369   F426    1.362   .     S
C370   F377    1.361   .     S
C371   F378    1.361   .     S
C371   C52     1.398   1_565 S
C372   C70     1.398   1_565 S
Cu373  Cu374   2.710   .     S
Cu373  O395    1.949   .     S
Cu373  O396    1.963   .     S
Cu373  N385    2.036   .     S
Cu373  O399    1.962   .     S
Cu373  O387    1.949   .     S
Cu374  N386    2.036   .     S
Cu374  O394    1.949   .     S
Cu374  O393    1.949   .     S
Cu374  O397    1.963   .     S
Cu374  O398    1.962   .     S
F375   C418    1.362   .     S
C401   O437    1.297   .     A
C401   O444    1.297   .     A
C401   C404    1.441   .     S
C402   C410    1.492   .     S
C402   C404    1.410   .     A
C403   C421    1.400   .     A
C403   C422    1.410   .     A
C403   C412    1.440   .     S
C404   C420    1.400   .     A
C405   C411    1.474   .     S
C405   N436    1.375   .     A
C405   C1307   1.430   1_554 S
C406   C413    1.474   .     S
C406   N435    1.375   .     A
C406   C858    1.430   .     S
C407   N435    1.376   .     A
C407   C414    1.477   .     S
C407   C855    1.430   .     S
C408   C415    1.477   .     S
C408   N436    1.376   .     A
C408   C1306   1.430   1_554 S
C409   H429    1.083   .     S
C409   C422    1.492   .     S
C409   O450    1.221   .     D
C410   H430    1.083   .     S
C410   O438    1.221   .     D
C411   H431    1.082   .     S
C411   O439    1.220   .     D
C412   O443    1.297   .     A
C412   O445    1.297   .     A
C413   H432    1.082   .     S
C413   O440    1.220   .     D
C414   H433    1.081   .     S
C414   O441    1.220   .     D
C415   H434    1.081   .     S
C415   O442    1.220   .     D
C416   O448    1.300   .     A
C416   O446    1.293   .     A
C416   C418    1.434   .     S
C417   C419    1.434   .     S
C417   O449    1.300   .     A
C417   O447    1.293   .     A
C419   C318    1.343   1_655 S
C419   F326    1.362   1_655 S
C420   F427    1.361   .     S
C421   F428    1.361   .     S
C421   C102    1.398   1_565 S
C422   C120    1.398   1_565 S
Cu423  Cu424   2.710   .     S
Cu423  O445    1.949   .     S
Cu423  O446    1.963   .     S
Cu423  N435    2.036   .     S
Cu423  O449    1.962   .     S
Cu423  O437    1.949   .     S
Cu424  N436    2.036   .     S
Cu424  O444    1.949   .     S
Cu424  O443    1.949   .     S
Cu424  O447    1.963   .     S
Cu424  O448    1.962   .     S
F425   C318    1.362   1_655 S
C451   O487    1.297   .     A
C451   O494    1.297   .     A
C451   C454    1.441   .     S
C452   C460    1.492   .     S
C452   C454    1.410   .     A
C452   C771    1.398   1_545 S
C453   C471    1.400   .     A
C453   C472    1.410   .     A
C453   C462    1.440   .     S
C454   C470    1.400   .     A
C455   C461    1.474   .     S
C455   N486    1.375   .     A
C456   C463    1.474   .     S
C456   N485    1.375   .     A
C456   C908    1.430   .     S
C457   N485    1.376   .     A
C457   C464    1.477   .     S
C457   C905    1.430   .     S
C458   C465    1.477   .     S
C458   N486    1.376   .     A
C459   H479    1.083   .     S
C459   C472    1.492   .     S
C459   O500    1.221   .     D
C460   H480    1.083   .     S
C460   O488    1.221   .     D
C461   H481    1.082   .     S
C461   O489    1.220   .     D
C462   O493    1.297   .     A
C462   O495    1.297   .     A
C463   H482    1.082   .     S
C463   O490    1.220   .     D
C464   H483    1.081   .     S
C464   O491    1.220   .     D
C465   H484    1.081   .     S
C465   O492    1.220   .     D
C466   O498    1.300   .     A
C466   O496    1.293   .     A
C466   C468    1.434   .     S
C467   C469    1.434   .     S
C467   O499    1.300   .     A
C467   O497    1.293   .     A
C468   C569    1.343   1_455 S
C468   F575    1.362   1_455 S
C469   C518    1.343   .     S
C469   F526    1.362   .     S
C470   F477    1.361   .     S
C470   C772    1.398   1_545 S
C471   F478    1.361   .     S
C471   C602    1.398   .     S
C472   C620    1.398   .     S
Cu473  Cu474   2.710   .     S
Cu473  O495    1.949   .     S
Cu473  O496    1.963   .     S
Cu473  N485    2.036   .     S
Cu473  O499    1.962   .     S
Cu473  O487    1.949   .     S
Cu474  N486    2.036   .     S
Cu474  O494    1.949   .     S
Cu474  O493    1.949   .     S
Cu474  O497    1.963   .     S
Cu474  O498    1.962   .     S
F475   C518    1.362   .     S
F476   C569    1.362   1_455 S
C501   O537    1.297   .     A
C501   O544    1.297   .     A
C501   C504    1.441   .     S
C502   C510    1.492   .     S
C502   C504    1.410   .     A
C502   C821    1.398   1_545 S
C503   C521    1.400   .     A
C503   C522    1.410   .     A
C503   C512    1.440   .     S
C504   C520    1.400   .     A
C505   C511    1.474   .     S
C505   N536    1.375   .     A
C506   C513    1.474   .     S
C506   N535    1.375   .     A
C506   C958    1.430   .     S
C507   N535    1.376   .     A
C507   C514    1.477   .     S
C507   C955    1.430   .     S
C508   C515    1.477   .     S
C508   N536    1.376   .     A
C509   H529    1.083   .     S
C509   C522    1.492   .     S
C509   O550    1.221   .     D
C510   H530    1.083   .     S
C510   O538    1.221   .     D
C511   H531    1.082   .     S
C511   O539    1.220   .     D
C512   O543    1.297   .     A
C512   O545    1.297   .     A
C513   H532    1.082   .     S
C513   O540    1.220   .     D
C514   H533    1.081   .     S
C514   O541    1.220   .     D
C515   H534    1.081   .     S
C515   O542    1.220   .     D
C516   O548    1.300   .     A
C516   O546    1.293   .     A
C516   C518    1.434   .     S
C517   C519    1.434   .     S
C517   O549    1.300   .     A
C517   O547    1.293   .     A
C519   C568    1.343   .     S
C519   F576    1.362   .     S
C520   F527    1.361   .     S
C520   C822    1.398   1_545 S
C521   F528    1.361   .     S
C521   C652    1.398   .     S
C522   C670    1.398   .     S
Cu523  Cu524   2.710   .     S
Cu523  O545    1.949   .     S
Cu523  O546    1.963   .     S
Cu523  N535    2.036   .     S
Cu523  O549    1.962   .     S
Cu523  O537    1.949   .     S
Cu524  N536    2.036   .     S
Cu524  O544    1.949   .     S
Cu524  O543    1.949   .     S
Cu524  O547    1.963   .     S
Cu524  O548    1.962   .     S
F525   C568    1.362   .     S
C551   O587    1.297   .     A
C551   O594    1.297   .     A
C551   C554    1.441   .     S
C552   C560    1.492   .     S
C552   C554    1.410   .     A
C552   C871    1.398   1_545 S
C553   C571    1.400   .     A
C553   C572    1.410   .     A
C553   C562    1.440   .     S
C554   C570    1.400   .     A
C555   C561    1.474   .     S
C555   N586    1.375   .     A
C556   C563    1.474   .     S
C556   N585    1.375   .     A
C556   C1008   1.430   .     S
C557   N585    1.376   .     A
C557   C564    1.477   .     S
C557   C1005   1.430   .     S
C558   C565    1.477   .     S
C558   N586    1.376   .     A
C559   H579    1.083   .     S
C559   C572    1.492   .     S
C559   O600    1.221   .     D
C560   H580    1.083   .     S
C560   O588    1.221   .     D
C561   H581    1.082   .     S
C561   O589    1.220   .     D
C562   O593    1.297   .     A
C562   O595    1.297   .     A
C563   H582    1.082   .     S
C563   O590    1.220   .     D
C564   H583    1.081   .     S
C564   O591    1.220   .     D
C565   H584    1.081   .     S
C565   O592    1.220   .     D
C566   O598    1.300   .     A
C566   O596    1.293   .     A
C566   C568    1.434   .     S
C567   C569    1.434   .     S
C567   O599    1.300   .     A
C567   O597    1.293   .     A
C569   C468    1.343   1_655 S
C569   F476    1.362   1_655 S
C570   F577    1.361   .     S
C570   C872    1.398   1_545 S
C571   F578    1.361   .     S
C571   C702    1.398   .     S
C572   C720    1.398   .     S
Cu573  Cu574   2.710   .     S
Cu573  O595    1.949   .     S
Cu573  O596    1.963   .     S
Cu573  N585    2.036   .     S
Cu573  O599    1.962   .     S
Cu573  O587    1.949   .     S
Cu574  N586    2.036   .     S
Cu574  O594    1.949   .     S
Cu574  O593    1.949   .     S
Cu574  O597    1.963   .     S
Cu574  O598    1.962   .     S
F575   C468    1.362   1_655 S
C601   O637    1.297   .     A
C601   O644    1.297   .     A
C601   C604    1.441   .     S
C602   C610    1.492   .     S
C602   C604    1.410   .     A
C603   C621    1.400   .     A
C603   C622    1.410   .     A
C603   C612    1.440   .     S
C604   C620    1.400   .     A
C605   C611    1.474   .     S
C605   N636    1.375   .     A
C606   C613    1.474   .     S
C606   N635    1.375   .     A
C606   C1058   1.430   .     S
C607   N635    1.376   .     A
C607   C614    1.477   .     S
C607   C1055   1.430   .     S
C608   C615    1.477   .     S
C608   N636    1.376   .     A
C609   H629    1.083   .     S
C609   C622    1.492   .     S
C609   O650    1.221   .     D
C610   H630    1.083   .     S
C610   O638    1.221   .     D
C611   H631    1.082   .     S
C611   O639    1.220   .     D
C612   O643    1.297   .     A
C612   O645    1.297   .     A
C613   H632    1.082   .     S
C613   O640    1.220   .     D
C614   H633    1.081   .     S
C614   O641    1.220   .     D
C615   H634    1.081   .     S
C615   O642    1.220   .     D
C616   O648    1.300   .     A
C616   O646    1.293   .     A
C616   C618    1.434   .     S
C617   C619    1.434   .     S
C617   O649    1.300   .     A
C617   O647    1.293   .     A
C618   C719    1.343   1_455 S
C618   F725    1.362   1_455 S
C619   C668    1.343   .     S
C619   F676    1.362   .     S
C620   F627    1.361   .     S
C621   F628    1.361   .     S
C621   C752    1.398   .     S
C622   C770    1.398   .     S
Cu623  Cu624   2.710   .     S
Cu623  O645    1.949   .     S
Cu623  O646    1.963   .     S
Cu623  N635    2.036   .     S
Cu623  O649    1.962   .     S
Cu623  O637    1.949   .     S
Cu624  N636    2.036   .     S
Cu624  O644    1.949   .     S
Cu624  O643    1.949   .     S
Cu624  O647    1.963   .     S
Cu624  O648    1.962   .     S
F625   C668    1.362   .     S
F626   C719    1.362   1_455 S
C651   O687    1.297   .     A
C651   O694    1.297   .     A
C651   C654    1.441   .     S
C652   C660    1.492   .     S
C652   C654    1.410   .     A
C653   C671    1.400   .     A
C653   C672    1.410   .     A
C653   C662    1.440   .     S
C654   C670    1.400   .     A
C655   C661    1.474   .     S
C655   N686    1.375   .     A
C656   C663    1.474   .     S
C656   N685    1.375   .     A
C656   C1108   1.430   .     S
C657   N685    1.376   .     A
C657   C664    1.477   .     S
C657   C1105   1.430   .     S
C658   C665    1.477   .     S
C658   N686    1.376   .     A
C659   H679    1.083   .     S
C659   C672    1.492   .     S
C659   O700    1.221   .     D
C660   H680    1.083   .     S
C660   O688    1.221   .     D
C661   H681    1.082   .     S
C661   O689    1.220   .     D
C662   O693    1.297   .     A
C662   O695    1.297   .     A
C663   H682    1.082   .     S
C663   O690    1.220   .     D
C664   H683    1.081   .     S
C664   O691    1.220   .     D
C665   H684    1.081   .     S
C665   O692    1.220   .     D
C666   O698    1.300   .     A
C666   O696    1.293   .     A
C666   C668    1.434   .     S
C667   C669    1.434   .     S
C667   O699    1.300   .     A
C667   O697    1.293   .     A
C669   C718    1.343   .     S
C669   F726    1.362   .     S
C670   F677    1.361   .     S
C671   F678    1.361   .     S
C671   C802    1.398   .     S
C672   C820    1.398   .     S
Cu673  Cu674   2.710   .     S
Cu673  O695    1.949   .     S
Cu673  O696    1.963   .     S
Cu673  N685    2.036   .     S
Cu673  O699    1.962   .     S
Cu673  O687    1.949   .     S
Cu674  N686    2.036   .     S
Cu674  O694    1.949   .     S
Cu674  O693    1.949   .     S
Cu674  O697    1.963   .     S
Cu674  O698    1.962   .     S
F675   C718    1.362   .     S
C701   O737    1.297   .     A
C701   O744    1.297   .     A
C701   C704    1.441   .     S
C702   C710    1.492   .     S
C702   C704    1.410   .     A
C703   C721    1.400   .     A
C703   C722    1.410   .     A
C703   C712    1.440   .     S
C704   C720    1.400   .     A
C705   C711    1.474   .     S
C705   N736    1.375   .     A
C706   C713    1.474   .     S
C706   N735    1.375   .     A
C706   C1158   1.430   .     S
C707   N735    1.376   .     A
C707   C714    1.477   .     S
C707   C1155   1.430   .     S
C708   C715    1.477   .     S
C708   N736    1.376   .     A
C709   H729    1.083   .     S
C709   C722    1.492   .     S
C709   O750    1.221   .     D
C710   H730    1.083   .     S
C710   O738    1.221   .     D
C711   H731    1.082   .     S
C711   O739    1.220   .     D
C712   O743    1.297   .     A
C712   O745    1.297   .     A
C713   H732    1.082   .     S
C713   O740    1.220   .     D
C714   H733    1.081   .     S
C714   O741    1.220   .     D
C715   H734    1.081   .     S
C715   O742    1.220   .     D
C716   O748    1.300   .     A
C716   O746    1.293   .     A
C716   C718    1.434   .     S
C717   C719    1.434   .     S
C717   O749    1.300   .     A
C717   O747    1.293   .     A
C719   C618    1.343   1_655 S
C719   F626    1.362   1_655 S
C720   F727    1.361   .     S
C721   F728    1.361   .     S
C721   C852    1.398   .     S
C722   C870    1.398   .     S
Cu723  Cu724   2.710   .     S
Cu723  O745    1.949   .     S
Cu723  O746    1.963   .     S
Cu723  N735    2.036   .     S
Cu723  O749    1.962   .     S
Cu723  O737    1.949   .     S
Cu724  N736    2.036   .     S
Cu724  O744    1.949   .     S
Cu724  O743    1.949   .     S
Cu724  O747    1.963   .     S
Cu724  O748    1.962   .     S
F725   C618    1.362   1_655 S
C751   O787    1.297   .     A
C751   O794    1.297   .     A
C751   C754    1.441   .     S
C752   C760    1.492   .     S
C752   C754    1.410   .     A
C753   C771    1.400   .     A
C753   C772    1.410   .     A
C753   C762    1.440   .     S
C754   C770    1.400   .     A
C755   C761    1.474   .     S
C755   N786    1.375   .     A
C756   C763    1.474   .     S
C756   N785    1.375   .     A
C756   C1208   1.430   .     S
C757   N785    1.376   .     A
C757   C764    1.477   .     S
C757   C1205   1.430   .     S
C758   C765    1.477   .     S
C758   N786    1.376   .     A
C759   H779    1.083   .     S
C759   C772    1.492   .     S
C759   O800    1.221   .     D
C760   H780    1.083   .     S
C760   O788    1.221   .     D
C761   H781    1.082   .     S
C761   O789    1.220   .     D
C762   O793    1.297   .     A
C762   O795    1.297   .     A
C763   H782    1.082   .     S
C763   O790    1.220   .     D
C764   H783    1.081   .     S
C764   O791    1.220   .     D
C765   H784    1.081   .     S
C765   O792    1.220   .     D
C766   O798    1.300   .     A
C766   O796    1.293   .     A
C766   C768    1.434   .     S
C767   C769    1.434   .     S
C767   O799    1.300   .     A
C767   O797    1.293   .     A
C768   C869    1.343   1_455 S
C768   F875    1.362   1_455 S
C769   C818    1.343   .     S
C769   F826    1.362   .     S
C770   F777    1.361   .     S
C771   F778    1.361   .     S
C771   C452    1.398   1_565 S
C772   C470    1.398   1_565 S
Cu773  Cu774   2.710   .     S
Cu773  O795    1.949   .     S
Cu773  O796    1.963   .     S
Cu773  N785    2.036   .     S
Cu773  O799    1.962   .     S
Cu773  O787    1.949   .     S
Cu774  N786    2.036   .     S
Cu774  O794    1.949   .     S
Cu774  O793    1.949   .     S
Cu774  O797    1.963   .     S
Cu774  O798    1.962   .     S
F775   C818    1.362   .     S
F776   C869    1.362   1_455 S
C801   O837    1.297   .     A
C801   O844    1.297   .     A
C801   C804    1.441   .     S
C802   C810    1.492   .     S
C802   C804    1.410   .     A
C803   C821    1.400   .     A
C803   C822    1.410   .     A
C803   C812    1.440   .     S
C804   C820    1.400   .     A
C805   C811    1.474   .     S
C805   N836    1.375   .     A
C806   C813    1.474   .     S
C806   N835    1.375   .     A
C806   C1258   1.430   .     S
C807   N835    1.376   .     A
C807   C814    1.477   .     S
C807   C1255   1.430   .     S
C808   C815    1.477   .     S
C808   N836    1.376   .     A
C809   H829    1.083   .     S
C809   C822    1.492   .     S
C809   O850    1.221   .     D
C810   H830    1.083   .     S
C810   O838    1.221   .     D
C811   H831    1.082   .     S
C811   O839    1.220   .     D
C812   O843    1.297   .     A
C812   O845    1.297   .     A
C813   H832    1.082   .     S
C813   O840    1.220   .     D
C814   H833    1.081   .     S
C814   O841    1.220   .     D
C815   H834    1.081   .     S
C815   O842    1.220   .     D
C816   O848    1.300   .     A
C816   O846    1.293   .     A
C816   C818    1.434   .     S
C817   C819    1.434   .     S
C817   O849    1.300   .     A
C817   O847    1.293   .     A
C819   C868    1.343   .     S
C819   F876    1.362   .     S
C820   F827    1.361   .     S
C821   F828    1.361   .     S
C821   C502    1.398   1_565 S
C822   C520    1.398   1_565 S
Cu823  Cu824   2.710   .     S
Cu823  O845    1.949   .     S
Cu823  O846    1.963   .     S
Cu823  N835    2.036   .     S
Cu823  O849    1.962   .     S
Cu823  O837    1.949   .     S
Cu824  N836    2.036   .     S
Cu824  O844    1.949   .     S
Cu824  O843    1.949   .     S
Cu824  O847    1.963   .     S
Cu824  O848    1.962   .     S
F825   C868    1.362   .     S
C851   O887    1.297   .     A
C851   O894    1.297   .     A
C851   C854    1.441   .     S
C852   C860    1.492   .     S
C852   C854    1.410   .     A
C853   C871    1.400   .     A
C853   C872    1.410   .     A
C853   C862    1.440   .     S
C854   C870    1.400   .     A
C855   C861    1.474   .     S
C855   N886    1.375   .     A
C856   C863    1.474   .     S
C856   N885    1.375   .     A
C856   C1308   1.430   .     S
C857   N885    1.376   .     A
C857   C864    1.477   .     S
C857   C1305   1.430   .     S
C858   C865    1.477   .     S
C858   N886    1.376   .     A
C859   H879    1.083   .     S
C859   C872    1.492   .     S
C859   O900    1.221   .     D
C860   H880    1.083   .     S
C860   O888    1.221   .     D
C861   H881    1.082   .     S
C861   O889    1.220   .     D
C862   O893    1.297   .     A
C862   O895    1.297   .     A
C863   H882    1.082   .     S
C863   O890    1.220   .     D
C864   H883    1.081   .     S
C864   O891    1.220   .     D
C865   H884    1.081   .     S
C865   O892    1.220   .     D
C866   O898    1.300   .     A
C866   O896    1.293   .     A
C866   C868    1.434   .     S
C867   C869    1.434   .     S
C867   O899    1.300   .     A
C867   O897    1.293   .     A
C869   C768    1.343   1_655 S
C869   F776    1.362   1_655 S
C870   F877    1.361   .     S
C871   F878    1.361   .     S
C871   C552    1.398   1_565 S
C872   C570    1.398   1_565 S
Cu873  Cu874   2.710   .     S
Cu873  O895    1.949   .     S
Cu873  O896    1.963   .     S
Cu873  N885    2.036   .     S
Cu873  O899    1.962   .     S
Cu873  O887    1.949   .     S
Cu874  N886    2.036   .     S
Cu874  O894    1.949   .     S
Cu874  O893    1.949   .     S
Cu874  O897    1.963   .     S
Cu874  O898    1.962   .     S
F875   C768    1.362   1_655 S
C901   O937    1.297   .     A
C901   O944    1.297   .     A
C901   C904    1.441   .     S
C902   C910    1.492   .     S
C902   C904    1.410   .     A
C902   C1221   1.398   1_545 S
C903   C921    1.400   .     A
C903   C922    1.410   .     A
C903   C912    1.440   .     S
C904   C920    1.400   .     A
C905   C911    1.474   .     S
C905   N936    1.375   .     A
C906   C913    1.474   .     S
C906   N935    1.375   .     A
C906   C8      1.430   1_556 S
C907   N935    1.376   .     A
C907   C914    1.477   .     S
C907   C5      1.430   1_556 S
C908   C915    1.477   .     S
C908   N936    1.376   .     A
C909   H929    1.083   .     S
C909   C922    1.492   .     S
C909   O950    1.221   .     D
C910   H930    1.083   .     S
C910   O938    1.221   .     D
C911   H931    1.082   .     S
C911   O939    1.220   .     D
C912   O943    1.297   .     A
C912   O945    1.297   .     A
C913   H932    1.082   .     S
C913   O940    1.220   .     D
C914   H933    1.081   .     S
C914   O941    1.220   .     D
C915   H934    1.081   .     S
C915   O942    1.220   .     D
C916   O948    1.300   .     A
C916   O946    1.293   .     A
C916   C918    1.434   .     S
C917   C919    1.434   .     S
C917   O949    1.300   .     A
C917   O947    1.293   .     A
C918   C1019   1.343   1_455 S
C918   F1025   1.362   1_455 S
C919   C968    1.343   .     S
C919   F976    1.362   .     S
C920   F927    1.361   .     S
C920   C1222   1.398   1_545 S
C921   F928    1.361   .     S
C921   C1052   1.398   .     S
C922   C1070   1.398   .     S
Cu923  Cu924   2.710   .     S
Cu923  O945    1.949   .     S
Cu923  O946    1.963   .     S
Cu923  N935    2.036   .     S
Cu923  O949    1.962   .     S
Cu923  O937    1.949   .     S
Cu924  N936    2.036   .     S
Cu924  O944    1.949   .     S
Cu924  O943    1.949   .     S
Cu924  O947    1.963   .     S
Cu924  O948    1.962   .     S
F925   C968    1.362   .     S
F926   C1019   1.362   1_455 S
C951   O987    1.297   .     A
C951   O994    1.297   .     A
C951   C954    1.441   .     S
C952   C960    1.492   .     S
C952   C954    1.410   .     A
C952   C1271   1.398   1_545 S
C953   C971    1.400   .     A
C953   C972    1.410   .     A
C953   C962    1.440   .     S
C954   C970    1.400   .     A
C955   C961    1.474   .     S
C955   N986    1.375   .     A
C956   C963    1.474   .     S
C956   N985    1.375   .     A
C956   C58     1.430   1_556 S
C957   N985    1.376   .     A
C957   C964    1.477   .     S
C957   C55     1.430   1_556 S
C958   C965    1.477   .     S
C958   N986    1.376   .     A
C959   H979    1.083   .     S
C959   C972    1.492   .     S
C959   O1000   1.221   .     D
C960   H980    1.083   .     S
C960   O988    1.221   .     D
C961   H981    1.082   .     S
C961   O989    1.220   .     D
C962   O993    1.297   .     A
C962   O995    1.297   .     A
C963   H982    1.082   .     S
C963   O990    1.220   .     D
C964   H983    1.081   .     S
C964   O991    1.220   .     D
C965   H984    1.081   .     S
C965   O992    1.220   .     D
C966   O998    1.300   .     A
C966   O996    1.293   .     A
C966   C968    1.434   .     S
C967   C969    1.434   .     S
C967   O999    1.300   .     A
C967   O997    1.293   .     A
C969   C1018   1.343   .     S
C969   F1026   1.362   .     S
C970   F977    1.361   .     S
C970   C1272   1.398   1_545 S
C971   F978    1.361   .     S
C971   C1102   1.398   .     S
C972   C1120   1.398   .     S
Cu973  Cu974   2.710   .     S
Cu973  O995    1.949   .     S
Cu973  O996    1.963   .     S
Cu973  N985    2.036   .     S
Cu973  O999    1.962   .     S
Cu973  O987    1.949   .     S
Cu974  N986    2.036   .     S
Cu974  O994    1.949   .     S
Cu974  O993    1.949   .     S
Cu974  O997    1.963   .     S
Cu974  O998    1.962   .     S
F975   C1018   1.362   .     S
C1001  O1037   1.297   .     A
C1001  O1044   1.297   .     A
C1001  C1004   1.441   .     S
C1002  C1010   1.492   .     S
C1002  C1004   1.410   .     A
C1002  C1321   1.398   1_545 S
C1003  C1021   1.400   .     A
C1003  C1022   1.410   .     A
C1003  C1012   1.440   .     S
C1004  C1020   1.400   .     A
C1005  C1011   1.474   .     S
C1005  N1036   1.375   .     A
C1006  C1013   1.474   .     S
C1006  N1035   1.375   .     A
C1006  C108    1.430   1_556 S
C1007  N1035   1.376   .     A
C1007  C1014   1.477   .     S
C1007  C105    1.430   1_556 S
C1008  C1015   1.477   .     S
C1008  N1036   1.376   .     A
C1009  H1029   1.083   .     S
C1009  C1022   1.492   .     S
C1009  O1050   1.221   .     D
C1010  H1030   1.083   .     S
C1010  O1038   1.221   .     D
C1011  H1031   1.082   .     S
C1011  O1039   1.220   .     D
C1012  O1043   1.297   .     A
C1012  O1045   1.297   .     A
C1013  H1032   1.082   .     S
C1013  O1040   1.220   .     D
C1014  H1033   1.081   .     S
C1014  O1041   1.220   .     D
C1015  H1034   1.081   .     S
C1015  O1042   1.220   .     D
C1016  O1048   1.300   .     A
C1016  O1046   1.293   .     A
C1016  C1018   1.434   .     S
C1017  C1019   1.434   .     S
C1017  O1049   1.300   .     A
C1017  O1047   1.293   .     A
C1019  C918    1.343   1_655 S
C1019  F926    1.362   1_655 S
C1020  F1027   1.361   .     S
C1020  C1322   1.398   1_545 S
C1021  F1028   1.361   .     S
C1021  C1152   1.398   .     S
C1022  C1170   1.398   .     S
Cu1023 Cu1024  2.710   .     S
Cu1023 O1045   1.949   .     S
Cu1023 O1046   1.963   .     S
Cu1023 N1035   2.036   .     S
Cu1023 O1049   1.962   .     S
Cu1023 O1037   1.949   .     S
Cu1024 N1036   2.036   .     S
Cu1024 O1044   1.949   .     S
Cu1024 O1043   1.949   .     S
Cu1024 O1047   1.963   .     S
Cu1024 O1048   1.962   .     S
F1025  C918    1.362   1_655 S
C1051  O1087   1.297   .     A
C1051  O1094   1.297   .     A
C1051  C1054   1.441   .     S
C1052  C1060   1.492   .     S
C1052  C1054   1.410   .     A
C1053  C1071   1.400   .     A
C1053  C1072   1.410   .     A
C1053  C1062   1.440   .     S
C1054  C1070   1.400   .     A
C1055  C1061   1.474   .     S
C1055  N1086   1.375   .     A
C1056  C1063   1.474   .     S
C1056  N1085   1.375   .     A
C1056  C158    1.430   1_556 S
C1057  N1085   1.376   .     A
C1057  C1064   1.477   .     S
C1057  C155    1.430   1_556 S
C1058  C1065   1.477   .     S
C1058  N1086   1.376   .     A
C1059  H1079   1.083   .     S
C1059  C1072   1.492   .     S
C1059  O1100   1.221   .     D
C1060  H1080   1.083   .     S
C1060  O1088   1.221   .     D
C1061  H1081   1.082   .     S
C1061  O1089   1.220   .     D
C1062  O1093   1.297   .     A
C1062  O1095   1.297   .     A
C1063  H1082   1.082   .     S
C1063  O1090   1.220   .     D
C1064  H1083   1.081   .     S
C1064  O1091   1.220   .     D
C1065  H1084   1.081   .     S
C1065  O1092   1.220   .     D
C1066  O1098   1.300   .     A
C1066  O1096   1.293   .     A
C1066  C1068   1.434   .     S
C1067  C1069   1.434   .     S
C1067  O1099   1.300   .     A
C1067  O1097   1.293   .     A
C1068  C1169   1.343   1_455 S
C1068  F1175   1.362   1_455 S
C1069  C1118   1.343   .     S
C1069  F1126   1.362   .     S
C1070  F1077   1.361   .     S
C1071  F1078   1.361   .     S
C1071  C1202   1.398   .     S
C1072  C1220   1.398   .     S
Cu1073 Cu1074  2.710   .     S
Cu1073 O1095   1.949   .     S
Cu1073 O1096   1.963   .     S
Cu1073 N1085   2.036   .     S
Cu1073 O1099   1.962   .     S
Cu1073 O1087   1.949   .     S
Cu1074 N1086   2.036   .     S
Cu1074 O1094   1.949   .     S
Cu1074 O1093   1.949   .     S
Cu1074 O1097   1.963   .     S
Cu1074 O1098   1.962   .     S
F1075  C1118   1.362   .     S
F1076  C1169   1.362   1_455 S
C1101  O1137   1.297   .     A
C1101  O1144   1.297   .     A
C1101  C1104   1.441   .     S
C1102  C1110   1.492   .     S
C1102  C1104   1.410   .     A
C1103  C1121   1.400   .     A
C1103  C1122   1.410   .     A
C1103  C1112   1.440   .     S
C1104  C1120   1.400   .     A
C1105  C1111   1.474   .     S
C1105  N1136   1.375   .     A
C1106  C1113   1.474   .     S
C1106  N1135   1.375   .     A
C1106  C208    1.430   1_556 S
C1107  N1135   1.376   .     A
C1107  C1114   1.477   .     S
C1107  C205    1.430   1_556 S
C1108  C1115   1.477   .     S
C1108  N1136   1.376   .     A
C1109  H1129   1.083   .     S
C1109  C1122   1.492   .     S
C1109  O1150   1.221   .     D
C1110  H1130   1.083   .     S
C1110  O1138   1.221   .     D
C1111  H1131   1.082   .     S
C1111  O1139   1.220   .     D
C1112  O1143   1.297   .     A
C1112  O1145   1.297   .     A
C1113  H1132   1.082   .     S
C1113  O1140   1.220   .     D
C1114  H1133   1.081   .     S
C1114  O1141   1.220   .     D
C1115  H1134   1.081   .     S
C1115  O1142   1.220   .     D
C1116  O1148   1.300   .     A
C1116  O1146   1.293   .     A
C1116  C1118   1.434   .     S
C1117  C1119   1.434   .     S
C1117  O1149   1.300   .     A
C1117  O1147   1.293   .     A
C1119  C1168   1.343   .     S
C1119  F1176   1.362   .     S
C1120  F1127   1.361   .     S
C1121  F1128   1.361   .     S
C1121  C1252   1.398   .     S
C1122  C1270   1.398   .     S
Cu1123 Cu1124  2.710   .     S
Cu1123 O1145   1.949   .     S
Cu1123 O1146   1.963   .     S
Cu1123 N1135   2.036   .     S
Cu1123 O1149   1.962   .     S
Cu1123 O1137   1.949   .     S
Cu1124 N1136   2.036   .     S
Cu1124 O1144   1.949   .     S
Cu1124 O1143   1.949   .     S
Cu1124 O1147   1.963   .     S
Cu1124 O1148   1.962   .     S
F1125  C1168   1.362   .     S
C1151  O1187   1.297   .     A
C1151  O1194   1.297   .     A
C1151  C1154   1.441   .     S
C1152  C1160   1.492   .     S
C1152  C1154   1.410   .     A
C1153  C1171   1.400   .     A
C1153  C1172   1.410   .     A
C1153  C1162   1.440   .     S
C1154  C1170   1.400   .     A
C1155  C1161   1.474   .     S
C1155  N1186   1.375   .     A
C1156  C1163   1.474   .     S
C1156  N1185   1.375   .     A
C1156  C258    1.430   1_556 S
C1157  N1185   1.376   .     A
C1157  C1164   1.477   .     S
C1157  C255    1.430   1_556 S
C1158  C1165   1.477   .     S
C1158  N1186   1.376   .     A
C1159  H1179   1.083   .     S
C1159  C1172   1.492   .     S
C1159  O1200   1.221   .     D
C1160  H1180   1.083   .     S
C1160  O1188   1.221   .     D
C1161  H1181   1.082   .     S
C1161  O1189   1.220   .     D
C1162  O1193   1.297   .     A
C1162  O1195   1.297   .     A
C1163  H1182   1.082   .     S
C1163  O1190   1.220   .     D
C1164  H1183   1.081   .     S
C1164  O1191   1.220   .     D
C1165  H1184   1.081   .     S
C1165  O1192   1.220   .     D
C1166  O1198   1.300   .     A
C1166  O1196   1.293   .     A
C1166  C1168   1.434   .     S
C1167  C1169   1.434   .     S
C1167  O1199   1.300   .     A
C1167  O1197   1.293   .     A
C1169  C1068   1.343   1_655 S
C1169  F1076   1.362   1_655 S
C1170  F1177   1.361   .     S
C1171  F1178   1.361   .     S
C1171  C1302   1.398   .     S
C1172  C1320   1.398   .     S
Cu1173 Cu1174  2.710   .     S
Cu1173 O1195   1.949   .     S
Cu1173 O1196   1.963   .     S
Cu1173 N1185   2.036   .     S
Cu1173 O1199   1.962   .     S
Cu1173 O1187   1.949   .     S
Cu1174 N1186   2.036   .     S
Cu1174 O1194   1.949   .     S
Cu1174 O1193   1.949   .     S
Cu1174 O1197   1.963   .     S
Cu1174 O1198   1.962   .     S
F1175  C1068   1.362   1_655 S
C1201  O1237   1.297   .     A
C1201  O1244   1.297   .     A
C1201  C1204   1.441   .     S
C1202  C1210   1.492   .     S
C1202  C1204   1.410   .     A
C1203  C1221   1.400   .     A
C1203  C1222   1.410   .     A
C1203  C1212   1.440   .     S
C1204  C1220   1.400   .     A
C1205  C1211   1.474   .     S
C1205  N1236   1.375   .     A
C1206  C1213   1.474   .     S
C1206  N1235   1.375   .     A
C1206  C308    1.430   1_556 S
C1207  N1235   1.376   .     A
C1207  C1214   1.477   .     S
C1207  C305    1.430   1_556 S
C1208  C1215   1.477   .     S
C1208  N1236   1.376   .     A
C1209  H1229   1.083   .     S
C1209  C1222   1.492   .     S
C1209  O1250   1.221   .     D
C1210  H1230   1.083   .     S
C1210  O1238   1.221   .     D
C1211  H1231   1.082   .     S
C1211  O1239   1.220   .     D
C1212  O1243   1.297   .     A
C1212  O1245   1.297   .     A
C1213  H1232   1.082   .     S
C1213  O1240   1.220   .     D
C1214  H1233   1.081   .     S
C1214  O1241   1.220   .     D
C1215  H1234   1.081   .     S
C1215  O1242   1.220   .     D
C1216  O1248   1.300   .     A
C1216  O1246   1.293   .     A
C1216  C1218   1.434   .     S
C1217  C1219   1.434   .     S
C1217  O1249   1.300   .     A
C1217  O1247   1.293   .     A
C1218  C1319   1.343   1_455 S
C1218  F1325   1.362   1_455 S
C1219  C1268   1.343   .     S
C1219  F1276   1.362   .     S
C1220  F1227   1.361   .     S
C1221  F1228   1.361   .     S
C1221  C902    1.398   1_565 S
C1222  C920    1.398   1_565 S
Cu1223 Cu1224  2.710   .     S
Cu1223 O1245   1.949   .     S
Cu1223 O1246   1.963   .     S
Cu1223 N1235   2.036   .     S
Cu1223 O1249   1.962   .     S
Cu1223 O1237   1.949   .     S
Cu1224 N1236   2.036   .     S
Cu1224 O1244   1.949   .     S
Cu1224 O1243   1.949   .     S
Cu1224 O1247   1.963   .     S
Cu1224 O1248   1.962   .     S
F1225  C1268   1.362   .     S
F1226  C1319   1.362   1_455 S
C1251  O1287   1.297   .     A
C1251  O1294   1.297   .     A
C1251  C1254   1.441   .     S
C1252  C1260   1.492   .     S
C1252  C1254   1.410   .     A
C1253  C1271   1.400   .     A
C1253  C1272   1.410   .     A
C1253  C1262   1.440   .     S
C1254  C1270   1.400   .     A
C1255  C1261   1.474   .     S
C1255  N1286   1.375   .     A
C1256  C1263   1.474   .     S
C1256  N1285   1.375   .     A
C1256  C358    1.430   1_556 S
C1257  N1285   1.376   .     A
C1257  C1264   1.477   .     S
C1257  C355    1.430   1_556 S
C1258  C1265   1.477   .     S
C1258  N1286   1.376   .     A
C1259  H1279   1.083   .     S
C1259  C1272   1.492   .     S
C1259  O1300   1.221   .     D
C1260  H1280   1.083   .     S
C1260  O1288   1.221   .     D
C1261  H1281   1.082   .     S
C1261  O1289   1.220   .     D
C1262  O1293   1.297   .     A
C1262  O1295   1.297   .     A
C1263  H1282   1.082   .     S
C1263  O1290   1.220   .     D
C1264  H1283   1.081   .     S
C1264  O1291   1.220   .     D
C1265  H1284   1.081   .     S
C1265  O1292   1.220   .     D
C1266  O1298   1.300   .     A
C1266  O1296   1.293   .     A
C1266  C1268   1.434   .     S
C1267  C1269   1.434   .     S
C1267  O1299   1.300   .     A
C1267  O1297   1.293   .     A
C1269  C1318   1.343   .     S
C1269  F1326   1.362   .     S
C1270  F1277   1.361   .     S
C1271  F1278   1.361   .     S
C1271  C952    1.398   1_565 S
C1272  C970    1.398   1_565 S
Cu1273 Cu1274  2.710   .     S
Cu1273 O1295   1.949   .     S
Cu1273 O1296   1.963   .     S
Cu1273 N1285   2.036   .     S
Cu1273 O1299   1.962   .     S
Cu1273 O1287   1.949   .     S
Cu1274 N1286   2.036   .     S
Cu1274 O1294   1.949   .     S
Cu1274 O1293   1.949   .     S
Cu1274 O1297   1.963   .     S
Cu1274 O1298   1.962   .     S
F1275  C1318   1.362   .     S
C1301  O1337   1.297   .     A
C1301  O1344   1.297   .     A
C1301  C1304   1.441   .     S
C1302  C1310   1.492   .     S
C1302  C1304   1.410   .     A
C1303  C1321   1.400   .     A
C1303  C1322   1.410   .     A
C1303  C1312   1.440   .     S
C1304  C1320   1.400   .     A
C1305  C1311   1.474   .     S
C1305  N1336   1.375   .     A
C1306  C1313   1.474   .     S
C1306  N1335   1.375   .     A
C1306  C408    1.430   1_556 S
C1307  N1335   1.376   .     A
C1307  C1314   1.477   .     S
C1307  C405    1.430   1_556 S
C1308  C1315   1.477   .     S
C1308  N1336   1.376   .     A
C1309  H1329   1.083   .     S
C1309  C1322   1.492   .     S
C1309  O1350   1.221   .     D
C1310  H1330   1.083   .     S
C1310  O1338   1.221   .     D
C1311  H1331   1.082   .     S
C1311  O1339   1.220   .     D
C1312  O1343   1.297   .     A
C1312  O1345   1.297   .     A
C1313  H1332   1.082   .     S
C1313  O1340   1.220   .     D
C1314  H1333   1.081   .     S
C1314  O1341   1.220   .     D
C1315  H1334   1.081   .     S
C1315  O1342   1.220   .     D
C1316  O1348   1.300   .     A
C1316  O1346   1.293   .     A
C1316  C1318   1.434   .     S
C1317  C1319   1.434   .     S
C1317  O1349   1.300   .     A
C1317  O1347   1.293   .     A
C1319  C1218   1.343   1_655 S
C1319  F1226   1.362   1_655 S
C1320  F1327   1.361   .     S
C1321  F1328   1.361   .     S
C1321  C1002   1.398   1_565 S
C1322  C1020   1.398   1_565 S
Cu1323 Cu1324  2.710   .     S
Cu1323 O1345   1.949   .     S
Cu1323 O1346   1.963   .     S
Cu1323 N1335   2.036   .     S
Cu1323 O1349   1.962   .     S
Cu1323 O1337   1.949   .     S
Cu1324 N1336   2.036   .     S
Cu1324 O1344   1.949   .     S
Cu1324 O1343   1.949   .     S
Cu1324 O1347   1.963   .     S
Cu1324 O1348   1.962   .     S
F1325  C1218   1.362   1_655 S
