data_str_m2_o1_o16_pcu_sym.147
_audit_creation_date              2020-01-03
_audit_creation_method            'Materials Studio'
_symmetry_space_group_name_H-M    'P1'
_symmetry_Int_Tables_number       1
_symmetry_cell_setting            triclinic
loop_
_symmetry_equiv_pos_as_xyz
  x,y,z
_cell_length_a                    28.5218
_cell_length_b                    32.4997
_cell_length_c                    26.7614
_cell_angle_alpha                 89.9589
_cell_angle_beta                  73.5455
_cell_angle_gamma                 89.9647
loop_
_atom_site_label
_atom_site_type_symbol
_atom_site_fract_x
_atom_site_fract_y
_atom_site_fract_z
_atom_site_U_iso_or_equiv
_atom_site_adp_type
_atom_site_occupancy
O1     O     0.12708   0.22678   0.25000   0.00000  Uiso   1.00
O2     O     0.20627   0.22679   0.25000   0.00000  Uiso   1.00
C3     C     0.16666   0.24599   0.25005   0.00000  Uiso   1.00
O4     O     0.10775   0.16665   0.32549   0.00000  Uiso   1.00
O5     O     0.18694   0.16666   0.32549   0.00000  Uiso   1.00
C6     C     0.14140   0.16013   0.34903   0.00000  Uiso   1.00
Cu7    Cu    0.11978   0.16666   0.25000   0.00000  Uiso   1.00
Cu8    Cu    0.21355   0.16667   0.25000   0.00000  Uiso   1.00
O9     O     0.12706   0.10654   0.24999   0.00000  Uiso   1.00
O10    O     0.20625   0.10655   0.25000   0.00000  Uiso   1.00
O11    O     0.14640   0.16667   0.17451   0.00000  Uiso   1.00
O12    O     0.22559   0.16668   0.17451   0.00000  Uiso   1.00
C13    C     0.16668   0.08734   0.24995   0.00000  Uiso   1.00
C14    C     0.19250   0.16818   0.14990   0.00000  Uiso   1.00
C15    C     0.26796   0.17106   0.00879   0.00000  Uiso   1.00
H16    H     0.28708   0.14261   0.41197   0.00000  Uiso   1.00
H17    H     0.30473   0.17801   0.48529   0.00000  Uiso   1.00
C18    C     0.20695   0.16831   0.09261   0.00000  Uiso   1.00
C19    C     0.07844   0.14176   0.43102   0.00000  Uiso   1.00
C20    C     0.06414   0.13465   0.48437   0.00000  Uiso   1.00
C21    C     0.09807   0.13731   0.01272   0.00000  Uiso   1.00
C22    C     0.14835   0.14291   0.48708   0.00000  Uiso   1.00
C23    C     0.16364   0.14107   0.43189   0.00000  Uiso   1.00
C24    C     0.18402   0.15117   0.01378   0.00000  Uiso   1.00
C25    C     0.23360   0.15623   0.48481   0.00000  Uiso   1.00
C26    C     0.24850   0.14501   0.43248   0.00000  Uiso   1.00
C27    C     0.21396   0.13405   0.40727   0.00000  Uiso   1.00
C28    C     0.17201   0.15590   0.06794   0.00000  Uiso   1.00
C29    C     0.25450   0.17909   0.06235   0.00000  Uiso   1.00
C30    C     0.12803   0.14680   0.40425   0.00000  Uiso   1.00
H31    H     0.13555   0.14971   0.09196   0.00000  Uiso   1.00
H32    H     0.05055   0.14338   0.41076   0.00000  Uiso   1.00
H33    H     0.08377   0.13446   0.05437   0.00000  Uiso   1.00
H34    H     0.02610   0.12902   0.00439   0.00000  Uiso   1.00
C35    C     0.20924   0.31203   0.25019   0.00000  Uiso   1.00
H36    H     0.24253   0.29600   0.25027   0.00000  Uiso   1.00
C37    C     0.20925   0.02127   0.25017   0.00000  Uiso   1.00
H38    H     0.24254   0.03727   0.25023   0.00000  Uiso   1.00
C39    C     0.16667   0.04274   0.25004   0.00000  Uiso   1.00
C40    C     0.12408   0.02131   0.24999   0.00000  Uiso   1.00
H41    H     0.09079   0.03734   0.24989   0.00000  Uiso   1.00
C42    C     0.12407   0.31208   0.25002   0.00000  Uiso   1.00
H43    H     0.09077   0.29608   0.24997   0.00000  Uiso   1.00
C44    C     0.16665   0.29060   0.25009   0.00000  Uiso   1.00
C45    C     0.29943   0.19069   0.28419   0.00000  Uiso   1.00
H46    H     0.27343   0.20992   0.31158   0.00000  Uiso   1.00
C47    C     0.01571   0.19063   0.28423   0.00000  Uiso   1.00
H48    H     0.02716   0.20983   0.31163   0.00000  Uiso   1.00
N49    N     0.04931   0.16666   0.24998   0.00000  Uiso   1.00
C50    C     0.03390   0.14265   0.21579   0.00000  Uiso   1.00
H51    H     0.05989   0.12338   0.18844   0.00000  Uiso   1.00
C52    C     0.31759   0.14265   0.21581   0.00000  Uiso   1.00
H53    H     0.30612   0.12340   0.18849   0.00000  Uiso   1.00
N54    N     0.28402   0.16669   0.25000   0.00000  Uiso   1.00
N55    N     0.28807   0.20020   0.08469   0.00000  Uiso   1.00
O56    O     0.27256   0.23023   0.11737   0.00000  Uiso   1.00
O57    O     0.00161   0.19492   0.06560   0.00000  Uiso   1.00
Cl58   Cl    0.23418   0.10058   0.35355   0.00000  Uiso   1.00
O59    O     0.46042   0.22678   0.25000   0.00000  Uiso   1.00
O60    O     0.53961   0.22679   0.25000   0.00000  Uiso   1.00
C61    C     0.49999   0.24599   0.25005   0.00000  Uiso   1.00
O62    O     0.44108   0.16665   0.32549   0.00000  Uiso   1.00
O63    O     0.52027   0.16666   0.32549   0.00000  Uiso   1.00
C64    C     0.47473   0.16013   0.34903   0.00000  Uiso   1.00
Cu65   Cu    0.45311   0.16666   0.25000   0.00000  Uiso   1.00
Cu66   Cu    0.54689   0.16667   0.25000   0.00000  Uiso   1.00
O67    O     0.46039   0.10654   0.24999   0.00000  Uiso   1.00
O68    O     0.53958   0.10655   0.25000   0.00000  Uiso   1.00
O69    O     0.47973   0.16667   0.17451   0.00000  Uiso   1.00
O70    O     0.55892   0.16668   0.17451   0.00000  Uiso   1.00
C71    C     0.50001   0.08734   0.24995   0.00000  Uiso   1.00
C72    C     0.52584   0.16818   0.14990   0.00000  Uiso   1.00
C73    C     0.60129   0.17106   0.00879   0.00000  Uiso   1.00
H74    H     0.62041   0.14261   0.41197   0.00000  Uiso   1.00
H75    H     0.63806   0.17801   0.48529   0.00000  Uiso   1.00
C76    C     0.54028   0.16831   0.09261   0.00000  Uiso   1.00
C77    C     0.41177   0.14176   0.43102   0.00000  Uiso   1.00
C78    C     0.39747   0.13465   0.48437   0.00000  Uiso   1.00
C79    C     0.43141   0.13731   0.01272   0.00000  Uiso   1.00
C80    C     0.48168   0.14291   0.48708   0.00000  Uiso   1.00
C81    C     0.49698   0.14107   0.43189   0.00000  Uiso   1.00
C82    C     0.51736   0.15117   0.01378   0.00000  Uiso   1.00
C83    C     0.56693   0.15623   0.48481   0.00000  Uiso   1.00
C84    C     0.58183   0.14501   0.43248   0.00000  Uiso   1.00
C85    C     0.54729   0.13405   0.40727   0.00000  Uiso   1.00
C86    C     0.50534   0.15590   0.06794   0.00000  Uiso   1.00
C87    C     0.58783   0.17909   0.06235   0.00000  Uiso   1.00
C88    C     0.46136   0.14680   0.40425   0.00000  Uiso   1.00
H89    H     0.46888   0.14971   0.09196   0.00000  Uiso   1.00
H90    H     0.38389   0.14338   0.41076   0.00000  Uiso   1.00
H91    H     0.41710   0.13446   0.05437   0.00000  Uiso   1.00
H92    H     0.35943   0.12902   0.00439   0.00000  Uiso   1.00
C93    C     0.54257   0.31203   0.25019   0.00000  Uiso   1.00
H94    H     0.57586   0.29600   0.25027   0.00000  Uiso   1.00
C95    C     0.54258   0.02127   0.25017   0.00000  Uiso   1.00
H96    H     0.57587   0.03727   0.25023   0.00000  Uiso   1.00
C97    C     0.50001   0.04274   0.25004   0.00000  Uiso   1.00
C98    C     0.45741   0.02131   0.24999   0.00000  Uiso   1.00
H99    H     0.42412   0.03734   0.24989   0.00000  Uiso   1.00
C100   C     0.45740   0.31208   0.25002   0.00000  Uiso   1.00
H101   H     0.42410   0.29608   0.24997   0.00000  Uiso   1.00
C102   C     0.49998   0.29060   0.25009   0.00000  Uiso   1.00
C103   C     0.63276   0.19069   0.28419   0.00000  Uiso   1.00
H104   H     0.60676   0.20992   0.31158   0.00000  Uiso   1.00
C105   C     0.34905   0.19063   0.28423   0.00000  Uiso   1.00
H106   H     0.36049   0.20983   0.31163   0.00000  Uiso   1.00
N107   N     0.38265   0.16666   0.24998   0.00000  Uiso   1.00
C108   C     0.36724   0.14265   0.21579   0.00000  Uiso   1.00
H109   H     0.39322   0.12338   0.18844   0.00000  Uiso   1.00
C110   C     0.65093   0.14265   0.21581   0.00000  Uiso   1.00
H111   H     0.63945   0.12340   0.18849   0.00000  Uiso   1.00
N112   N     0.61735   0.16669   0.25000   0.00000  Uiso   1.00
N113   N     0.62141   0.20020   0.08469   0.00000  Uiso   1.00
O114   O     0.60590   0.23023   0.11737   0.00000  Uiso   1.00
O115   O     0.33495   0.19492   0.06560   0.00000  Uiso   1.00
Cl116  Cl    0.56752   0.10058   0.35355   0.00000  Uiso   1.00
O117   O     0.79375   0.22678   0.25000   0.00000  Uiso   1.00
O118   O     0.87294   0.22679   0.25000   0.00000  Uiso   1.00
C119   C     0.83332   0.24599   0.25005   0.00000  Uiso   1.00
O120   O     0.77441   0.16665   0.32549   0.00000  Uiso   1.00
O121   O     0.85360   0.16666   0.32549   0.00000  Uiso   1.00
C122   C     0.80807   0.16013   0.34903   0.00000  Uiso   1.00
Cu123  Cu    0.78645   0.16666   0.25000   0.00000  Uiso   1.00
Cu124  Cu    0.88022   0.16667   0.25000   0.00000  Uiso   1.00
O125   O     0.79373   0.10654   0.24999   0.00000  Uiso   1.00
O126   O     0.87292   0.10655   0.25000   0.00000  Uiso   1.00
O127   O     0.81306   0.16667   0.17451   0.00000  Uiso   1.00
O128   O     0.89225   0.16668   0.17451   0.00000  Uiso   1.00
C129   C     0.83335   0.08734   0.24995   0.00000  Uiso   1.00
C130   C     0.85917   0.16818   0.14990   0.00000  Uiso   1.00
C131   C     0.93462   0.17106   0.00879   0.00000  Uiso   1.00
H132   H     0.95375   0.14261   0.41197   0.00000  Uiso   1.00
H133   H     0.97140   0.17801   0.48529   0.00000  Uiso   1.00
C134   C     0.87361   0.16831   0.09261   0.00000  Uiso   1.00
C135   C     0.74510   0.14176   0.43102   0.00000  Uiso   1.00
C136   C     0.73081   0.13465   0.48437   0.00000  Uiso   1.00
C137   C     0.76474   0.13731   0.01272   0.00000  Uiso   1.00
C138   C     0.81501   0.14291   0.48708   0.00000  Uiso   1.00
C139   C     0.83031   0.14107   0.43189   0.00000  Uiso   1.00
C140   C     0.85069   0.15117   0.01378   0.00000  Uiso   1.00
C141   C     0.90026   0.15623   0.48481   0.00000  Uiso   1.00
C142   C     0.91516   0.14501   0.43248   0.00000  Uiso   1.00
C143   C     0.88062   0.13405   0.40727   0.00000  Uiso   1.00
C144   C     0.83867   0.15590   0.06794   0.00000  Uiso   1.00
C145   C     0.92117   0.17909   0.06235   0.00000  Uiso   1.00
C146   C     0.79470   0.14680   0.40425   0.00000  Uiso   1.00
H147   H     0.80222   0.14971   0.09196   0.00000  Uiso   1.00
H148   H     0.71722   0.14338   0.41076   0.00000  Uiso   1.00
H149   H     0.75043   0.13446   0.05437   0.00000  Uiso   1.00
H150   H     0.69276   0.12902   0.00439   0.00000  Uiso   1.00
C151   C     0.87590   0.31203   0.25019   0.00000  Uiso   1.00
H152   H     0.90920   0.29600   0.25027   0.00000  Uiso   1.00
C153   C     0.87591   0.02127   0.25017   0.00000  Uiso   1.00
H154   H     0.90921   0.03727   0.25023   0.00000  Uiso   1.00
C155   C     0.83334   0.04274   0.25004   0.00000  Uiso   1.00
C156   C     0.79075   0.02131   0.24999   0.00000  Uiso   1.00
H157   H     0.75746   0.03734   0.24989   0.00000  Uiso   1.00
C158   C     0.79073   0.31208   0.25002   0.00000  Uiso   1.00
H159   H     0.75743   0.29608   0.24997   0.00000  Uiso   1.00
C160   C     0.83332   0.29060   0.25009   0.00000  Uiso   1.00
C161   C     0.96610   0.19069   0.28419   0.00000  Uiso   1.00
H162   H     0.94009   0.20992   0.31158   0.00000  Uiso   1.00
C163   C     0.68238   0.19063   0.28423   0.00000  Uiso   1.00
H164   H     0.69383   0.20983   0.31163   0.00000  Uiso   1.00
N165   N     0.71598   0.16666   0.24998   0.00000  Uiso   1.00
C166   C     0.70057   0.14265   0.21579   0.00000  Uiso   1.00
H167   H     0.72656   0.12338   0.18844   0.00000  Uiso   1.00
C168   C     0.98426   0.14265   0.21581   0.00000  Uiso   1.00
H169   H     0.97279   0.12340   0.18849   0.00000  Uiso   1.00
N170   N     0.95069   0.16669   0.25000   0.00000  Uiso   1.00
N171   N     0.95474   0.20020   0.08469   0.00000  Uiso   1.00
O172   O     0.93923   0.23023   0.11737   0.00000  Uiso   1.00
O173   O     0.66828   0.19492   0.06560   0.00000  Uiso   1.00
Cl174  Cl    0.90085   0.10058   0.35355   0.00000  Uiso   1.00
O175   O     0.12708   0.56011   0.25000   0.00000  Uiso   1.00
O176   O     0.20627   0.56012   0.25000   0.00000  Uiso   1.00
C177   C     0.16666   0.57932   0.25005   0.00000  Uiso   1.00
O178   O     0.10775   0.49998   0.32549   0.00000  Uiso   1.00
O179   O     0.18694   0.49999   0.32549   0.00000  Uiso   1.00
C180   C     0.14140   0.49347   0.34903   0.00000  Uiso   1.00
Cu181  Cu    0.11978   0.49999   0.25000   0.00000  Uiso   1.00
Cu182  Cu    0.21355   0.50001   0.25000   0.00000  Uiso   1.00
O183   O     0.12706   0.43988   0.24999   0.00000  Uiso   1.00
O184   O     0.20625   0.43989   0.25000   0.00000  Uiso   1.00
O185   O     0.14640   0.50001   0.17451   0.00000  Uiso   1.00
O186   O     0.22559   0.50002   0.17451   0.00000  Uiso   1.00
C187   C     0.16668   0.42068   0.24995   0.00000  Uiso   1.00
C188   C     0.19250   0.50152   0.14990   0.00000  Uiso   1.00
C189   C     0.26796   0.50439   0.00879   0.00000  Uiso   1.00
H190   H     0.28708   0.47594   0.41197   0.00000  Uiso   1.00
H191   H     0.30473   0.51135   0.48529   0.00000  Uiso   1.00
C192   C     0.20695   0.50165   0.09261   0.00000  Uiso   1.00
C193   C     0.07844   0.47510   0.43102   0.00000  Uiso   1.00
C194   C     0.06414   0.46798   0.48437   0.00000  Uiso   1.00
C195   C     0.09807   0.47064   0.01272   0.00000  Uiso   1.00
C196   C     0.14835   0.47625   0.48708   0.00000  Uiso   1.00
C197   C     0.16364   0.47440   0.43189   0.00000  Uiso   1.00
C198   C     0.18402   0.48450   0.01378   0.00000  Uiso   1.00
C199   C     0.23360   0.48956   0.48481   0.00000  Uiso   1.00
C200   C     0.24850   0.47835   0.43248   0.00000  Uiso   1.00
C201   C     0.21396   0.46738   0.40727   0.00000  Uiso   1.00
C202   C     0.17201   0.48923   0.06794   0.00000  Uiso   1.00
C203   C     0.25450   0.51243   0.06235   0.00000  Uiso   1.00
C204   C     0.12803   0.48013   0.40425   0.00000  Uiso   1.00
H205   H     0.13555   0.48305   0.09196   0.00000  Uiso   1.00
H206   H     0.05055   0.47671   0.41076   0.00000  Uiso   1.00
H207   H     0.08377   0.46779   0.05437   0.00000  Uiso   1.00
H208   H     0.02610   0.46235   0.00439   0.00000  Uiso   1.00
C209   C     0.20924   0.64537   0.25019   0.00000  Uiso   1.00
H210   H     0.24253   0.62934   0.25027   0.00000  Uiso   1.00
C211   C     0.20925   0.35460   0.25017   0.00000  Uiso   1.00
H212   H     0.24254   0.37060   0.25023   0.00000  Uiso   1.00
C213   C     0.16667   0.37607   0.25004   0.00000  Uiso   1.00
C214   C     0.12408   0.35464   0.24999   0.00000  Uiso   1.00
H215   H     0.09079   0.37067   0.24989   0.00000  Uiso   1.00
C216   C     0.12407   0.64541   0.25002   0.00000  Uiso   1.00
H217   H     0.09077   0.62942   0.24997   0.00000  Uiso   1.00
C218   C     0.16665   0.62393   0.25009   0.00000  Uiso   1.00
C219   C     0.29943   0.52403   0.28419   0.00000  Uiso   1.00
H220   H     0.27343   0.54325   0.31158   0.00000  Uiso   1.00
C221   C     0.01571   0.52396   0.28423   0.00000  Uiso   1.00
H222   H     0.02716   0.54317   0.31163   0.00000  Uiso   1.00
N223   N     0.04931   0.49999   0.24998   0.00000  Uiso   1.00
C224   C     0.03390   0.47598   0.21579   0.00000  Uiso   1.00
H225   H     0.05989   0.45671   0.18844   0.00000  Uiso   1.00
C226   C     0.31759   0.47599   0.21581   0.00000  Uiso   1.00
H227   H     0.30612   0.45673   0.18849   0.00000  Uiso   1.00
N228   N     0.28402   0.50002   0.25000   0.00000  Uiso   1.00
N229   N     0.28807   0.53354   0.08469   0.00000  Uiso   1.00
O230   O     0.27256   0.56356   0.11737   0.00000  Uiso   1.00
O231   O     0.00161   0.52826   0.06560   0.00000  Uiso   1.00
Cl232  Cl    0.23418   0.43392   0.35355   0.00000  Uiso   1.00
O233   O     0.46042   0.56011   0.25000   0.00000  Uiso   1.00
O234   O     0.53961   0.56012   0.25000   0.00000  Uiso   1.00
C235   C     0.49999   0.57932   0.25005   0.00000  Uiso   1.00
O236   O     0.44108   0.49998   0.32549   0.00000  Uiso   1.00
O237   O     0.52027   0.49999   0.32549   0.00000  Uiso   1.00
C238   C     0.47473   0.49347   0.34903   0.00000  Uiso   1.00
Cu239  Cu    0.45311   0.49999   0.25000   0.00000  Uiso   1.00
Cu240  Cu    0.54689   0.50001   0.25000   0.00000  Uiso   1.00
O241   O     0.46039   0.43988   0.24999   0.00000  Uiso   1.00
O242   O     0.53958   0.43989   0.25000   0.00000  Uiso   1.00
O243   O     0.47973   0.50001   0.17451   0.00000  Uiso   1.00
O244   O     0.55892   0.50002   0.17451   0.00000  Uiso   1.00
C245   C     0.50001   0.42068   0.24995   0.00000  Uiso   1.00
C246   C     0.52584   0.50152   0.14990   0.00000  Uiso   1.00
C247   C     0.60129   0.50439   0.00879   0.00000  Uiso   1.00
H248   H     0.62041   0.47594   0.41197   0.00000  Uiso   1.00
H249   H     0.63806   0.51135   0.48529   0.00000  Uiso   1.00
C250   C     0.54028   0.50165   0.09261   0.00000  Uiso   1.00
C251   C     0.41177   0.47510   0.43102   0.00000  Uiso   1.00
C252   C     0.39747   0.46798   0.48437   0.00000  Uiso   1.00
C253   C     0.43141   0.47064   0.01272   0.00000  Uiso   1.00
C254   C     0.48168   0.47625   0.48708   0.00000  Uiso   1.00
C255   C     0.49698   0.47440   0.43189   0.00000  Uiso   1.00
C256   C     0.51736   0.48450   0.01378   0.00000  Uiso   1.00
C257   C     0.56693   0.48956   0.48481   0.00000  Uiso   1.00
C258   C     0.58183   0.47835   0.43248   0.00000  Uiso   1.00
C259   C     0.54729   0.46738   0.40727   0.00000  Uiso   1.00
C260   C     0.50534   0.48923   0.06794   0.00000  Uiso   1.00
C261   C     0.58783   0.51243   0.06235   0.00000  Uiso   1.00
C262   C     0.46136   0.48013   0.40425   0.00000  Uiso   1.00
H263   H     0.46888   0.48305   0.09196   0.00000  Uiso   1.00
H264   H     0.38389   0.47671   0.41076   0.00000  Uiso   1.00
H265   H     0.41710   0.46779   0.05437   0.00000  Uiso   1.00
H266   H     0.35943   0.46235   0.00439   0.00000  Uiso   1.00
C267   C     0.54257   0.64537   0.25019   0.00000  Uiso   1.00
H268   H     0.57586   0.62934   0.25027   0.00000  Uiso   1.00
C269   C     0.54258   0.35460   0.25017   0.00000  Uiso   1.00
H270   H     0.57587   0.37060   0.25023   0.00000  Uiso   1.00
C271   C     0.50001   0.37607   0.25004   0.00000  Uiso   1.00
C272   C     0.45741   0.35464   0.24999   0.00000  Uiso   1.00
H273   H     0.42412   0.37067   0.24989   0.00000  Uiso   1.00
C274   C     0.45740   0.64541   0.25002   0.00000  Uiso   1.00
H275   H     0.42410   0.62942   0.24997   0.00000  Uiso   1.00
C276   C     0.49998   0.62393   0.25009   0.00000  Uiso   1.00
C277   C     0.63276   0.52403   0.28419   0.00000  Uiso   1.00
H278   H     0.60676   0.54325   0.31158   0.00000  Uiso   1.00
C279   C     0.34905   0.52396   0.28423   0.00000  Uiso   1.00
H280   H     0.36049   0.54317   0.31163   0.00000  Uiso   1.00
N281   N     0.38265   0.49999   0.24998   0.00000  Uiso   1.00
C282   C     0.36724   0.47598   0.21579   0.00000  Uiso   1.00
H283   H     0.39322   0.45671   0.18844   0.00000  Uiso   1.00
C284   C     0.65093   0.47599   0.21581   0.00000  Uiso   1.00
H285   H     0.63945   0.45673   0.18849   0.00000  Uiso   1.00
N286   N     0.61735   0.50002   0.25000   0.00000  Uiso   1.00
N287   N     0.62141   0.53354   0.08469   0.00000  Uiso   1.00
O288   O     0.60590   0.56356   0.11737   0.00000  Uiso   1.00
O289   O     0.33495   0.52826   0.06560   0.00000  Uiso   1.00
Cl290  Cl    0.56752   0.43392   0.35355   0.00000  Uiso   1.00
O291   O     0.79375   0.56011   0.25000   0.00000  Uiso   1.00
O292   O     0.87294   0.56012   0.25000   0.00000  Uiso   1.00
C293   C     0.83332   0.57932   0.25005   0.00000  Uiso   1.00
O294   O     0.77441   0.49998   0.32549   0.00000  Uiso   1.00
O295   O     0.85360   0.49999   0.32549   0.00000  Uiso   1.00
C296   C     0.80807   0.49347   0.34903   0.00000  Uiso   1.00
Cu297  Cu    0.78645   0.49999   0.25000   0.00000  Uiso   1.00
Cu298  Cu    0.88022   0.50001   0.25000   0.00000  Uiso   1.00
O299   O     0.79373   0.43988   0.24999   0.00000  Uiso   1.00
O300   O     0.87292   0.43989   0.25000   0.00000  Uiso   1.00
O301   O     0.81306   0.50001   0.17451   0.00000  Uiso   1.00
O302   O     0.89225   0.50002   0.17451   0.00000  Uiso   1.00
C303   C     0.83335   0.42068   0.24995   0.00000  Uiso   1.00
C304   C     0.85917   0.50152   0.14990   0.00000  Uiso   1.00
C305   C     0.93462   0.50439   0.00879   0.00000  Uiso   1.00
H306   H     0.95375   0.47594   0.41197   0.00000  Uiso   1.00
H307   H     0.97140   0.51135   0.48529   0.00000  Uiso   1.00
C308   C     0.87361   0.50165   0.09261   0.00000  Uiso   1.00
C309   C     0.74510   0.47510   0.43102   0.00000  Uiso   1.00
C310   C     0.73081   0.46798   0.48437   0.00000  Uiso   1.00
C311   C     0.76474   0.47064   0.01272   0.00000  Uiso   1.00
C312   C     0.81501   0.47625   0.48708   0.00000  Uiso   1.00
C313   C     0.83031   0.47440   0.43189   0.00000  Uiso   1.00
C314   C     0.85069   0.48450   0.01378   0.00000  Uiso   1.00
C315   C     0.90026   0.48956   0.48481   0.00000  Uiso   1.00
C316   C     0.91516   0.47835   0.43248   0.00000  Uiso   1.00
C317   C     0.88062   0.46738   0.40727   0.00000  Uiso   1.00
C318   C     0.83867   0.48923   0.06794   0.00000  Uiso   1.00
C319   C     0.92117   0.51243   0.06235   0.00000  Uiso   1.00
C320   C     0.79470   0.48013   0.40425   0.00000  Uiso   1.00
H321   H     0.80222   0.48305   0.09196   0.00000  Uiso   1.00
H322   H     0.71722   0.47671   0.41076   0.00000  Uiso   1.00
H323   H     0.75043   0.46779   0.05437   0.00000  Uiso   1.00
H324   H     0.69276   0.46235   0.00439   0.00000  Uiso   1.00
C325   C     0.87590   0.64537   0.25019   0.00000  Uiso   1.00
H326   H     0.90920   0.62934   0.25027   0.00000  Uiso   1.00
C327   C     0.87591   0.35460   0.25017   0.00000  Uiso   1.00
H328   H     0.90921   0.37060   0.25023   0.00000  Uiso   1.00
C329   C     0.83334   0.37607   0.25004   0.00000  Uiso   1.00
C330   C     0.79075   0.35464   0.24999   0.00000  Uiso   1.00
H331   H     0.75746   0.37067   0.24989   0.00000  Uiso   1.00
C332   C     0.79073   0.64541   0.25002   0.00000  Uiso   1.00
H333   H     0.75743   0.62942   0.24997   0.00000  Uiso   1.00
C334   C     0.83332   0.62393   0.25009   0.00000  Uiso   1.00
C335   C     0.96610   0.52403   0.28419   0.00000  Uiso   1.00
H336   H     0.94009   0.54325   0.31158   0.00000  Uiso   1.00
C337   C     0.68238   0.52396   0.28423   0.00000  Uiso   1.00
H338   H     0.69383   0.54317   0.31163   0.00000  Uiso   1.00
N339   N     0.71598   0.49999   0.24998   0.00000  Uiso   1.00
C340   C     0.70057   0.47598   0.21579   0.00000  Uiso   1.00
H341   H     0.72656   0.45671   0.18844   0.00000  Uiso   1.00
C342   C     0.98426   0.47599   0.21581   0.00000  Uiso   1.00
H343   H     0.97279   0.45673   0.18849   0.00000  Uiso   1.00
N344   N     0.95069   0.50002   0.25000   0.00000  Uiso   1.00
N345   N     0.95474   0.53354   0.08469   0.00000  Uiso   1.00
O346   O     0.93923   0.56356   0.11737   0.00000  Uiso   1.00
O347   O     0.66828   0.52826   0.06560   0.00000  Uiso   1.00
Cl348  Cl    0.90085   0.43392   0.35355   0.00000  Uiso   1.00
O349   O     0.12708   0.89345   0.25000   0.00000  Uiso   1.00
O350   O     0.20627   0.89346   0.25000   0.00000  Uiso   1.00
C351   C     0.16666   0.91265   0.25005   0.00000  Uiso   1.00
O352   O     0.10775   0.83332   0.32549   0.00000  Uiso   1.00
O353   O     0.18694   0.83333   0.32549   0.00000  Uiso   1.00
C354   C     0.14140   0.82680   0.34903   0.00000  Uiso   1.00
Cu355  Cu    0.11978   0.83333   0.25000   0.00000  Uiso   1.00
Cu356  Cu    0.21355   0.83334   0.25000   0.00000  Uiso   1.00
O357   O     0.12706   0.77321   0.24999   0.00000  Uiso   1.00
O358   O     0.20625   0.77322   0.25000   0.00000  Uiso   1.00
O359   O     0.14640   0.83334   0.17451   0.00000  Uiso   1.00
O360   O     0.22559   0.83335   0.17451   0.00000  Uiso   1.00
C361   C     0.16668   0.75401   0.24995   0.00000  Uiso   1.00
C362   C     0.19250   0.83485   0.14990   0.00000  Uiso   1.00
C363   C     0.26796   0.83773   0.00879   0.00000  Uiso   1.00
H364   H     0.28708   0.80927   0.41197   0.00000  Uiso   1.00
H365   H     0.30473   0.84468   0.48529   0.00000  Uiso   1.00
C366   C     0.20695   0.83498   0.09261   0.00000  Uiso   1.00
C367   C     0.07844   0.80843   0.43102   0.00000  Uiso   1.00
C368   C     0.06414   0.80131   0.48437   0.00000  Uiso   1.00
C369   C     0.09807   0.80397   0.01272   0.00000  Uiso   1.00
C370   C     0.14835   0.80958   0.48708   0.00000  Uiso   1.00
C371   C     0.16364   0.80774   0.43189   0.00000  Uiso   1.00
C372   C     0.18402   0.81784   0.01378   0.00000  Uiso   1.00
C373   C     0.23360   0.82290   0.48481   0.00000  Uiso   1.00
C374   C     0.24850   0.81168   0.43248   0.00000  Uiso   1.00
C375   C     0.21396   0.80071   0.40727   0.00000  Uiso   1.00
C376   C     0.17201   0.82257   0.06794   0.00000  Uiso   1.00
C377   C     0.25450   0.84576   0.06235   0.00000  Uiso   1.00
C378   C     0.12803   0.81347   0.40425   0.00000  Uiso   1.00
H379   H     0.13555   0.81638   0.09196   0.00000  Uiso   1.00
H380   H     0.05055   0.81004   0.41076   0.00000  Uiso   1.00
H381   H     0.08377   0.80112   0.05437   0.00000  Uiso   1.00
H382   H     0.02610   0.79569   0.00439   0.00000  Uiso   1.00
C383   C     0.20924   0.97870   0.25019   0.00000  Uiso   1.00
H384   H     0.24253   0.96267   0.25027   0.00000  Uiso   1.00
C385   C     0.20925   0.68794   0.25017   0.00000  Uiso   1.00
H386   H     0.24254   0.70393   0.25023   0.00000  Uiso   1.00
C387   C     0.16667   0.70941   0.25004   0.00000  Uiso   1.00
C388   C     0.12408   0.68798   0.24999   0.00000  Uiso   1.00
H389   H     0.09079   0.70400   0.24989   0.00000  Uiso   1.00
C390   C     0.12407   0.97874   0.25002   0.00000  Uiso   1.00
H391   H     0.09077   0.96275   0.24997   0.00000  Uiso   1.00
C392   C     0.16665   0.95727   0.25009   0.00000  Uiso   1.00
C393   C     0.29943   0.85736   0.28419   0.00000  Uiso   1.00
H394   H     0.27343   0.87659   0.31158   0.00000  Uiso   1.00
C395   C     0.01571   0.85730   0.28423   0.00000  Uiso   1.00
H396   H     0.02716   0.87650   0.31163   0.00000  Uiso   1.00
N397   N     0.04931   0.83332   0.24998   0.00000  Uiso   1.00
C398   C     0.03390   0.80932   0.21579   0.00000  Uiso   1.00
H399   H     0.05989   0.79004   0.18844   0.00000  Uiso   1.00
C400   C     0.31759   0.80932   0.21581   0.00000  Uiso   1.00
H401   H     0.30612   0.79006   0.18849   0.00000  Uiso   1.00
N402   N     0.28402   0.83335   0.25000   0.00000  Uiso   1.00
N403   N     0.28807   0.86687   0.08469   0.00000  Uiso   1.00
O404   O     0.27256   0.89690   0.11737   0.00000  Uiso   1.00
O405   O     0.00161   0.86159   0.06560   0.00000  Uiso   1.00
Cl406  Cl    0.23418   0.76725   0.35355   0.00000  Uiso   1.00
O407   O     0.46042   0.89345   0.25000   0.00000  Uiso   1.00
O408   O     0.53961   0.89346   0.25000   0.00000  Uiso   1.00
C409   C     0.49999   0.91265   0.25005   0.00000  Uiso   1.00
O410   O     0.44108   0.83332   0.32549   0.00000  Uiso   1.00
O411   O     0.52027   0.83333   0.32549   0.00000  Uiso   1.00
C412   C     0.47473   0.82680   0.34903   0.00000  Uiso   1.00
Cu413  Cu    0.45311   0.83333   0.25000   0.00000  Uiso   1.00
Cu414  Cu    0.54689   0.83334   0.25000   0.00000  Uiso   1.00
O415   O     0.46039   0.77321   0.24999   0.00000  Uiso   1.00
O416   O     0.53958   0.77322   0.25000   0.00000  Uiso   1.00
O417   O     0.47973   0.83334   0.17451   0.00000  Uiso   1.00
O418   O     0.55892   0.83335   0.17451   0.00000  Uiso   1.00
C419   C     0.50001   0.75401   0.24995   0.00000  Uiso   1.00
C420   C     0.52584   0.83485   0.14990   0.00000  Uiso   1.00
C421   C     0.60129   0.83773   0.00879   0.00000  Uiso   1.00
H422   H     0.62041   0.80927   0.41197   0.00000  Uiso   1.00
H423   H     0.63806   0.84468   0.48529   0.00000  Uiso   1.00
C424   C     0.54028   0.83498   0.09261   0.00000  Uiso   1.00
C425   C     0.41177   0.80843   0.43102   0.00000  Uiso   1.00
C426   C     0.39747   0.80131   0.48437   0.00000  Uiso   1.00
C427   C     0.43141   0.80397   0.01272   0.00000  Uiso   1.00
C428   C     0.48168   0.80958   0.48708   0.00000  Uiso   1.00
C429   C     0.49698   0.80774   0.43189   0.00000  Uiso   1.00
C430   C     0.51736   0.81784   0.01378   0.00000  Uiso   1.00
C431   C     0.56693   0.82290   0.48481   0.00000  Uiso   1.00
C432   C     0.58183   0.81168   0.43248   0.00000  Uiso   1.00
C433   C     0.54729   0.80071   0.40727   0.00000  Uiso   1.00
C434   C     0.50534   0.82257   0.06794   0.00000  Uiso   1.00
C435   C     0.58783   0.84576   0.06235   0.00000  Uiso   1.00
C436   C     0.46136   0.81347   0.40425   0.00000  Uiso   1.00
H437   H     0.46888   0.81638   0.09196   0.00000  Uiso   1.00
H438   H     0.38389   0.81004   0.41076   0.00000  Uiso   1.00
H439   H     0.41710   0.80112   0.05437   0.00000  Uiso   1.00
H440   H     0.35943   0.79569   0.00439   0.00000  Uiso   1.00
C441   C     0.54257   0.97870   0.25019   0.00000  Uiso   1.00
H442   H     0.57586   0.96267   0.25027   0.00000  Uiso   1.00
C443   C     0.54258   0.68794   0.25017   0.00000  Uiso   1.00
H444   H     0.57587   0.70393   0.25023   0.00000  Uiso   1.00
C445   C     0.50001   0.70941   0.25004   0.00000  Uiso   1.00
C446   C     0.45741   0.68798   0.24999   0.00000  Uiso   1.00
H447   H     0.42412   0.70400   0.24989   0.00000  Uiso   1.00
C448   C     0.45740   0.97874   0.25002   0.00000  Uiso   1.00
H449   H     0.42410   0.96275   0.24997   0.00000  Uiso   1.00
C450   C     0.49998   0.95727   0.25009   0.00000  Uiso   1.00
C451   C     0.63276   0.85736   0.28419   0.00000  Uiso   1.00
H452   H     0.60676   0.87659   0.31158   0.00000  Uiso   1.00
C453   C     0.34905   0.85730   0.28423   0.00000  Uiso   1.00
H454   H     0.36049   0.87650   0.31163   0.00000  Uiso   1.00
N455   N     0.38265   0.83332   0.24998   0.00000  Uiso   1.00
C456   C     0.36724   0.80932   0.21579   0.00000  Uiso   1.00
H457   H     0.39322   0.79004   0.18844   0.00000  Uiso   1.00
C458   C     0.65093   0.80932   0.21581   0.00000  Uiso   1.00
H459   H     0.63945   0.79006   0.18849   0.00000  Uiso   1.00
N460   N     0.61735   0.83335   0.25000   0.00000  Uiso   1.00
N461   N     0.62141   0.86687   0.08469   0.00000  Uiso   1.00
O462   O     0.60590   0.89690   0.11737   0.00000  Uiso   1.00
O463   O     0.33495   0.86159   0.06560   0.00000  Uiso   1.00
Cl464  Cl    0.56752   0.76725   0.35355   0.00000  Uiso   1.00
O465   O     0.79375   0.89345   0.25000   0.00000  Uiso   1.00
O466   O     0.87294   0.89346   0.25000   0.00000  Uiso   1.00
C467   C     0.83332   0.91265   0.25005   0.00000  Uiso   1.00
O468   O     0.77441   0.83332   0.32549   0.00000  Uiso   1.00
O469   O     0.85360   0.83333   0.32549   0.00000  Uiso   1.00
C470   C     0.80807   0.82680   0.34903   0.00000  Uiso   1.00
Cu471  Cu    0.78645   0.83333   0.25000   0.00000  Uiso   1.00
Cu472  Cu    0.88022   0.83334   0.25000   0.00000  Uiso   1.00
O473   O     0.79373   0.77321   0.24999   0.00000  Uiso   1.00
O474   O     0.87292   0.77322   0.25000   0.00000  Uiso   1.00
O475   O     0.81306   0.83334   0.17451   0.00000  Uiso   1.00
O476   O     0.89225   0.83335   0.17451   0.00000  Uiso   1.00
C477   C     0.83335   0.75401   0.24995   0.00000  Uiso   1.00
C478   C     0.85917   0.83485   0.14990   0.00000  Uiso   1.00
C479   C     0.93462   0.83773   0.00879   0.00000  Uiso   1.00
H480   H     0.95375   0.80927   0.41197   0.00000  Uiso   1.00
H481   H     0.97140   0.84468   0.48529   0.00000  Uiso   1.00
C482   C     0.87361   0.83498   0.09261   0.00000  Uiso   1.00
C483   C     0.74510   0.80843   0.43102   0.00000  Uiso   1.00
C484   C     0.73081   0.80131   0.48437   0.00000  Uiso   1.00
C485   C     0.76474   0.80397   0.01272   0.00000  Uiso   1.00
C486   C     0.81501   0.80958   0.48708   0.00000  Uiso   1.00
C487   C     0.83031   0.80774   0.43189   0.00000  Uiso   1.00
C488   C     0.85069   0.81784   0.01378   0.00000  Uiso   1.00
C489   C     0.90026   0.82290   0.48481   0.00000  Uiso   1.00
C490   C     0.91516   0.81168   0.43248   0.00000  Uiso   1.00
C491   C     0.88062   0.80071   0.40727   0.00000  Uiso   1.00
C492   C     0.83867   0.82257   0.06794   0.00000  Uiso   1.00
C493   C     0.92117   0.84576   0.06235   0.00000  Uiso   1.00
C494   C     0.79470   0.81347   0.40425   0.00000  Uiso   1.00
H495   H     0.80222   0.81638   0.09196   0.00000  Uiso   1.00
H496   H     0.71722   0.81004   0.41076   0.00000  Uiso   1.00
H497   H     0.75043   0.80112   0.05437   0.00000  Uiso   1.00
H498   H     0.69276   0.79569   0.00439   0.00000  Uiso   1.00
C499   C     0.87590   0.97870   0.25019   0.00000  Uiso   1.00
H500   H     0.90920   0.96267   0.25027   0.00000  Uiso   1.00
C501   C     0.87591   0.68794   0.25017   0.00000  Uiso   1.00
H502   H     0.90921   0.70393   0.25023   0.00000  Uiso   1.00
C503   C     0.83334   0.70941   0.25004   0.00000  Uiso   1.00
C504   C     0.79075   0.68798   0.24999   0.00000  Uiso   1.00
H505   H     0.75746   0.70400   0.24989   0.00000  Uiso   1.00
C506   C     0.79073   0.97874   0.25002   0.00000  Uiso   1.00
H507   H     0.75743   0.96275   0.24997   0.00000  Uiso   1.00
C508   C     0.83332   0.95727   0.25009   0.00000  Uiso   1.00
C509   C     0.96610   0.85736   0.28419   0.00000  Uiso   1.00
H510   H     0.94009   0.87659   0.31158   0.00000  Uiso   1.00
C511   C     0.68238   0.85730   0.28423   0.00000  Uiso   1.00
H512   H     0.69383   0.87650   0.31163   0.00000  Uiso   1.00
N513   N     0.71598   0.83332   0.24998   0.00000  Uiso   1.00
C514   C     0.70057   0.80932   0.21579   0.00000  Uiso   1.00
H515   H     0.72656   0.79004   0.18844   0.00000  Uiso   1.00
C516   C     0.98426   0.80932   0.21581   0.00000  Uiso   1.00
H517   H     0.97279   0.79006   0.18849   0.00000  Uiso   1.00
N518   N     0.95069   0.83335   0.25000   0.00000  Uiso   1.00
N519   N     0.95474   0.86687   0.08469   0.00000  Uiso   1.00
O520   O     0.93923   0.89690   0.11737   0.00000  Uiso   1.00
O521   O     0.66828   0.86159   0.06560   0.00000  Uiso   1.00
Cl522  Cl    0.90085   0.76725   0.35355   0.00000  Uiso   1.00
O523   O     0.12708   0.22678   0.75000   0.00000  Uiso   1.00
O524   O     0.20627   0.22679   0.75000   0.00000  Uiso   1.00
C525   C     0.16666   0.24599   0.75005   0.00000  Uiso   1.00
O526   O     0.10775   0.16665   0.82549   0.00000  Uiso   1.00
O527   O     0.18694   0.16666   0.82549   0.00000  Uiso   1.00
C528   C     0.14140   0.16013   0.84903   0.00000  Uiso   1.00
Cu529  Cu    0.11978   0.16666   0.75000   0.00000  Uiso   1.00
Cu530  Cu    0.21355   0.16667   0.75000   0.00000  Uiso   1.00
O531   O     0.12706   0.10654   0.74999   0.00000  Uiso   1.00
O532   O     0.20625   0.10655   0.75000   0.00000  Uiso   1.00
O533   O     0.14640   0.16667   0.67451   0.00000  Uiso   1.00
O534   O     0.22559   0.16668   0.67451   0.00000  Uiso   1.00
C535   C     0.16668   0.08734   0.74995   0.00000  Uiso   1.00
C536   C     0.19250   0.16818   0.64990   0.00000  Uiso   1.00
C537   C     0.26796   0.17106   0.50879   0.00000  Uiso   1.00
H538   H     0.28708   0.14261   0.91197   0.00000  Uiso   1.00
H539   H     0.30473   0.17801   0.98529   0.00000  Uiso   1.00
C540   C     0.20695   0.16831   0.59261   0.00000  Uiso   1.00
C541   C     0.07844   0.14176   0.93102   0.00000  Uiso   1.00
C542   C     0.06414   0.13465   0.98437   0.00000  Uiso   1.00
C543   C     0.09807   0.13731   0.51272   0.00000  Uiso   1.00
C544   C     0.14835   0.14291   0.98708   0.00000  Uiso   1.00
C545   C     0.16364   0.14107   0.93189   0.00000  Uiso   1.00
C546   C     0.18402   0.15117   0.51378   0.00000  Uiso   1.00
C547   C     0.23360   0.15623   0.98481   0.00000  Uiso   1.00
C548   C     0.24850   0.14501   0.93248   0.00000  Uiso   1.00
C549   C     0.21396   0.13405   0.90727   0.00000  Uiso   1.00
C550   C     0.17201   0.15590   0.56794   0.00000  Uiso   1.00
C551   C     0.25450   0.17909   0.56235   0.00000  Uiso   1.00
C552   C     0.12803   0.14680   0.90425   0.00000  Uiso   1.00
H553   H     0.13555   0.14971   0.59196   0.00000  Uiso   1.00
H554   H     0.05055   0.14338   0.91076   0.00000  Uiso   1.00
H555   H     0.08377   0.13446   0.55437   0.00000  Uiso   1.00
H556   H     0.02610   0.12902   0.50439   0.00000  Uiso   1.00
C557   C     0.20924   0.31203   0.75019   0.00000  Uiso   1.00
H558   H     0.24253   0.29600   0.75027   0.00000  Uiso   1.00
C559   C     0.20925   0.02127   0.75017   0.00000  Uiso   1.00
H560   H     0.24254   0.03727   0.75023   0.00000  Uiso   1.00
C561   C     0.16667   0.04274   0.75004   0.00000  Uiso   1.00
C562   C     0.12408   0.02131   0.74999   0.00000  Uiso   1.00
H563   H     0.09079   0.03734   0.74989   0.00000  Uiso   1.00
C564   C     0.12407   0.31208   0.75002   0.00000  Uiso   1.00
H565   H     0.09077   0.29608   0.74997   0.00000  Uiso   1.00
C566   C     0.16665   0.29060   0.75009   0.00000  Uiso   1.00
C567   C     0.29943   0.19069   0.78419   0.00000  Uiso   1.00
H568   H     0.27343   0.20992   0.81158   0.00000  Uiso   1.00
C569   C     0.01571   0.19063   0.78423   0.00000  Uiso   1.00
H570   H     0.02716   0.20983   0.81163   0.00000  Uiso   1.00
N571   N     0.04931   0.16666   0.74998   0.00000  Uiso   1.00
C572   C     0.03390   0.14265   0.71579   0.00000  Uiso   1.00
H573   H     0.05989   0.12338   0.68844   0.00000  Uiso   1.00
C574   C     0.31759   0.14265   0.71581   0.00000  Uiso   1.00
H575   H     0.30612   0.12340   0.68849   0.00000  Uiso   1.00
N576   N     0.28402   0.16669   0.75000   0.00000  Uiso   1.00
N577   N     0.28807   0.20020   0.58469   0.00000  Uiso   1.00
O578   O     0.27256   0.23023   0.61737   0.00000  Uiso   1.00
O579   O     0.00161   0.19492   0.56560   0.00000  Uiso   1.00
Cl580  Cl    0.23418   0.10058   0.85355   0.00000  Uiso   1.00
O581   O     0.46042   0.22678   0.75000   0.00000  Uiso   1.00
O582   O     0.53961   0.22679   0.75000   0.00000  Uiso   1.00
C583   C     0.49999   0.24599   0.75005   0.00000  Uiso   1.00
O584   O     0.44108   0.16665   0.82549   0.00000  Uiso   1.00
O585   O     0.52027   0.16666   0.82549   0.00000  Uiso   1.00
C586   C     0.47473   0.16013   0.84903   0.00000  Uiso   1.00
Cu587  Cu    0.45311   0.16666   0.75000   0.00000  Uiso   1.00
Cu588  Cu    0.54689   0.16667   0.75000   0.00000  Uiso   1.00
O589   O     0.46039   0.10654   0.74999   0.00000  Uiso   1.00
O590   O     0.53958   0.10655   0.75000   0.00000  Uiso   1.00
O591   O     0.47973   0.16667   0.67451   0.00000  Uiso   1.00
O592   O     0.55892   0.16668   0.67451   0.00000  Uiso   1.00
C593   C     0.50001   0.08734   0.74995   0.00000  Uiso   1.00
C594   C     0.52584   0.16818   0.64990   0.00000  Uiso   1.00
C595   C     0.60129   0.17106   0.50879   0.00000  Uiso   1.00
H596   H     0.62041   0.14261   0.91197   0.00000  Uiso   1.00
H597   H     0.63806   0.17801   0.98529   0.00000  Uiso   1.00
C598   C     0.54028   0.16831   0.59261   0.00000  Uiso   1.00
C599   C     0.41177   0.14176   0.93102   0.00000  Uiso   1.00
C600   C     0.39747   0.13465   0.98437   0.00000  Uiso   1.00
C601   C     0.43141   0.13731   0.51272   0.00000  Uiso   1.00
C602   C     0.48168   0.14291   0.98708   0.00000  Uiso   1.00
C603   C     0.49698   0.14107   0.93189   0.00000  Uiso   1.00
C604   C     0.51736   0.15117   0.51378   0.00000  Uiso   1.00
C605   C     0.56693   0.15623   0.98481   0.00000  Uiso   1.00
C606   C     0.58183   0.14501   0.93248   0.00000  Uiso   1.00
C607   C     0.54729   0.13405   0.90727   0.00000  Uiso   1.00
C608   C     0.50534   0.15590   0.56794   0.00000  Uiso   1.00
C609   C     0.58783   0.17909   0.56235   0.00000  Uiso   1.00
C610   C     0.46136   0.14680   0.90425   0.00000  Uiso   1.00
H611   H     0.46888   0.14971   0.59196   0.00000  Uiso   1.00
H612   H     0.38389   0.14338   0.91076   0.00000  Uiso   1.00
H613   H     0.41710   0.13446   0.55437   0.00000  Uiso   1.00
H614   H     0.35943   0.12902   0.50439   0.00000  Uiso   1.00
C615   C     0.54257   0.31203   0.75019   0.00000  Uiso   1.00
H616   H     0.57586   0.29600   0.75027   0.00000  Uiso   1.00
C617   C     0.54258   0.02127   0.75017   0.00000  Uiso   1.00
H618   H     0.57587   0.03727   0.75023   0.00000  Uiso   1.00
C619   C     0.50001   0.04274   0.75004   0.00000  Uiso   1.00
C620   C     0.45741   0.02131   0.74999   0.00000  Uiso   1.00
H621   H     0.42412   0.03734   0.74989   0.00000  Uiso   1.00
C622   C     0.45740   0.31208   0.75002   0.00000  Uiso   1.00
H623   H     0.42410   0.29608   0.74997   0.00000  Uiso   1.00
C624   C     0.49998   0.29060   0.75009   0.00000  Uiso   1.00
C625   C     0.63276   0.19069   0.78419   0.00000  Uiso   1.00
H626   H     0.60676   0.20992   0.81158   0.00000  Uiso   1.00
C627   C     0.34905   0.19063   0.78423   0.00000  Uiso   1.00
H628   H     0.36049   0.20983   0.81163   0.00000  Uiso   1.00
N629   N     0.38265   0.16666   0.74998   0.00000  Uiso   1.00
C630   C     0.36724   0.14265   0.71579   0.00000  Uiso   1.00
H631   H     0.39322   0.12338   0.68844   0.00000  Uiso   1.00
C632   C     0.65093   0.14265   0.71581   0.00000  Uiso   1.00
H633   H     0.63945   0.12340   0.68849   0.00000  Uiso   1.00
N634   N     0.61735   0.16669   0.75000   0.00000  Uiso   1.00
N635   N     0.62141   0.20020   0.58469   0.00000  Uiso   1.00
O636   O     0.60590   0.23023   0.61737   0.00000  Uiso   1.00
O637   O     0.33495   0.19492   0.56560   0.00000  Uiso   1.00
Cl638  Cl    0.56752   0.10058   0.85355   0.00000  Uiso   1.00
O639   O     0.79375   0.22678   0.75000   0.00000  Uiso   1.00
O640   O     0.87294   0.22679   0.75000   0.00000  Uiso   1.00
C641   C     0.83332   0.24599   0.75005   0.00000  Uiso   1.00
O642   O     0.77441   0.16665   0.82549   0.00000  Uiso   1.00
O643   O     0.85360   0.16666   0.82549   0.00000  Uiso   1.00
C644   C     0.80807   0.16013   0.84903   0.00000  Uiso   1.00
Cu645  Cu    0.78645   0.16666   0.75000   0.00000  Uiso   1.00
Cu646  Cu    0.88022   0.16667   0.75000   0.00000  Uiso   1.00
O647   O     0.79373   0.10654   0.74999   0.00000  Uiso   1.00
O648   O     0.87292   0.10655   0.75000   0.00000  Uiso   1.00
O649   O     0.81306   0.16667   0.67451   0.00000  Uiso   1.00
O650   O     0.89225   0.16668   0.67451   0.00000  Uiso   1.00
C651   C     0.83335   0.08734   0.74995   0.00000  Uiso   1.00
C652   C     0.85917   0.16818   0.64990   0.00000  Uiso   1.00
C653   C     0.93462   0.17106   0.50879   0.00000  Uiso   1.00
H654   H     0.95375   0.14261   0.91197   0.00000  Uiso   1.00
H655   H     0.97140   0.17801   0.98529   0.00000  Uiso   1.00
C656   C     0.87361   0.16831   0.59261   0.00000  Uiso   1.00
C657   C     0.74510   0.14176   0.93102   0.00000  Uiso   1.00
C658   C     0.73081   0.13465   0.98437   0.00000  Uiso   1.00
C659   C     0.76474   0.13731   0.51272   0.00000  Uiso   1.00
C660   C     0.81501   0.14291   0.98708   0.00000  Uiso   1.00
C661   C     0.83031   0.14107   0.93189   0.00000  Uiso   1.00
C662   C     0.85069   0.15117   0.51378   0.00000  Uiso   1.00
C663   C     0.90026   0.15623   0.98481   0.00000  Uiso   1.00
C664   C     0.91516   0.14501   0.93248   0.00000  Uiso   1.00
C665   C     0.88062   0.13405   0.90727   0.00000  Uiso   1.00
C666   C     0.83867   0.15590   0.56794   0.00000  Uiso   1.00
C667   C     0.92117   0.17909   0.56235   0.00000  Uiso   1.00
C668   C     0.79470   0.14680   0.90425   0.00000  Uiso   1.00
H669   H     0.80222   0.14971   0.59196   0.00000  Uiso   1.00
H670   H     0.71722   0.14338   0.91076   0.00000  Uiso   1.00
H671   H     0.75043   0.13446   0.55437   0.00000  Uiso   1.00
H672   H     0.69276   0.12902   0.50439   0.00000  Uiso   1.00
C673   C     0.87590   0.31203   0.75019   0.00000  Uiso   1.00
H674   H     0.90920   0.29600   0.75027   0.00000  Uiso   1.00
C675   C     0.87591   0.02127   0.75017   0.00000  Uiso   1.00
H676   H     0.90921   0.03727   0.75023   0.00000  Uiso   1.00
C677   C     0.83334   0.04274   0.75004   0.00000  Uiso   1.00
C678   C     0.79075   0.02131   0.74999   0.00000  Uiso   1.00
H679   H     0.75746   0.03734   0.74989   0.00000  Uiso   1.00
C680   C     0.79073   0.31208   0.75002   0.00000  Uiso   1.00
H681   H     0.75743   0.29608   0.74997   0.00000  Uiso   1.00
C682   C     0.83332   0.29060   0.75009   0.00000  Uiso   1.00
C683   C     0.96610   0.19069   0.78419   0.00000  Uiso   1.00
H684   H     0.94009   0.20992   0.81158   0.00000  Uiso   1.00
C685   C     0.68238   0.19063   0.78423   0.00000  Uiso   1.00
H686   H     0.69383   0.20983   0.81163   0.00000  Uiso   1.00
N687   N     0.71598   0.16666   0.74998   0.00000  Uiso   1.00
C688   C     0.70057   0.14265   0.71579   0.00000  Uiso   1.00
H689   H     0.72656   0.12338   0.68844   0.00000  Uiso   1.00
C690   C     0.98426   0.14265   0.71581   0.00000  Uiso   1.00
H691   H     0.97279   0.12340   0.68849   0.00000  Uiso   1.00
N692   N     0.95069   0.16669   0.75000   0.00000  Uiso   1.00
N693   N     0.95474   0.20020   0.58469   0.00000  Uiso   1.00
O694   O     0.93923   0.23023   0.61737   0.00000  Uiso   1.00
O695   O     0.66828   0.19492   0.56560   0.00000  Uiso   1.00
Cl696  Cl    0.90085   0.10058   0.85355   0.00000  Uiso   1.00
O697   O     0.12708   0.56011   0.75000   0.00000  Uiso   1.00
O698   O     0.20627   0.56012   0.75000   0.00000  Uiso   1.00
C699   C     0.16666   0.57932   0.75005   0.00000  Uiso   1.00
O700   O     0.10775   0.49998   0.82549   0.00000  Uiso   1.00
O701   O     0.18694   0.49999   0.82549   0.00000  Uiso   1.00
C702   C     0.14140   0.49347   0.84903   0.00000  Uiso   1.00
Cu703  Cu    0.11978   0.49999   0.75000   0.00000  Uiso   1.00
Cu704  Cu    0.21355   0.50001   0.75000   0.00000  Uiso   1.00
O705   O     0.12706   0.43988   0.74999   0.00000  Uiso   1.00
O706   O     0.20625   0.43989   0.75000   0.00000  Uiso   1.00
O707   O     0.14640   0.50001   0.67451   0.00000  Uiso   1.00
O708   O     0.22559   0.50002   0.67451   0.00000  Uiso   1.00
C709   C     0.16668   0.42068   0.74995   0.00000  Uiso   1.00
C710   C     0.19250   0.50152   0.64990   0.00000  Uiso   1.00
C711   C     0.26796   0.50439   0.50879   0.00000  Uiso   1.00
H712   H     0.28708   0.47594   0.91197   0.00000  Uiso   1.00
H713   H     0.30473   0.51135   0.98529   0.00000  Uiso   1.00
C714   C     0.20695   0.50165   0.59261   0.00000  Uiso   1.00
C715   C     0.07844   0.47510   0.93102   0.00000  Uiso   1.00
C716   C     0.06414   0.46798   0.98437   0.00000  Uiso   1.00
C717   C     0.09807   0.47064   0.51272   0.00000  Uiso   1.00
C718   C     0.14835   0.47625   0.98708   0.00000  Uiso   1.00
C719   C     0.16364   0.47440   0.93189   0.00000  Uiso   1.00
C720   C     0.18402   0.48450   0.51378   0.00000  Uiso   1.00
C721   C     0.23360   0.48956   0.98481   0.00000  Uiso   1.00
C722   C     0.24850   0.47835   0.93248   0.00000  Uiso   1.00
C723   C     0.21396   0.46738   0.90727   0.00000  Uiso   1.00
C724   C     0.17201   0.48923   0.56794   0.00000  Uiso   1.00
C725   C     0.25450   0.51243   0.56235   0.00000  Uiso   1.00
C726   C     0.12803   0.48013   0.90425   0.00000  Uiso   1.00
H727   H     0.13555   0.48305   0.59196   0.00000  Uiso   1.00
H728   H     0.05055   0.47671   0.91076   0.00000  Uiso   1.00
H729   H     0.08377   0.46779   0.55437   0.00000  Uiso   1.00
H730   H     0.02610   0.46235   0.50439   0.00000  Uiso   1.00
C731   C     0.20924   0.64537   0.75019   0.00000  Uiso   1.00
H732   H     0.24253   0.62934   0.75027   0.00000  Uiso   1.00
C733   C     0.20925   0.35460   0.75017   0.00000  Uiso   1.00
H734   H     0.24254   0.37060   0.75023   0.00000  Uiso   1.00
C735   C     0.16667   0.37607   0.75004   0.00000  Uiso   1.00
C736   C     0.12408   0.35464   0.74999   0.00000  Uiso   1.00
H737   H     0.09079   0.37067   0.74989   0.00000  Uiso   1.00
C738   C     0.12407   0.64541   0.75002   0.00000  Uiso   1.00
H739   H     0.09077   0.62942   0.74997   0.00000  Uiso   1.00
C740   C     0.16665   0.62393   0.75009   0.00000  Uiso   1.00
C741   C     0.29943   0.52403   0.78419   0.00000  Uiso   1.00
H742   H     0.27343   0.54325   0.81158   0.00000  Uiso   1.00
C743   C     0.01571   0.52396   0.78423   0.00000  Uiso   1.00
H744   H     0.02716   0.54317   0.81163   0.00000  Uiso   1.00
N745   N     0.04931   0.49999   0.74998   0.00000  Uiso   1.00
C746   C     0.03390   0.47598   0.71579   0.00000  Uiso   1.00
H747   H     0.05989   0.45671   0.68844   0.00000  Uiso   1.00
C748   C     0.31759   0.47599   0.71581   0.00000  Uiso   1.00
H749   H     0.30612   0.45673   0.68849   0.00000  Uiso   1.00
N750   N     0.28402   0.50002   0.75000   0.00000  Uiso   1.00
N751   N     0.28807   0.53354   0.58469   0.00000  Uiso   1.00
O752   O     0.27256   0.56356   0.61737   0.00000  Uiso   1.00
O753   O     0.00161   0.52826   0.56560   0.00000  Uiso   1.00
Cl754  Cl    0.23418   0.43392   0.85355   0.00000  Uiso   1.00
O755   O     0.46042   0.56011   0.75000   0.00000  Uiso   1.00
O756   O     0.53961   0.56012   0.75000   0.00000  Uiso   1.00
C757   C     0.49999   0.57932   0.75005   0.00000  Uiso   1.00
O758   O     0.44108   0.49998   0.82549   0.00000  Uiso   1.00
O759   O     0.52027   0.49999   0.82549   0.00000  Uiso   1.00
C760   C     0.47473   0.49347   0.84903   0.00000  Uiso   1.00
Cu761  Cu    0.45311   0.49999   0.75000   0.00000  Uiso   1.00
Cu762  Cu    0.54689   0.50001   0.75000   0.00000  Uiso   1.00
O763   O     0.46039   0.43988   0.74999   0.00000  Uiso   1.00
O764   O     0.53958   0.43989   0.75000   0.00000  Uiso   1.00
O765   O     0.47973   0.50001   0.67451   0.00000  Uiso   1.00
O766   O     0.55892   0.50002   0.67451   0.00000  Uiso   1.00
C767   C     0.50001   0.42068   0.74995   0.00000  Uiso   1.00
C768   C     0.52584   0.50152   0.64990   0.00000  Uiso   1.00
C769   C     0.60129   0.50439   0.50879   0.00000  Uiso   1.00
H770   H     0.62041   0.47594   0.91197   0.00000  Uiso   1.00
H771   H     0.63806   0.51135   0.98529   0.00000  Uiso   1.00
C772   C     0.54028   0.50165   0.59261   0.00000  Uiso   1.00
C773   C     0.41177   0.47510   0.93102   0.00000  Uiso   1.00
C774   C     0.39747   0.46798   0.98437   0.00000  Uiso   1.00
C775   C     0.43141   0.47064   0.51272   0.00000  Uiso   1.00
C776   C     0.48168   0.47625   0.98708   0.00000  Uiso   1.00
C777   C     0.49698   0.47440   0.93189   0.00000  Uiso   1.00
C778   C     0.51736   0.48450   0.51378   0.00000  Uiso   1.00
C779   C     0.56693   0.48956   0.98481   0.00000  Uiso   1.00
C780   C     0.58183   0.47835   0.93248   0.00000  Uiso   1.00
C781   C     0.54729   0.46738   0.90727   0.00000  Uiso   1.00
C782   C     0.50534   0.48923   0.56794   0.00000  Uiso   1.00
C783   C     0.58783   0.51243   0.56235   0.00000  Uiso   1.00
C784   C     0.46136   0.48013   0.90425   0.00000  Uiso   1.00
H785   H     0.46888   0.48305   0.59196   0.00000  Uiso   1.00
H786   H     0.38389   0.47671   0.91076   0.00000  Uiso   1.00
H787   H     0.41710   0.46779   0.55437   0.00000  Uiso   1.00
H788   H     0.35943   0.46235   0.50439   0.00000  Uiso   1.00
C789   C     0.54257   0.64537   0.75019   0.00000  Uiso   1.00
H790   H     0.57586   0.62934   0.75027   0.00000  Uiso   1.00
C791   C     0.54258   0.35460   0.75017   0.00000  Uiso   1.00
H792   H     0.57587   0.37060   0.75023   0.00000  Uiso   1.00
C793   C     0.50001   0.37607   0.75004   0.00000  Uiso   1.00
C794   C     0.45741   0.35464   0.74999   0.00000  Uiso   1.00
H795   H     0.42412   0.37067   0.74989   0.00000  Uiso   1.00
C796   C     0.45740   0.64541   0.75002   0.00000  Uiso   1.00
H797   H     0.42410   0.62942   0.74997   0.00000  Uiso   1.00
C798   C     0.49998   0.62393   0.75009   0.00000  Uiso   1.00
C799   C     0.63276   0.52403   0.78419   0.00000  Uiso   1.00
H800   H     0.60676   0.54325   0.81158   0.00000  Uiso   1.00
C801   C     0.34905   0.52396   0.78423   0.00000  Uiso   1.00
H802   H     0.36049   0.54317   0.81163   0.00000  Uiso   1.00
N803   N     0.38265   0.49999   0.74998   0.00000  Uiso   1.00
C804   C     0.36724   0.47598   0.71579   0.00000  Uiso   1.00
H805   H     0.39322   0.45671   0.68844   0.00000  Uiso   1.00
C806   C     0.65093   0.47599   0.71581   0.00000  Uiso   1.00
H807   H     0.63945   0.45673   0.68849   0.00000  Uiso   1.00
N808   N     0.61735   0.50002   0.75000   0.00000  Uiso   1.00
N809   N     0.62141   0.53354   0.58469   0.00000  Uiso   1.00
O810   O     0.60590   0.56356   0.61737   0.00000  Uiso   1.00
O811   O     0.33495   0.52826   0.56560   0.00000  Uiso   1.00
Cl812  Cl    0.56752   0.43392   0.85355   0.00000  Uiso   1.00
O813   O     0.79375   0.56011   0.75000   0.00000  Uiso   1.00
O814   O     0.87294   0.56012   0.75000   0.00000  Uiso   1.00
C815   C     0.83332   0.57932   0.75005   0.00000  Uiso   1.00
O816   O     0.77441   0.49998   0.82549   0.00000  Uiso   1.00
O817   O     0.85360   0.49999   0.82549   0.00000  Uiso   1.00
C818   C     0.80807   0.49347   0.84903   0.00000  Uiso   1.00
Cu819  Cu    0.78645   0.49999   0.75000   0.00000  Uiso   1.00
Cu820  Cu    0.88022   0.50001   0.75000   0.00000  Uiso   1.00
O821   O     0.79373   0.43988   0.74999   0.00000  Uiso   1.00
O822   O     0.87292   0.43989   0.75000   0.00000  Uiso   1.00
O823   O     0.81306   0.50001   0.67451   0.00000  Uiso   1.00
O824   O     0.89225   0.50002   0.67451   0.00000  Uiso   1.00
C825   C     0.83335   0.42068   0.74995   0.00000  Uiso   1.00
C826   C     0.85917   0.50152   0.64990   0.00000  Uiso   1.00
C827   C     0.93462   0.50439   0.50879   0.00000  Uiso   1.00
H828   H     0.95375   0.47594   0.91197   0.00000  Uiso   1.00
H829   H     0.97140   0.51135   0.98529   0.00000  Uiso   1.00
C830   C     0.87361   0.50165   0.59261   0.00000  Uiso   1.00
C831   C     0.74510   0.47510   0.93102   0.00000  Uiso   1.00
C832   C     0.73081   0.46798   0.98437   0.00000  Uiso   1.00
C833   C     0.76474   0.47064   0.51272   0.00000  Uiso   1.00
C834   C     0.81501   0.47625   0.98708   0.00000  Uiso   1.00
C835   C     0.83031   0.47440   0.93189   0.00000  Uiso   1.00
C836   C     0.85069   0.48450   0.51378   0.00000  Uiso   1.00
C837   C     0.90026   0.48956   0.98481   0.00000  Uiso   1.00
C838   C     0.91516   0.47835   0.93248   0.00000  Uiso   1.00
C839   C     0.88062   0.46738   0.90727   0.00000  Uiso   1.00
C840   C     0.83867   0.48923   0.56794   0.00000  Uiso   1.00
C841   C     0.92117   0.51243   0.56235   0.00000  Uiso   1.00
C842   C     0.79470   0.48013   0.90425   0.00000  Uiso   1.00
H843   H     0.80222   0.48305   0.59196   0.00000  Uiso   1.00
H844   H     0.71722   0.47671   0.91076   0.00000  Uiso   1.00
H845   H     0.75043   0.46779   0.55437   0.00000  Uiso   1.00
H846   H     0.69276   0.46235   0.50439   0.00000  Uiso   1.00
C847   C     0.87590   0.64537   0.75019   0.00000  Uiso   1.00
H848   H     0.90920   0.62934   0.75027   0.00000  Uiso   1.00
C849   C     0.87591   0.35460   0.75017   0.00000  Uiso   1.00
H850   H     0.90921   0.37060   0.75023   0.00000  Uiso   1.00
C851   C     0.83334   0.37607   0.75004   0.00000  Uiso   1.00
C852   C     0.79075   0.35464   0.74999   0.00000  Uiso   1.00
H853   H     0.75746   0.37067   0.74989   0.00000  Uiso   1.00
C854   C     0.79073   0.64541   0.75002   0.00000  Uiso   1.00
H855   H     0.75743   0.62942   0.74997   0.00000  Uiso   1.00
C856   C     0.83332   0.62393   0.75009   0.00000  Uiso   1.00
C857   C     0.96610   0.52403   0.78419   0.00000  Uiso   1.00
H858   H     0.94009   0.54325   0.81158   0.00000  Uiso   1.00
C859   C     0.68238   0.52396   0.78423   0.00000  Uiso   1.00
H860   H     0.69383   0.54317   0.81163   0.00000  Uiso   1.00
N861   N     0.71598   0.49999   0.74998   0.00000  Uiso   1.00
C862   C     0.70057   0.47598   0.71579   0.00000  Uiso   1.00
H863   H     0.72656   0.45671   0.68844   0.00000  Uiso   1.00
C864   C     0.98426   0.47599   0.71581   0.00000  Uiso   1.00
H865   H     0.97279   0.45673   0.68849   0.00000  Uiso   1.00
N866   N     0.95069   0.50002   0.75000   0.00000  Uiso   1.00
N867   N     0.95474   0.53354   0.58469   0.00000  Uiso   1.00
O868   O     0.93923   0.56356   0.61737   0.00000  Uiso   1.00
O869   O     0.66828   0.52826   0.56560   0.00000  Uiso   1.00
Cl870  Cl    0.90085   0.43392   0.85355   0.00000  Uiso   1.00
O871   O     0.12708   0.89345   0.75000   0.00000  Uiso   1.00
O872   O     0.20627   0.89346   0.75000   0.00000  Uiso   1.00
C873   C     0.16666   0.91265   0.75005   0.00000  Uiso   1.00
O874   O     0.10775   0.83332   0.82549   0.00000  Uiso   1.00
O875   O     0.18694   0.83333   0.82549   0.00000  Uiso   1.00
C876   C     0.14140   0.82680   0.84903   0.00000  Uiso   1.00
Cu877  Cu    0.11978   0.83333   0.75000   0.00000  Uiso   1.00
Cu878  Cu    0.21355   0.83334   0.75000   0.00000  Uiso   1.00
O879   O     0.12706   0.77321   0.74999   0.00000  Uiso   1.00
O880   O     0.20625   0.77322   0.75000   0.00000  Uiso   1.00
O881   O     0.14640   0.83334   0.67451   0.00000  Uiso   1.00
O882   O     0.22559   0.83335   0.67451   0.00000  Uiso   1.00
C883   C     0.16668   0.75401   0.74995   0.00000  Uiso   1.00
C884   C     0.19250   0.83485   0.64990   0.00000  Uiso   1.00
C885   C     0.26796   0.83773   0.50879   0.00000  Uiso   1.00
H886   H     0.28708   0.80927   0.91197   0.00000  Uiso   1.00
H887   H     0.30473   0.84468   0.98529   0.00000  Uiso   1.00
C888   C     0.20695   0.83498   0.59261   0.00000  Uiso   1.00
C889   C     0.07844   0.80843   0.93102   0.00000  Uiso   1.00
C890   C     0.06414   0.80131   0.98437   0.00000  Uiso   1.00
C891   C     0.09807   0.80397   0.51272   0.00000  Uiso   1.00
C892   C     0.14835   0.80958   0.98708   0.00000  Uiso   1.00
C893   C     0.16364   0.80774   0.93189   0.00000  Uiso   1.00
C894   C     0.18402   0.81784   0.51378   0.00000  Uiso   1.00
C895   C     0.23360   0.82290   0.98481   0.00000  Uiso   1.00
C896   C     0.24850   0.81168   0.93248   0.00000  Uiso   1.00
C897   C     0.21396   0.80071   0.90727   0.00000  Uiso   1.00
C898   C     0.17201   0.82257   0.56794   0.00000  Uiso   1.00
C899   C     0.25450   0.84576   0.56235   0.00000  Uiso   1.00
C900   C     0.12803   0.81347   0.90425   0.00000  Uiso   1.00
H901   H     0.13555   0.81638   0.59196   0.00000  Uiso   1.00
H902   H     0.05055   0.81004   0.91076   0.00000  Uiso   1.00
H903   H     0.08377   0.80112   0.55437   0.00000  Uiso   1.00
H904   H     0.02610   0.79569   0.50439   0.00000  Uiso   1.00
C905   C     0.20924   0.97870   0.75019   0.00000  Uiso   1.00
H906   H     0.24253   0.96267   0.75027   0.00000  Uiso   1.00
C907   C     0.20925   0.68794   0.75017   0.00000  Uiso   1.00
H908   H     0.24254   0.70393   0.75023   0.00000  Uiso   1.00
C909   C     0.16667   0.70941   0.75004   0.00000  Uiso   1.00
C910   C     0.12408   0.68798   0.74999   0.00000  Uiso   1.00
H911   H     0.09079   0.70400   0.74989   0.00000  Uiso   1.00
C912   C     0.12407   0.97874   0.75002   0.00000  Uiso   1.00
H913   H     0.09077   0.96275   0.74997   0.00000  Uiso   1.00
C914   C     0.16665   0.95727   0.75009   0.00000  Uiso   1.00
C915   C     0.29943   0.85736   0.78419   0.00000  Uiso   1.00
H916   H     0.27343   0.87659   0.81158   0.00000  Uiso   1.00
C917   C     0.01571   0.85730   0.78423   0.00000  Uiso   1.00
H918   H     0.02716   0.87650   0.81163   0.00000  Uiso   1.00
N919   N     0.04931   0.83332   0.74998   0.00000  Uiso   1.00
C920   C     0.03390   0.80932   0.71579   0.00000  Uiso   1.00
H921   H     0.05989   0.79004   0.68844   0.00000  Uiso   1.00
C922   C     0.31759   0.80932   0.71581   0.00000  Uiso   1.00
H923   H     0.30612   0.79006   0.68849   0.00000  Uiso   1.00
N924   N     0.28402   0.83335   0.75000   0.00000  Uiso   1.00
N925   N     0.28807   0.86687   0.58469   0.00000  Uiso   1.00
O926   O     0.27256   0.89690   0.61737   0.00000  Uiso   1.00
O927   O     0.00161   0.86159   0.56560   0.00000  Uiso   1.00
Cl928  Cl    0.23418   0.76725   0.85355   0.00000  Uiso   1.00
O929   O     0.46042   0.89345   0.75000   0.00000  Uiso   1.00
O930   O     0.53961   0.89346   0.75000   0.00000  Uiso   1.00
C931   C     0.49999   0.91265   0.75005   0.00000  Uiso   1.00
O932   O     0.44108   0.83332   0.82549   0.00000  Uiso   1.00
O933   O     0.52027   0.83333   0.82549   0.00000  Uiso   1.00
C934   C     0.47473   0.82680   0.84903   0.00000  Uiso   1.00
Cu935  Cu    0.45311   0.83333   0.75000   0.00000  Uiso   1.00
Cu936  Cu    0.54689   0.83334   0.75000   0.00000  Uiso   1.00
O937   O     0.46039   0.77321   0.74999   0.00000  Uiso   1.00
O938   O     0.53958   0.77322   0.75000   0.00000  Uiso   1.00
O939   O     0.47973   0.83334   0.67451   0.00000  Uiso   1.00
O940   O     0.55892   0.83335   0.67451   0.00000  Uiso   1.00
C941   C     0.50001   0.75401   0.74995   0.00000  Uiso   1.00
C942   C     0.52584   0.83485   0.64990   0.00000  Uiso   1.00
C943   C     0.60129   0.83773   0.50879   0.00000  Uiso   1.00
H944   H     0.62041   0.80927   0.91197   0.00000  Uiso   1.00
H945   H     0.63806   0.84468   0.98529   0.00000  Uiso   1.00
C946   C     0.54028   0.83498   0.59261   0.00000  Uiso   1.00
C947   C     0.41177   0.80843   0.93102   0.00000  Uiso   1.00
C948   C     0.39747   0.80131   0.98437   0.00000  Uiso   1.00
C949   C     0.43141   0.80397   0.51272   0.00000  Uiso   1.00
C950   C     0.48168   0.80958   0.98708   0.00000  Uiso   1.00
C951   C     0.49698   0.80774   0.93189   0.00000  Uiso   1.00
C952   C     0.51736   0.81784   0.51378   0.00000  Uiso   1.00
C953   C     0.56693   0.82290   0.98481   0.00000  Uiso   1.00
C954   C     0.58183   0.81168   0.93248   0.00000  Uiso   1.00
C955   C     0.54729   0.80071   0.90727   0.00000  Uiso   1.00
C956   C     0.50534   0.82257   0.56794   0.00000  Uiso   1.00
C957   C     0.58783   0.84576   0.56235   0.00000  Uiso   1.00
C958   C     0.46136   0.81347   0.90425   0.00000  Uiso   1.00
H959   H     0.46888   0.81638   0.59196   0.00000  Uiso   1.00
H960   H     0.38389   0.81004   0.91076   0.00000  Uiso   1.00
H961   H     0.41710   0.80112   0.55437   0.00000  Uiso   1.00
H962   H     0.35943   0.79569   0.50439   0.00000  Uiso   1.00
C963   C     0.54257   0.97870   0.75019   0.00000  Uiso   1.00
H964   H     0.57586   0.96267   0.75027   0.00000  Uiso   1.00
C965   C     0.54258   0.68794   0.75017   0.00000  Uiso   1.00
H966   H     0.57587   0.70393   0.75023   0.00000  Uiso   1.00
C967   C     0.50001   0.70941   0.75004   0.00000  Uiso   1.00
C968   C     0.45741   0.68798   0.74999   0.00000  Uiso   1.00
H969   H     0.42412   0.70400   0.74989   0.00000  Uiso   1.00
C970   C     0.45740   0.97874   0.75002   0.00000  Uiso   1.00
H971   H     0.42410   0.96275   0.74997   0.00000  Uiso   1.00
C972   C     0.49998   0.95727   0.75009   0.00000  Uiso   1.00
C973   C     0.63276   0.85736   0.78419   0.00000  Uiso   1.00
H974   H     0.60676   0.87659   0.81158   0.00000  Uiso   1.00
C975   C     0.34905   0.85730   0.78423   0.00000  Uiso   1.00
H976   H     0.36049   0.87650   0.81163   0.00000  Uiso   1.00
N977   N     0.38265   0.83332   0.74998   0.00000  Uiso   1.00
C978   C     0.36724   0.80932   0.71579   0.00000  Uiso   1.00
H979   H     0.39322   0.79004   0.68844   0.00000  Uiso   1.00
C980   C     0.65093   0.80932   0.71581   0.00000  Uiso   1.00
H981   H     0.63945   0.79006   0.68849   0.00000  Uiso   1.00
N982   N     0.61735   0.83335   0.75000   0.00000  Uiso   1.00
N983   N     0.62141   0.86687   0.58469   0.00000  Uiso   1.00
O984   O     0.60590   0.89690   0.61737   0.00000  Uiso   1.00
O985   O     0.33495   0.86159   0.56560   0.00000  Uiso   1.00
Cl986  Cl    0.56752   0.76725   0.85355   0.00000  Uiso   1.00
O987   O     0.79375   0.89345   0.75000   0.00000  Uiso   1.00
O988   O     0.87294   0.89346   0.75000   0.00000  Uiso   1.00
C989   C     0.83332   0.91265   0.75005   0.00000  Uiso   1.00
O990   O     0.77441   0.83332   0.82549   0.00000  Uiso   1.00
O991   O     0.85360   0.83333   0.82549   0.00000  Uiso   1.00
C992   C     0.80807   0.82680   0.84903   0.00000  Uiso   1.00
Cu993  Cu    0.78645   0.83333   0.75000   0.00000  Uiso   1.00
Cu994  Cu    0.88022   0.83334   0.75000   0.00000  Uiso   1.00
O995   O     0.79373   0.77321   0.74999   0.00000  Uiso   1.00
O996   O     0.87292   0.77322   0.75000   0.00000  Uiso   1.00
O997   O     0.81306   0.83334   0.67451   0.00000  Uiso   1.00
O998   O     0.89225   0.83335   0.67451   0.00000  Uiso   1.00
C999   C     0.83335   0.75401   0.74995   0.00000  Uiso   1.00
C1000  C     0.85917   0.83485   0.64990   0.00000  Uiso   1.00
C1001  C     0.93462   0.83773   0.50879   0.00000  Uiso   1.00
H1002  H     0.95375   0.80927   0.91197   0.00000  Uiso   1.00
H1003  H     0.97140   0.84468   0.98529   0.00000  Uiso   1.00
C1004  C     0.87361   0.83498   0.59261   0.00000  Uiso   1.00
C1005  C     0.74510   0.80843   0.93102   0.00000  Uiso   1.00
C1006  C     0.73081   0.80131   0.98437   0.00000  Uiso   1.00
C1007  C     0.76474   0.80397   0.51272   0.00000  Uiso   1.00
C1008  C     0.81501   0.80958   0.98708   0.00000  Uiso   1.00
C1009  C     0.83031   0.80774   0.93189   0.00000  Uiso   1.00
C1010  C     0.85069   0.81784   0.51378   0.00000  Uiso   1.00
C1011  C     0.90026   0.82290   0.98481   0.00000  Uiso   1.00
C1012  C     0.91516   0.81168   0.93248   0.00000  Uiso   1.00
C1013  C     0.88062   0.80071   0.90727   0.00000  Uiso   1.00
C1014  C     0.83867   0.82257   0.56794   0.00000  Uiso   1.00
C1015  C     0.92117   0.84576   0.56235   0.00000  Uiso   1.00
C1016  C     0.79470   0.81347   0.90425   0.00000  Uiso   1.00
H1017  H     0.80222   0.81638   0.59196   0.00000  Uiso   1.00
H1018  H     0.71722   0.81004   0.91076   0.00000  Uiso   1.00
H1019  H     0.75043   0.80112   0.55437   0.00000  Uiso   1.00
H1020  H     0.69276   0.79569   0.50439   0.00000  Uiso   1.00
C1021  C     0.87590   0.97870   0.75019   0.00000  Uiso   1.00
H1022  H     0.90920   0.96267   0.75027   0.00000  Uiso   1.00
C1023  C     0.87591   0.68794   0.75017   0.00000  Uiso   1.00
H1024  H     0.90921   0.70393   0.75023   0.00000  Uiso   1.00
C1025  C     0.83334   0.70941   0.75004   0.00000  Uiso   1.00
C1026  C     0.79075   0.68798   0.74999   0.00000  Uiso   1.00
H1027  H     0.75746   0.70400   0.74989   0.00000  Uiso   1.00
C1028  C     0.79073   0.97874   0.75002   0.00000  Uiso   1.00
H1029  H     0.75743   0.96275   0.74997   0.00000  Uiso   1.00
C1030  C     0.83332   0.95727   0.75009   0.00000  Uiso   1.00
C1031  C     0.96610   0.85736   0.78419   0.00000  Uiso   1.00
H1032  H     0.94009   0.87659   0.81158   0.00000  Uiso   1.00
C1033  C     0.68238   0.85730   0.78423   0.00000  Uiso   1.00
H1034  H     0.69383   0.87650   0.81163   0.00000  Uiso   1.00
N1035  N     0.71598   0.83332   0.74998   0.00000  Uiso   1.00
C1036  C     0.70057   0.80932   0.71579   0.00000  Uiso   1.00
H1037  H     0.72656   0.79004   0.68844   0.00000  Uiso   1.00
C1038  C     0.98426   0.80932   0.71581   0.00000  Uiso   1.00
H1039  H     0.97279   0.79006   0.68849   0.00000  Uiso   1.00
N1040  N     0.95069   0.83335   0.75000   0.00000  Uiso   1.00
N1041  N     0.95474   0.86687   0.58469   0.00000  Uiso   1.00
O1042  O     0.93923   0.89690   0.61737   0.00000  Uiso   1.00
O1043  O     0.66828   0.86159   0.56560   0.00000  Uiso   1.00
Cl1044 Cl    0.90085   0.76725   0.85355   0.00000  Uiso   1.00
loop_
_geom_bond_atom_site_label_1
_geom_bond_atom_site_label_2
_geom_bond_distance
_geom_bond_site_symmetry_2
_ccdc_geom_bond_type
O1     Cu7     1.965   .     S
O1     C3      1.291   .     A
O2     C3      1.290   .     A
O2     Cu8     1.965   .     S
C3     C44     1.450   .     S
O4     Cu7     1.951   .     S
O4     C6      1.306   .     A
O5     Cu8     1.946   .     S
O5     C6      1.290   .     A
C6     C30     1.482   .     S
Cu7    Cu8     2.675   .     S
Cu7    O11     1.946   .     S
Cu7    N49     2.010   .     S
Cu7    O9      1.965   .     S
Cu8    O12     1.951   .     S
Cu8    O10     1.965   .     S
Cu8    N54     2.010   .     S
O9     C13     1.290   .     A
O10    C13     1.290   .     A
O11    C14     1.294   .     A
O12    C14     1.296   .     A
C13    C39     1.450   .     S
C14    C18     1.470   .     S
C15    C29     1.400   .     A
C15    H539    1.083   1_554 S
C15    C547    1.401   1_554 S
H16    C26     1.084   .     S
H17    C537    1.083   .     S
C18    C29     1.413   .     A
C18    C28     1.402   .     A
C19    C20     1.389   .     A
C19    H32     1.083   .     S
C19    C30     1.402   .     A
C20    C543    1.391   .     S
C20    H556    1.081   .     S
C21    H33     1.077   .     S
C21    C542    1.391   1_554 S
C21    C544    1.415   1_554 S
C22    C23     1.418   .     A
C22    C543    1.415   .     S
C22    C546    1.425   .     S
C23    C27     1.418   .     A
C23    C30     1.428   .     A
C24    C28     1.400   .     A
C24    C544    1.425   1_554 S
C24    C547    1.416   1_554 S
C25    C26     1.392   .     A
C25    C537    1.401   .     S
C25    C546    1.416   .     S
C26    C27     1.389   .     A
C27    Cl58    1.765   .     S
C28    H31     1.075   .     S
C29    N55     1.439   .     S
H34    C542    1.081   1_554 S
C35    C44     1.401   .     A
C35    H36     1.083   .     S
C35    C211    1.383   .     S
C37    H38     1.083   .     S
C37    C39     1.401   .     A
C37    C383    1.383   1_545 S
C39    C40     1.401   .     A
C40    H41     1.083   .     S
C40    C390    1.383   1_545 S
C42    C44     1.401   .     A
C42    H43     1.083   .     S
C42    C214    1.383   .     S
C45    N54     1.367   .     A
C45    H46     1.082   .     S
C45    C105    1.416   .     S
C47    N49     1.367   .     A
C47    H48     1.082   .     S
C47    C161    1.416   1_455 S
N49    C50     1.367   .     A
C50    H51     1.082   .     S
C50    C168    1.416   1_455 S
C52    N54     1.367   .     A
C52    H53     1.082   .     S
C52    C108    1.416   .     S
N55    O56     1.302   .     A
N55    O115    1.300   .     S
O57    N171    1.300   1_455 S
O59    Cu65    1.965   .     S
O59    C61     1.291   .     A
O60    C61     1.290   .     A
O60    Cu66    1.965   .     S
C61    C102    1.450   .     S
O62    Cu65    1.951   .     S
O62    C64     1.306   .     A
O63    Cu66    1.946   .     S
O63    C64     1.290   .     A
C64    C88     1.482   .     S
Cu65   Cu66    2.675   .     S
Cu65   O69     1.946   .     S
Cu65   N107    2.010   .     S
Cu65   O67     1.965   .     S
Cu66   O70     1.951   .     S
Cu66   O68     1.965   .     S
Cu66   N112    2.010   .     S
O67    C71     1.290   .     A
O68    C71     1.290   .     A
O69    C72     1.294   .     A
O70    C72     1.296   .     A
C71    C97     1.450   .     S
C72    C76     1.470   .     S
C73    C87     1.400   .     A
C73    H597    1.083   1_554 S
C73    C605    1.401   1_554 S
H74    C84     1.084   .     S
H75    C595    1.083   .     S
C76    C87     1.413   .     A
C76    C86     1.402   .     A
C77    C78     1.389   .     A
C77    H90     1.083   .     S
C77    C88     1.402   .     A
C78    C601    1.391   .     S
C78    H614    1.081   .     S
C79    H91     1.077   .     S
C79    C600    1.391   1_554 S
C79    C602    1.415   1_554 S
C80    C81     1.418   .     A
C80    C601    1.415   .     S
C80    C604    1.425   .     S
C81    C85     1.418   .     A
C81    C88     1.428   .     A
C82    C86     1.400   .     A
C82    C602    1.425   1_554 S
C82    C605    1.416   1_554 S
C83    C84     1.392   .     A
C83    C595    1.401   .     S
C83    C604    1.416   .     S
C84    C85     1.389   .     A
C85    Cl116   1.765   .     S
C86    H89     1.075   .     S
C87    N113    1.439   .     S
H92    C600    1.081   1_554 S
C93    C102    1.401   .     A
C93    H94     1.083   .     S
C93    C269    1.383   .     S
C95    H96     1.083   .     S
C95    C97     1.401   .     A
C95    C441    1.383   1_545 S
C97    C98     1.401   .     A
C98    H99     1.083   .     S
C98    C448    1.383   1_545 S
C100   C102    1.401   .     A
C100   H101    1.083   .     S
C100   C272    1.383   .     S
C103   N112    1.367   .     A
C103   H104    1.082   .     S
C103   C163    1.416   .     S
C105   N107    1.367   .     A
C105   H106    1.082   .     S
N107   C108    1.367   .     A
C108   H109    1.082   .     S
C110   N112    1.367   .     A
C110   H111    1.082   .     S
C110   C166    1.416   .     S
N113   O114    1.302   .     A
N113   O173    1.300   .     S
O117   Cu123   1.965   .     S
O117   C119    1.291   .     A
O118   C119    1.290   .     A
O118   Cu124   1.965   .     S
C119   C160    1.450   .     S
O120   Cu123   1.951   .     S
O120   C122    1.306   .     A
O121   Cu124   1.946   .     S
O121   C122    1.290   .     A
C122   C146    1.482   .     S
Cu123  Cu124   2.675   .     S
Cu123  O127    1.946   .     S
Cu123  N165    2.010   .     S
Cu123  O125    1.965   .     S
Cu124  O128    1.951   .     S
Cu124  O126    1.965   .     S
Cu124  N170    2.010   .     S
O125   C129    1.290   .     A
O126   C129    1.290   .     A
O127   C130    1.294   .     A
O128   C130    1.296   .     A
C129   C155    1.450   .     S
C130   C134    1.470   .     S
C131   C145    1.400   .     A
C131   H655    1.083   1_554 S
C131   C663    1.401   1_554 S
H132   C142    1.084   .     S
H133   C653    1.083   .     S
C134   C145    1.413   .     A
C134   C144    1.402   .     A
C135   C136    1.389   .     A
C135   H148    1.083   .     S
C135   C146    1.402   .     A
C136   C659    1.391   .     S
C136   H672    1.081   .     S
C137   H149    1.077   .     S
C137   C658    1.391   1_554 S
C137   C660    1.415   1_554 S
C138   C139    1.418   .     A
C138   C659    1.415   .     S
C138   C662    1.425   .     S
C139   C143    1.418   .     A
C139   C146    1.428   .     A
C140   C144    1.400   .     A
C140   C660    1.425   1_554 S
C140   C663    1.416   1_554 S
C141   C142    1.392   .     A
C141   C653    1.401   .     S
C141   C662    1.416   .     S
C142   C143    1.389   .     A
C143   Cl174   1.765   .     S
C144   H147    1.075   .     S
C145   N171    1.439   .     S
H150   C658    1.081   1_554 S
C151   C160    1.401   .     A
C151   H152    1.083   .     S
C151   C327    1.383   .     S
C153   H154    1.083   .     S
C153   C155    1.401   .     A
C153   C499    1.383   1_545 S
C155   C156    1.401   .     A
C156   H157    1.083   .     S
C156   C506    1.383   1_545 S
C158   C160    1.401   .     A
C158   H159    1.083   .     S
C158   C330    1.383   .     S
C161   N170    1.367   .     A
C161   H162    1.082   .     S
C161   C47     1.416   1_655 S
C163   N165    1.367   .     A
C163   H164    1.082   .     S
N165   C166    1.367   .     A
C166   H167    1.082   .     S
C168   N170    1.367   .     A
C168   H169    1.082   .     S
C168   C50     1.416   1_655 S
N171   O172    1.302   .     A
N171   O57     1.300   1_655 S
O175   Cu181   1.965   .     S
O175   C177    1.291   .     A
O176   C177    1.290   .     A
O176   Cu182   1.965   .     S
C177   C218    1.450   .     S
O178   Cu181   1.951   .     S
O178   C180    1.306   .     A
O179   Cu182   1.946   .     S
O179   C180    1.290   .     A
C180   C204    1.482   .     S
Cu181  Cu182   2.675   .     S
Cu181  O185    1.946   .     S
Cu181  N223    2.010   .     S
Cu181  O183    1.965   .     S
Cu182  O186    1.951   .     S
Cu182  O184    1.965   .     S
Cu182  N228    2.010   .     S
O183   C187    1.290   .     A
O184   C187    1.290   .     A
O185   C188    1.294   .     A
O186   C188    1.296   .     A
C187   C213    1.450   .     S
C188   C192    1.470   .     S
C189   C203    1.400   .     A
C189   H713    1.083   1_554 S
C189   C721    1.401   1_554 S
H190   C200    1.084   .     S
H191   C711    1.083   .     S
C192   C203    1.413   .     A
C192   C202    1.402   .     A
C193   C194    1.389   .     A
C193   H206    1.083   .     S
C193   C204    1.402   .     A
C194   C717    1.391   .     S
C194   H730    1.081   .     S
C195   H207    1.077   .     S
C195   C716    1.391   1_554 S
C195   C718    1.415   1_554 S
C196   C197    1.418   .     A
C196   C717    1.415   .     S
C196   C720    1.425   .     S
C197   C201    1.418   .     A
C197   C204    1.428   .     A
C198   C202    1.400   .     A
C198   C718    1.425   1_554 S
C198   C721    1.416   1_554 S
C199   C200    1.392   .     A
C199   C711    1.401   .     S
C199   C720    1.416   .     S
C200   C201    1.389   .     A
C201   Cl232   1.765   .     S
C202   H205    1.075   .     S
C203   N229    1.439   .     S
H208   C716    1.081   1_554 S
C209   C218    1.401   .     A
C209   H210    1.083   .     S
C209   C385    1.383   .     S
C211   H212    1.083   .     S
C211   C213    1.401   .     A
C213   C214    1.401   .     A
C214   H215    1.083   .     S
C216   C218    1.401   .     A
C216   H217    1.083   .     S
C216   C388    1.383   .     S
C219   N228    1.367   .     A
C219   H220    1.082   .     S
C219   C279    1.416   .     S
C221   N223    1.367   .     A
C221   H222    1.082   .     S
C221   C335    1.416   1_455 S
N223   C224    1.367   .     A
C224   H225    1.082   .     S
C224   C342    1.416   1_455 S
C226   N228    1.367   .     A
C226   H227    1.082   .     S
C226   C282    1.416   .     S
N229   O230    1.302   .     A
N229   O289    1.300   .     S
O231   N345    1.300   1_455 S
O233   Cu239   1.965   .     S
O233   C235    1.291   .     A
O234   C235    1.290   .     A
O234   Cu240   1.965   .     S
C235   C276    1.450   .     S
O236   Cu239   1.951   .     S
O236   C238    1.306   .     A
O237   Cu240   1.946   .     S
O237   C238    1.290   .     A
C238   C262    1.482   .     S
Cu239  Cu240   2.675   .     S
Cu239  O243    1.946   .     S
Cu239  N281    2.010   .     S
Cu239  O241    1.965   .     S
Cu240  O244    1.951   .     S
Cu240  O242    1.965   .     S
Cu240  N286    2.010   .     S
O241   C245    1.290   .     A
O242   C245    1.290   .     A
O243   C246    1.294   .     A
O244   C246    1.296   .     A
C245   C271    1.450   .     S
C246   C250    1.470   .     S
C247   C261    1.400   .     A
C247   H771    1.083   1_554 S
C247   C779    1.401   1_554 S
H248   C258    1.084   .     S
H249   C769    1.083   .     S
C250   C261    1.413   .     A
C250   C260    1.402   .     A
C251   C252    1.389   .     A
C251   H264    1.083   .     S
C251   C262    1.402   .     A
C252   C775    1.391   .     S
C252   H788    1.081   .     S
C253   H265    1.077   .     S
C253   C774    1.391   1_554 S
C253   C776    1.415   1_554 S
C254   C255    1.418   .     A
C254   C775    1.415   .     S
C254   C778    1.425   .     S
C255   C259    1.418   .     A
C255   C262    1.428   .     A
C256   C260    1.400   .     A
C256   C776    1.425   1_554 S
C256   C779    1.416   1_554 S
C257   C258    1.392   .     A
C257   C769    1.401   .     S
C257   C778    1.416   .     S
C258   C259    1.389   .     A
C259   Cl290   1.765   .     S
C260   H263    1.075   .     S
C261   N287    1.439   .     S
H266   C774    1.081   1_554 S
C267   C276    1.401   .     A
C267   H268    1.083   .     S
C267   C443    1.383   .     S
C269   H270    1.083   .     S
C269   C271    1.401   .     A
C271   C272    1.401   .     A
C272   H273    1.083   .     S
C274   C276    1.401   .     A
C274   H275    1.083   .     S
C274   C446    1.383   .     S
C277   N286    1.367   .     A
C277   H278    1.082   .     S
C277   C337    1.416   .     S
C279   N281    1.367   .     A
C279   H280    1.082   .     S
N281   C282    1.367   .     A
C282   H283    1.082   .     S
C284   N286    1.367   .     A
C284   H285    1.082   .     S
C284   C340    1.416   .     S
N287   O288    1.302   .     A
N287   O347    1.300   .     S
O291   Cu297   1.965   .     S
O291   C293    1.291   .     A
O292   C293    1.290   .     A
O292   Cu298   1.965   .     S
C293   C334    1.450   .     S
O294   Cu297   1.951   .     S
O294   C296    1.306   .     A
O295   Cu298   1.946   .     S
O295   C296    1.290   .     A
C296   C320    1.482   .     S
Cu297  Cu298   2.675   .     S
Cu297  O301    1.946   .     S
Cu297  N339    2.010   .     S
Cu297  O299    1.965   .     S
Cu298  O302    1.951   .     S
Cu298  O300    1.965   .     S
Cu298  N344    2.010   .     S
O299   C303    1.290   .     A
O300   C303    1.290   .     A
O301   C304    1.294   .     A
O302   C304    1.296   .     A
C303   C329    1.450   .     S
C304   C308    1.470   .     S
C305   C319    1.400   .     A
C305   H829    1.083   1_554 S
C305   C837    1.401   1_554 S
H306   C316    1.084   .     S
H307   C827    1.083   .     S
C308   C319    1.413   .     A
C308   C318    1.402   .     A
C309   C310    1.389   .     A
C309   H322    1.083   .     S
C309   C320    1.402   .     A
C310   C833    1.391   .     S
C310   H846    1.081   .     S
C311   H323    1.077   .     S
C311   C832    1.391   1_554 S
C311   C834    1.415   1_554 S
C312   C313    1.418   .     A
C312   C833    1.415   .     S
C312   C836    1.425   .     S
C313   C317    1.418   .     A
C313   C320    1.428   .     A
C314   C318    1.400   .     A
C314   C834    1.425   1_554 S
C314   C837    1.416   1_554 S
C315   C316    1.392   .     A
C315   C827    1.401   .     S
C315   C836    1.416   .     S
C316   C317    1.389   .     A
C317   Cl348   1.765   .     S
C318   H321    1.075   .     S
C319   N345    1.439   .     S
H324   C832    1.081   1_554 S
C325   C334    1.401   .     A
C325   H326    1.083   .     S
C325   C501    1.383   .     S
C327   H328    1.083   .     S
C327   C329    1.401   .     A
C329   C330    1.401   .     A
C330   H331    1.083   .     S
C332   C334    1.401   .     A
C332   H333    1.083   .     S
C332   C504    1.383   .     S
C335   N344    1.367   .     A
C335   H336    1.082   .     S
C335   C221    1.416   1_655 S
C337   N339    1.367   .     A
C337   H338    1.082   .     S
N339   C340    1.367   .     A
C340   H341    1.082   .     S
C342   N344    1.367   .     A
C342   H343    1.082   .     S
C342   C224    1.416   1_655 S
N345   O346    1.302   .     A
N345   O231    1.300   1_655 S
O349   Cu355   1.965   .     S
O349   C351    1.291   .     A
O350   C351    1.290   .     A
O350   Cu356   1.965   .     S
C351   C392    1.450   .     S
O352   Cu355   1.951   .     S
O352   C354    1.306   .     A
O353   Cu356   1.946   .     S
O353   C354    1.290   .     A
C354   C378    1.482   .     S
Cu355  Cu356   2.675   .     S
Cu355  O359    1.946   .     S
Cu355  N397    2.010   .     S
Cu355  O357    1.965   .     S
Cu356  O360    1.951   .     S
Cu356  O358    1.965   .     S
Cu356  N402    2.010   .     S
O357   C361    1.290   .     A
O358   C361    1.290   .     A
O359   C362    1.294   .     A
O360   C362    1.296   .     A
C361   C387    1.450   .     S
C362   C366    1.470   .     S
C363   C377    1.400   .     A
C363   H887    1.083   1_554 S
C363   C895    1.401   1_554 S
H364   C374    1.084   .     S
H365   C885    1.083   .     S
C366   C377    1.413   .     A
C366   C376    1.402   .     A
C367   C368    1.389   .     A
C367   H380    1.083   .     S
C367   C378    1.402   .     A
C368   C891    1.391   .     S
C368   H904    1.081   .     S
C369   H381    1.077   .     S
C369   C890    1.391   1_554 S
C369   C892    1.415   1_554 S
C370   C371    1.418   .     A
C370   C891    1.415   .     S
C370   C894    1.425   .     S
C371   C375    1.418   .     A
C371   C378    1.428   .     A
C372   C376    1.400   .     A
C372   C892    1.425   1_554 S
C372   C895    1.416   1_554 S
C373   C374    1.392   .     A
C373   C885    1.401   .     S
C373   C894    1.416   .     S
C374   C375    1.389   .     A
C375   Cl406   1.765   .     S
C376   H379    1.075   .     S
C377   N403    1.439   .     S
H382   C890    1.081   1_554 S
C383   C392    1.401   .     A
C383   H384    1.083   .     S
C383   C37     1.383   1_565 S
C385   H386    1.083   .     S
C385   C387    1.401   .     A
C387   C388    1.401   .     A
C388   H389    1.083   .     S
C390   C392    1.401   .     A
C390   H391    1.083   .     S
C390   C40     1.383   1_565 S
C393   N402    1.367   .     A
C393   H394    1.082   .     S
C393   C453    1.416   .     S
C395   N397    1.367   .     A
C395   H396    1.082   .     S
C395   C509    1.416   1_455 S
N397   C398    1.367   .     A
C398   H399    1.082   .     S
C398   C516    1.416   1_455 S
C400   N402    1.367   .     A
C400   H401    1.082   .     S
C400   C456    1.416   .     S
N403   O404    1.302   .     A
N403   O463    1.300   .     S
O405   N519    1.300   1_455 S
O407   Cu413   1.965   .     S
O407   C409    1.291   .     A
O408   C409    1.290   .     A
O408   Cu414   1.965   .     S
C409   C450    1.450   .     S
O410   Cu413   1.951   .     S
O410   C412    1.306   .     A
O411   Cu414   1.946   .     S
O411   C412    1.290   .     A
C412   C436    1.482   .     S
Cu413  Cu414   2.675   .     S
Cu413  O417    1.946   .     S
Cu413  N455    2.010   .     S
Cu413  O415    1.965   .     S
Cu414  O418    1.951   .     S
Cu414  O416    1.965   .     S
Cu414  N460    2.010   .     S
O415   C419    1.290   .     A
O416   C419    1.290   .     A
O417   C420    1.294   .     A
O418   C420    1.296   .     A
C419   C445    1.450   .     S
C420   C424    1.470   .     S
C421   C435    1.400   .     A
C421   H945    1.083   1_554 S
C421   C953    1.401   1_554 S
H422   C432    1.084   .     S
H423   C943    1.083   .     S
C424   C435    1.413   .     A
C424   C434    1.402   .     A
C425   C426    1.389   .     A
C425   H438    1.083   .     S
C425   C436    1.402   .     A
C426   C949    1.391   .     S
C426   H962    1.081   .     S
C427   H439    1.077   .     S
C427   C948    1.391   1_554 S
C427   C950    1.415   1_554 S
C428   C429    1.418   .     A
C428   C949    1.415   .     S
C428   C952    1.425   .     S
C429   C433    1.418   .     A
C429   C436    1.428   .     A
C430   C434    1.400   .     A
C430   C950    1.425   1_554 S
C430   C953    1.416   1_554 S
C431   C432    1.392   .     A
C431   C943    1.401   .     S
C431   C952    1.416   .     S
C432   C433    1.389   .     A
C433   Cl464   1.765   .     S
C434   H437    1.075   .     S
C435   N461    1.439   .     S
H440   C948    1.081   1_554 S
C441   C450    1.401   .     A
C441   H442    1.083   .     S
C441   C95     1.383   1_565 S
C443   H444    1.083   .     S
C443   C445    1.401   .     A
C445   C446    1.401   .     A
C446   H447    1.083   .     S
C448   C450    1.401   .     A
C448   H449    1.083   .     S
C448   C98     1.383   1_565 S
C451   N460    1.367   .     A
C451   H452    1.082   .     S
C451   C511    1.416   .     S
C453   N455    1.367   .     A
C453   H454    1.082   .     S
N455   C456    1.367   .     A
C456   H457    1.082   .     S
C458   N460    1.367   .     A
C458   H459    1.082   .     S
C458   C514    1.416   .     S
N461   O462    1.302   .     A
N461   O521    1.300   .     S
O465   Cu471   1.965   .     S
O465   C467    1.291   .     A
O466   C467    1.290   .     A
O466   Cu472   1.965   .     S
C467   C508    1.450   .     S
O468   Cu471   1.951   .     S
O468   C470    1.306   .     A
O469   Cu472   1.946   .     S
O469   C470    1.290   .     A
C470   C494    1.482   .     S
Cu471  Cu472   2.675   .     S
Cu471  O475    1.946   .     S
Cu471  N513    2.010   .     S
Cu471  O473    1.965   .     S
Cu472  O476    1.951   .     S
Cu472  O474    1.965   .     S
Cu472  N518    2.010   .     S
O473   C477    1.290   .     A
O474   C477    1.290   .     A
O475   C478    1.294   .     A
O476   C478    1.296   .     A
C477   C503    1.450   .     S
C478   C482    1.470   .     S
C479   C493    1.400   .     A
C479   H1003   1.083   1_554 S
C479   C1011   1.401   1_554 S
H480   C490    1.084   .     S
H481   C1001   1.083   .     S
C482   C493    1.413   .     A
C482   C492    1.402   .     A
C483   C484    1.389   .     A
C483   H496    1.083   .     S
C483   C494    1.402   .     A
C484   C1007   1.391   .     S
C484   H1020   1.081   .     S
C485   H497    1.077   .     S
C485   C1006   1.391   1_554 S
C485   C1008   1.415   1_554 S
C486   C487    1.418   .     A
C486   C1007   1.415   .     S
C486   C1010   1.425   .     S
C487   C491    1.418   .     A
C487   C494    1.428   .     A
C488   C492    1.400   .     A
C488   C1008   1.425   1_554 S
C488   C1011   1.416   1_554 S
C489   C490    1.392   .     A
C489   C1001   1.401   .     S
C489   C1010   1.416   .     S
C490   C491    1.389   .     A
C491   Cl522   1.765   .     S
C492   H495    1.075   .     S
C493   N519    1.439   .     S
H498   C1006   1.081   1_554 S
C499   C508    1.401   .     A
C499   H500    1.083   .     S
C499   C153    1.383   1_565 S
C501   H502    1.083   .     S
C501   C503    1.401   .     A
C503   C504    1.401   .     A
C504   H505    1.083   .     S
C506   C508    1.401   .     A
C506   H507    1.083   .     S
C506   C156    1.383   1_565 S
C509   N518    1.367   .     A
C509   H510    1.082   .     S
C509   C395    1.416   1_655 S
C511   N513    1.367   .     A
C511   H512    1.082   .     S
N513   C514    1.367   .     A
C514   H515    1.082   .     S
C516   N518    1.367   .     A
C516   H517    1.082   .     S
C516   C398    1.416   1_655 S
N519   O520    1.302   .     A
N519   O405    1.300   1_655 S
O523   Cu529   1.965   .     S
O523   C525    1.291   .     A
O524   C525    1.290   .     A
O524   Cu530   1.965   .     S
C525   C566    1.450   .     S
O526   Cu529   1.951   .     S
O526   C528    1.306   .     A
O527   Cu530   1.946   .     S
O527   C528    1.290   .     A
C528   C552    1.482   .     S
Cu529  Cu530   2.675   .     S
Cu529  O533    1.946   .     S
Cu529  N571    2.010   .     S
Cu529  O531    1.965   .     S
Cu530  O534    1.951   .     S
Cu530  O532    1.965   .     S
Cu530  N576    2.010   .     S
O531   C535    1.290   .     A
O532   C535    1.290   .     A
O533   C536    1.294   .     A
O534   C536    1.296   .     A
C535   C561    1.450   .     S
C536   C540    1.470   .     S
C537   C551    1.400   .     A
H538   C548    1.084   .     S
H539   C15     1.083   1_556 S
C540   C551    1.413   .     A
C540   C550    1.402   .     A
C541   C542    1.389   .     A
C541   H554    1.083   .     S
C541   C552    1.402   .     A
C542   C21     1.391   1_556 S
C542   H34     1.081   1_556 S
C543   H555    1.077   .     S
C544   C545    1.418   .     A
C544   C21     1.415   1_556 S
C544   C24     1.425   1_556 S
C545   C549    1.418   .     A
C545   C552    1.428   .     A
C546   C550    1.400   .     A
C547   C548    1.392   .     A
C547   C15     1.401   1_556 S
C547   C24     1.416   1_556 S
C548   C549    1.389   .     A
C549   Cl580   1.765   .     S
C550   H553    1.075   .     S
C551   N577    1.439   .     S
C557   C566    1.401   .     A
C557   H558    1.083   .     S
C557   C733    1.383   .     S
C559   H560    1.083   .     S
C559   C561    1.401   .     A
C559   C905    1.383   1_545 S
C561   C562    1.401   .     A
C562   H563    1.083   .     S
C562   C912    1.383   1_545 S
C564   C566    1.401   .     A
C564   H565    1.083   .     S
C564   C736    1.383   .     S
C567   N576    1.367   .     A
C567   H568    1.082   .     S
C567   C627    1.416   .     S
C569   N571    1.367   .     A
C569   H570    1.082   .     S
C569   C683    1.416   1_455 S
N571   C572    1.367   .     A
C572   H573    1.082   .     S
C572   C690    1.416   1_455 S
C574   N576    1.367   .     A
C574   H575    1.082   .     S
C574   C630    1.416   .     S
N577   O578    1.302   .     A
N577   O637    1.300   .     S
O579   N693    1.300   1_455 S
O581   Cu587   1.965   .     S
O581   C583    1.291   .     A
O582   C583    1.290   .     A
O582   Cu588   1.965   .     S
C583   C624    1.450   .     S
O584   Cu587   1.951   .     S
O584   C586    1.306   .     A
O585   Cu588   1.946   .     S
O585   C586    1.290   .     A
C586   C610    1.482   .     S
Cu587  Cu588   2.675   .     S
Cu587  O591    1.946   .     S
Cu587  N629    2.010   .     S
Cu587  O589    1.965   .     S
Cu588  O592    1.951   .     S
Cu588  O590    1.965   .     S
Cu588  N634    2.010   .     S
O589   C593    1.290   .     A
O590   C593    1.290   .     A
O591   C594    1.294   .     A
O592   C594    1.296   .     A
C593   C619    1.450   .     S
C594   C598    1.470   .     S
C595   C609    1.400   .     A
H596   C606    1.084   .     S
H597   C73     1.083   1_556 S
C598   C609    1.413   .     A
C598   C608    1.402   .     A
C599   C600    1.389   .     A
C599   H612    1.083   .     S
C599   C610    1.402   .     A
C600   C79     1.391   1_556 S
C600   H92     1.081   1_556 S
C601   H613    1.077   .     S
C602   C603    1.418   .     A
C602   C79     1.415   1_556 S
C602   C82     1.425   1_556 S
C603   C607    1.418   .     A
C603   C610    1.428   .     A
C604   C608    1.400   .     A
C605   C606    1.392   .     A
C605   C73     1.401   1_556 S
C605   C82     1.416   1_556 S
C606   C607    1.389   .     A
C607   Cl638   1.765   .     S
C608   H611    1.075   .     S
C609   N635    1.439   .     S
C615   C624    1.401   .     A
C615   H616    1.083   .     S
C615   C791    1.383   .     S
C617   H618    1.083   .     S
C617   C619    1.401   .     A
C617   C963    1.383   1_545 S
C619   C620    1.401   .     A
C620   H621    1.083   .     S
C620   C970    1.383   1_545 S
C622   C624    1.401   .     A
C622   H623    1.083   .     S
C622   C794    1.383   .     S
C625   N634    1.367   .     A
C625   H626    1.082   .     S
C625   C685    1.416   .     S
C627   N629    1.367   .     A
C627   H628    1.082   .     S
N629   C630    1.367   .     A
C630   H631    1.082   .     S
C632   N634    1.367   .     A
C632   H633    1.082   .     S
C632   C688    1.416   .     S
N635   O636    1.302   .     A
N635   O695    1.300   .     S
O639   Cu645   1.965   .     S
O639   C641    1.291   .     A
O640   C641    1.290   .     A
O640   Cu646   1.965   .     S
C641   C682    1.450   .     S
O642   Cu645   1.951   .     S
O642   C644    1.306   .     A
O643   Cu646   1.946   .     S
O643   C644    1.290   .     A
C644   C668    1.482   .     S
Cu645  Cu646   2.675   .     S
Cu645  O649    1.946   .     S
Cu645  N687    2.010   .     S
Cu645  O647    1.965   .     S
Cu646  O650    1.951   .     S
Cu646  O648    1.965   .     S
Cu646  N692    2.010   .     S
O647   C651    1.290   .     A
O648   C651    1.290   .     A
O649   C652    1.294   .     A
O650   C652    1.296   .     A
C651   C677    1.450   .     S
C652   C656    1.470   .     S
C653   C667    1.400   .     A
H654   C664    1.084   .     S
H655   C131    1.083   1_556 S
C656   C667    1.413   .     A
C656   C666    1.402   .     A
C657   C658    1.389   .     A
C657   H670    1.083   .     S
C657   C668    1.402   .     A
C658   C137    1.391   1_556 S
C658   H150    1.081   1_556 S
C659   H671    1.077   .     S
C660   C661    1.418   .     A
C660   C137    1.415   1_556 S
C660   C140    1.425   1_556 S
C661   C665    1.418   .     A
C661   C668    1.428   .     A
C662   C666    1.400   .     A
C663   C664    1.392   .     A
C663   C131    1.401   1_556 S
C663   C140    1.416   1_556 S
C664   C665    1.389   .     A
C665   Cl696   1.765   .     S
C666   H669    1.075   .     S
C667   N693    1.439   .     S
C673   C682    1.401   .     A
C673   H674    1.083   .     S
C673   C849    1.383   .     S
C675   H676    1.083   .     S
C675   C677    1.401   .     A
C675   C1021   1.383   1_545 S
C677   C678    1.401   .     A
C678   H679    1.083   .     S
C678   C1028   1.383   1_545 S
C680   C682    1.401   .     A
C680   H681    1.083   .     S
C680   C852    1.383   .     S
C683   N692    1.367   .     A
C683   H684    1.082   .     S
C683   C569    1.416   1_655 S
C685   N687    1.367   .     A
C685   H686    1.082   .     S
N687   C688    1.367   .     A
C688   H689    1.082   .     S
C690   N692    1.367   .     A
C690   H691    1.082   .     S
C690   C572    1.416   1_655 S
N693   O694    1.302   .     A
N693   O579    1.300   1_655 S
O697   Cu703   1.965   .     S
O697   C699    1.291   .     A
O698   C699    1.290   .     A
O698   Cu704   1.965   .     S
C699   C740    1.450   .     S
O700   Cu703   1.951   .     S
O700   C702    1.306   .     A
O701   Cu704   1.946   .     S
O701   C702    1.290   .     A
C702   C726    1.482   .     S
Cu703  Cu704   2.675   .     S
Cu703  O707    1.946   .     S
Cu703  N745    2.010   .     S
Cu703  O705    1.965   .     S
Cu704  O708    1.951   .     S
Cu704  O706    1.965   .     S
Cu704  N750    2.010   .     S
O705   C709    1.290   .     A
O706   C709    1.290   .     A
O707   C710    1.294   .     A
O708   C710    1.296   .     A
C709   C735    1.450   .     S
C710   C714    1.470   .     S
C711   C725    1.400   .     A
H712   C722    1.084   .     S
H713   C189    1.083   1_556 S
C714   C725    1.413   .     A
C714   C724    1.402   .     A
C715   C716    1.389   .     A
C715   H728    1.083   .     S
C715   C726    1.402   .     A
C716   C195    1.391   1_556 S
C716   H208    1.081   1_556 S
C717   H729    1.077   .     S
C718   C719    1.418   .     A
C718   C195    1.415   1_556 S
C718   C198    1.425   1_556 S
C719   C723    1.418   .     A
C719   C726    1.428   .     A
C720   C724    1.400   .     A
C721   C722    1.392   .     A
C721   C189    1.401   1_556 S
C721   C198    1.416   1_556 S
C722   C723    1.389   .     A
C723   Cl754   1.765   .     S
C724   H727    1.075   .     S
C725   N751    1.439   .     S
C731   C740    1.401   .     A
C731   H732    1.083   .     S
C731   C907    1.383   .     S
C733   H734    1.083   .     S
C733   C735    1.401   .     A
C735   C736    1.401   .     A
C736   H737    1.083   .     S
C738   C740    1.401   .     A
C738   H739    1.083   .     S
C738   C910    1.383   .     S
C741   N750    1.367   .     A
C741   H742    1.082   .     S
C741   C801    1.416   .     S
C743   N745    1.367   .     A
C743   H744    1.082   .     S
C743   C857    1.416   1_455 S
N745   C746    1.367   .     A
C746   H747    1.082   .     S
C746   C864    1.416   1_455 S
C748   N750    1.367   .     A
C748   H749    1.082   .     S
C748   C804    1.416   .     S
N751   O752    1.302   .     A
N751   O811    1.300   .     S
O753   N867    1.300   1_455 S
O755   Cu761   1.965   .     S
O755   C757    1.291   .     A
O756   C757    1.290   .     A
O756   Cu762   1.965   .     S
C757   C798    1.450   .     S
O758   Cu761   1.951   .     S
O758   C760    1.306   .     A
O759   Cu762   1.946   .     S
O759   C760    1.290   .     A
C760   C784    1.482   .     S
Cu761  Cu762   2.675   .     S
Cu761  O765    1.946   .     S
Cu761  N803    2.010   .     S
Cu761  O763    1.965   .     S
Cu762  O766    1.951   .     S
Cu762  O764    1.965   .     S
Cu762  N808    2.010   .     S
O763   C767    1.290   .     A
O764   C767    1.290   .     A
O765   C768    1.294   .     A
O766   C768    1.296   .     A
C767   C793    1.450   .     S
C768   C772    1.470   .     S
C769   C783    1.400   .     A
H770   C780    1.084   .     S
H771   C247    1.083   1_556 S
C772   C783    1.413   .     A
C772   C782    1.402   .     A
C773   C774    1.389   .     A
C773   H786    1.083   .     S
C773   C784    1.402   .     A
C774   C253    1.391   1_556 S
C774   H266    1.081   1_556 S
C775   H787    1.077   .     S
C776   C777    1.418   .     A
C776   C253    1.415   1_556 S
C776   C256    1.425   1_556 S
C777   C781    1.418   .     A
C777   C784    1.428   .     A
C778   C782    1.400   .     A
C779   C780    1.392   .     A
C779   C247    1.401   1_556 S
C779   C256    1.416   1_556 S
C780   C781    1.389   .     A
C781   Cl812   1.765   .     S
C782   H785    1.075   .     S
C783   N809    1.439   .     S
C789   C798    1.401   .     A
C789   H790    1.083   .     S
C789   C965    1.383   .     S
C791   H792    1.083   .     S
C791   C793    1.401   .     A
C793   C794    1.401   .     A
C794   H795    1.083   .     S
C796   C798    1.401   .     A
C796   H797    1.083   .     S
C796   C968    1.383   .     S
C799   N808    1.367   .     A
C799   H800    1.082   .     S
C799   C859    1.416   .     S
C801   N803    1.367   .     A
C801   H802    1.082   .     S
N803   C804    1.367   .     A
C804   H805    1.082   .     S
C806   N808    1.367   .     A
C806   H807    1.082   .     S
C806   C862    1.416   .     S
N809   O810    1.302   .     A
N809   O869    1.300   .     S
O813   Cu819   1.965   .     S
O813   C815    1.291   .     A
O814   C815    1.290   .     A
O814   Cu820   1.965   .     S
C815   C856    1.450   .     S
O816   Cu819   1.951   .     S
O816   C818    1.306   .     A
O817   Cu820   1.946   .     S
O817   C818    1.290   .     A
C818   C842    1.482   .     S
Cu819  Cu820   2.675   .     S
Cu819  O823    1.946   .     S
Cu819  N861    2.010   .     S
Cu819  O821    1.965   .     S
Cu820  O824    1.951   .     S
Cu820  O822    1.965   .     S
Cu820  N866    2.010   .     S
O821   C825    1.290   .     A
O822   C825    1.290   .     A
O823   C826    1.294   .     A
O824   C826    1.296   .     A
C825   C851    1.450   .     S
C826   C830    1.470   .     S
C827   C841    1.400   .     A
H828   C838    1.084   .     S
H829   C305    1.083   1_556 S
C830   C841    1.413   .     A
C830   C840    1.402   .     A
C831   C832    1.389   .     A
C831   H844    1.083   .     S
C831   C842    1.402   .     A
C832   C311    1.391   1_556 S
C832   H324    1.081   1_556 S
C833   H845    1.077   .     S
C834   C835    1.418   .     A
C834   C311    1.415   1_556 S
C834   C314    1.425   1_556 S
C835   C839    1.418   .     A
C835   C842    1.428   .     A
C836   C840    1.400   .     A
C837   C838    1.392   .     A
C837   C305    1.401   1_556 S
C837   C314    1.416   1_556 S
C838   C839    1.389   .     A
C839   Cl870   1.765   .     S
C840   H843    1.075   .     S
C841   N867    1.439   .     S
C847   C856    1.401   .     A
C847   H848    1.083   .     S
C847   C1023   1.383   .     S
C849   H850    1.083   .     S
C849   C851    1.401   .     A
C851   C852    1.401   .     A
C852   H853    1.083   .     S
C854   C856    1.401   .     A
C854   H855    1.083   .     S
C854   C1026   1.383   .     S
C857   N866    1.367   .     A
C857   H858    1.082   .     S
C857   C743    1.416   1_655 S
C859   N861    1.367   .     A
C859   H860    1.082   .     S
N861   C862    1.367   .     A
C862   H863    1.082   .     S
C864   N866    1.367   .     A
C864   H865    1.082   .     S
C864   C746    1.416   1_655 S
N867   O868    1.302   .     A
N867   O753    1.300   1_655 S
O871   Cu877   1.965   .     S
O871   C873    1.291   .     A
O872   C873    1.290   .     A
O872   Cu878   1.965   .     S
C873   C914    1.450   .     S
O874   Cu877   1.951   .     S
O874   C876    1.306   .     A
O875   Cu878   1.946   .     S
O875   C876    1.290   .     A
C876   C900    1.482   .     S
Cu877  Cu878   2.675   .     S
Cu877  O881    1.946   .     S
Cu877  N919    2.010   .     S
Cu877  O879    1.965   .     S
Cu878  O882    1.951   .     S
Cu878  O880    1.965   .     S
Cu878  N924    2.010   .     S
O879   C883    1.290   .     A
O880   C883    1.290   .     A
O881   C884    1.294   .     A
O882   C884    1.296   .     A
C883   C909    1.450   .     S
C884   C888    1.470   .     S
C885   C899    1.400   .     A
H886   C896    1.084   .     S
H887   C363    1.083   1_556 S
C888   C899    1.413   .     A
C888   C898    1.402   .     A
C889   C890    1.389   .     A
C889   H902    1.083   .     S
C889   C900    1.402   .     A
C890   C369    1.391   1_556 S
C890   H382    1.081   1_556 S
C891   H903    1.077   .     S
C892   C893    1.418   .     A
C892   C369    1.415   1_556 S
C892   C372    1.425   1_556 S
C893   C897    1.418   .     A
C893   C900    1.428   .     A
C894   C898    1.400   .     A
C895   C896    1.392   .     A
C895   C363    1.401   1_556 S
C895   C372    1.416   1_556 S
C896   C897    1.389   .     A
C897   Cl928   1.765   .     S
C898   H901    1.075   .     S
C899   N925    1.439   .     S
C905   C914    1.401   .     A
C905   H906    1.083   .     S
C905   C559    1.383   1_565 S
C907   H908    1.083   .     S
C907   C909    1.401   .     A
C909   C910    1.401   .     A
C910   H911    1.083   .     S
C912   C914    1.401   .     A
C912   H913    1.083   .     S
C912   C562    1.383   1_565 S
C915   N924    1.367   .     A
C915   H916    1.082   .     S
C915   C975    1.416   .     S
C917   N919    1.367   .     A
C917   H918    1.082   .     S
C917   C1031   1.416   1_455 S
N919   C920    1.367   .     A
C920   H921    1.082   .     S
C920   C1038   1.416   1_455 S
C922   N924    1.367   .     A
C922   H923    1.082   .     S
C922   C978    1.416   .     S
N925   O926    1.302   .     A
N925   O985    1.300   .     S
O927   N1041   1.300   1_455 S
O929   Cu935   1.965   .     S
O929   C931    1.291   .     A
O930   C931    1.290   .     A
O930   Cu936   1.965   .     S
C931   C972    1.450   .     S
O932   Cu935   1.951   .     S
O932   C934    1.306   .     A
O933   Cu936   1.946   .     S
O933   C934    1.290   .     A
C934   C958    1.482   .     S
Cu935  Cu936   2.675   .     S
Cu935  O939    1.946   .     S
Cu935  N977    2.010   .     S
Cu935  O937    1.965   .     S
Cu936  O940    1.951   .     S
Cu936  O938    1.965   .     S
Cu936  N982    2.010   .     S
O937   C941    1.290   .     A
O938   C941    1.290   .     A
O939   C942    1.294   .     A
O940   C942    1.296   .     A
C941   C967    1.450   .     S
C942   C946    1.470   .     S
C943   C957    1.400   .     A
H944   C954    1.084   .     S
H945   C421    1.083   1_556 S
C946   C957    1.413   .     A
C946   C956    1.402   .     A
C947   C948    1.389   .     A
C947   H960    1.083   .     S
C947   C958    1.402   .     A
C948   C427    1.391   1_556 S
C948   H440    1.081   1_556 S
C949   H961    1.077   .     S
C950   C951    1.418   .     A
C950   C427    1.415   1_556 S
C950   C430    1.425   1_556 S
C951   C955    1.418   .     A
C951   C958    1.428   .     A
C952   C956    1.400   .     A
C953   C954    1.392   .     A
C953   C421    1.401   1_556 S
C953   C430    1.416   1_556 S
C954   C955    1.389   .     A
C955   Cl986   1.765   .     S
C956   H959    1.075   .     S
C957   N983    1.439   .     S
C963   C972    1.401   .     A
C963   H964    1.083   .     S
C963   C617    1.383   1_565 S
C965   H966    1.083   .     S
C965   C967    1.401   .     A
C967   C968    1.401   .     A
C968   H969    1.083   .     S
C970   C972    1.401   .     A
C970   H971    1.083   .     S
C970   C620    1.383   1_565 S
C973   N982    1.367   .     A
C973   H974    1.082   .     S
C973   C1033   1.416   .     S
C975   N977    1.367   .     A
C975   H976    1.082   .     S
N977   C978    1.367   .     A
C978   H979    1.082   .     S
C980   N982    1.367   .     A
C980   H981    1.082   .     S
C980   C1036   1.416   .     S
N983   O984    1.302   .     A
N983   O1043   1.300   .     S
O987   Cu993   1.965   .     S
O987   C989    1.291   .     A
O988   C989    1.290   .     A
O988   Cu994   1.965   .     S
C989   C1030   1.450   .     S
O990   Cu993   1.951   .     S
O990   C992    1.306   .     A
O991   Cu994   1.946   .     S
O991   C992    1.290   .     A
C992   C1016   1.482   .     S
Cu993  Cu994   2.675   .     S
Cu993  O997    1.946   .     S
Cu993  N1035   2.010   .     S
Cu993  O995    1.965   .     S
Cu994  O998    1.951   .     S
Cu994  O996    1.965   .     S
Cu994  N1040   2.010   .     S
O995   C999    1.290   .     A
O996   C999    1.290   .     A
O997   C1000   1.294   .     A
O998   C1000   1.296   .     A
C999   C1025   1.450   .     S
C1000  C1004   1.470   .     S
C1001  C1015   1.400   .     A
H1002  C1012   1.084   .     S
H1003  C479    1.083   1_556 S
C1004  C1015   1.413   .     A
C1004  C1014   1.402   .     A
C1005  C1006   1.389   .     A
C1005  H1018   1.083   .     S
C1005  C1016   1.402   .     A
C1006  C485    1.391   1_556 S
C1006  H498    1.081   1_556 S
C1007  H1019   1.077   .     S
C1008  C1009   1.418   .     A
C1008  C485    1.415   1_556 S
C1008  C488    1.425   1_556 S
C1009  C1013   1.418   .     A
C1009  C1016   1.428   .     A
C1010  C1014   1.400   .     A
C1011  C1012   1.392   .     A
C1011  C479    1.401   1_556 S
C1011  C488    1.416   1_556 S
C1012  C1013   1.389   .     A
C1013  Cl1044  1.765   .     S
C1014  H1017   1.075   .     S
C1015  N1041   1.439   .     S
C1021  C1030   1.401   .     A
C1021  H1022   1.083   .     S
C1021  C675    1.383   1_565 S
C1023  H1024   1.083   .     S
C1023  C1025   1.401   .     A
C1025  C1026   1.401   .     A
C1026  H1027   1.083   .     S
C1028  C1030   1.401   .     A
C1028  H1029   1.083   .     S
C1028  C678    1.383   1_565 S
C1031  N1040   1.367   .     A
C1031  H1032   1.082   .     S
C1031  C917    1.416   1_655 S
C1033  N1035   1.367   .     A
C1033  H1034   1.082   .     S
N1035  C1036   1.367   .     A
C1036  H1037   1.082   .     S
C1038  N1040   1.367   .     A
C1038  H1039   1.082   .     S
C1038  C920    1.416   1_655 S
N1041  O1042   1.302   .     A
N1041  O927    1.300   1_655 S
