data_str_m3_o10_o17_pcu_sym.197
_audit_creation_date              2020-01-03
_audit_creation_method            'Materials Studio'
_symmetry_space_group_name_H-M    'P1'
_symmetry_Int_Tables_number       1
_symmetry_cell_setting            triclinic
loop_
_symmetry_equiv_pos_as_xyz
  x,y,z
_cell_length_a                    23.7228
_cell_length_b                    26.2165
_cell_length_c                    29.7368
_cell_angle_alpha                 90.2609
_cell_angle_beta                  86.8923
_cell_angle_gamma                 91.6057
loop_
_atom_site_label
_atom_site_type_symbol
_atom_site_fract_x
_atom_site_fract_y
_atom_site_fract_z
_atom_site_U_iso_or_equiv
_atom_site_adp_type
_atom_site_occupancy
C1     C     0.18112   0.26439   0.25012   0.00000  Uiso   1.00
C2     C     0.15234   0.06899   0.25118   0.00000  Uiso   1.00
C3     C     0.24916   0.22594   0.47094   0.00000  Uiso   1.00
C4     C     0.12167   0.08109   0.02857   0.00000  Uiso   1.00
C5     C     0.18838   0.31820   0.25555   0.00000  Uiso   1.00
C6     C     0.14506   0.01520   0.24723   0.00000  Uiso   1.00
C7     C     0.16754   0.16408   0.33629   0.00000  Uiso   1.00
C8     C     0.16583   0.16867   0.16382   0.00000  Uiso   1.00
C9     C     0.14237   0.12826   0.09537   0.00000  Uiso   1.00
C10    C     0.21070   0.19030   0.40412   0.00000  Uiso   1.00
C11    C     0.16411   0.17104   0.11592   0.00000  Uiso   1.00
C12    C     0.17108   0.15894   0.38411   0.00000  Uiso   1.00
C13    C     0.19129   0.21123   0.09130   0.00000  Uiso   1.00
C14    C     0.13803   0.12255   0.40931   0.00000  Uiso   1.00
C15    C     0.20336   0.20413   0.04433   0.00000  Uiso   1.00
C16    C     0.14821   0.11740   0.45548   0.00000  Uiso   1.00
C17    C     0.17665   0.16148   0.02340   0.00000  Uiso   1.00
C18    C     0.17949   0.15662   0.47654   0.00000  Uiso   1.00
C19    C     0.14577   0.12405   0.04910   0.00000  Uiso   1.00
C20    C     0.21289   0.19131   0.45049   0.00000  Uiso   1.00
C21    C     0.24260   0.23525   0.01751   0.00000  Uiso   1.00
C22    C     0.12759   0.07565   0.48178   0.00000  Uiso   1.00
H23    H     0.12382   0.09765   0.11610   0.00000  Uiso   1.00
H24    H     0.23626   0.21725   0.38364   0.00000  Uiso   1.00
N25    N     0.31678   0.15265   0.23783   0.00000  Uiso   1.00
N26    N     0.01656   0.18068   0.26217   0.00000  Uiso   1.00
O27    O     0.12975   0.24619   0.25298   0.00000  Uiso   1.00
O28    O     0.20358   0.08714   0.24701   0.00000  Uiso   1.00
O29    O     0.22613   0.23721   0.24518   0.00000  Uiso   1.00
O30    O     0.10720   0.09613   0.25481   0.00000  Uiso   1.00
O31    O     0.11847   0.17117   0.31997   0.00000  Uiso   1.00
O32    O     0.21486   0.16216   0.18002   0.00000  Uiso   1.00
O33    O     0.21485   0.16219   0.31217   0.00000  Uiso   1.00
O34    O     0.11848   0.17115   0.18782   0.00000  Uiso   1.00
Zn35   Zn    0.10231   0.17266   0.25521   0.00000  Uiso   1.00
Zn36   Zn    0.23102   0.16067   0.24479   0.00000  Uiso   1.00
C37    C     0.20086   0.26167   0.11507   0.00000  Uiso   1.00
H38    H     0.18264   0.29297   0.09600   0.00000  Uiso   1.00
H39    H     0.17980   0.26269   0.14914   0.00000  Uiso   1.00
H40    H     0.24602   0.26878   0.11999   0.00000  Uiso   1.00
C41    C     0.08850   0.09511   0.38843   0.00000  Uiso   1.00
H42    H     0.10363   0.06718   0.36269   0.00000  Uiso   1.00
H43    H     0.05937   0.07595   0.41361   0.00000  Uiso   1.00
H44    H     0.06124   0.12282   0.37282   0.00000  Uiso   1.00
C45    C     0.28254   0.27407   0.03713   0.00000  Uiso   1.00
H46    H     0.25931   0.30753   0.05008   0.00000  Uiso   1.00
H47    H     0.30715   0.25591   0.06310   0.00000  Uiso   1.00
H48    H     0.31393   0.29025   0.01198   0.00000  Uiso   1.00
C49    C     0.12265   0.02306   0.46211   0.00000  Uiso   1.00
H50    H     0.07767   0.01197   0.45976   0.00000  Uiso   1.00
H51    H     0.14456   0.02146   0.42832   0.00000  Uiso   1.00
H52    H     0.14324   0.32844   0.48344   0.00000  Uiso   1.00
O53    O     0.29526   0.24656   0.44614   0.00000  Uiso   1.00
C54    C     0.00419   0.20927   0.44287   0.00000  Uiso   1.00
H55    H     0.00127   0.18797   0.41066   0.00000  Uiso   1.00
H56    H     0.00065   0.18043   0.47064   0.00000  Uiso   1.00
C57    C     0.06227   0.23492   0.44531   0.00000  Uiso   1.00
H58    H     0.06245   0.26184   0.47405   0.00000  Uiso   1.00
H59    H     0.09264   0.20555   0.45228   0.00000  Uiso   1.00
C60    C     0.08163   0.26130   0.40145   0.00000  Uiso   1.00
H61    H     0.12608   0.27494   0.40303   0.00000  Uiso   1.00
H62    H     0.05416   0.29355   0.39440   0.00000  Uiso   1.00
H63    H     0.08080   0.23368   0.37366   0.00000  Uiso   1.00
O64    O     0.09598   0.04284   0.05506   0.00000  Uiso   1.00
C65    C     0.03660   0.04425   0.05261   0.00000  Uiso   1.00
H66    H     0.01901   0.01040   0.07112   0.00000  Uiso   1.00
H67    H     0.02326   0.04106   0.01746   0.00000  Uiso   1.00
C68    C     0.01115   0.09191   0.07491   0.00000  Uiso   1.00
H69    H     0.02722   0.09697   0.10889   0.00000  Uiso   1.00
H70    H     0.02335   0.12632   0.05455   0.00000  Uiso   1.00
C71    C     0.28035   0.08729   0.07923   0.00000  Uiso   1.00
H72    H     0.26291   0.08262   0.04549   0.00000  Uiso   1.00
H73    H     0.26401   0.12253   0.09515   0.00000  Uiso   1.00
H74    H     0.26643   0.05433   0.10082   0.00000  Uiso   1.00
O75    O     0.24130   0.00444   0.26596   0.00000  Uiso   1.00
C76    C     0.25330   0.32579   0.31083   0.00000  Uiso   1.00
H77    H     0.29794   0.31402   0.31050   0.00000  Uiso   1.00
H78    H     0.22683   0.29372   0.32597   0.00000  Uiso   1.00
C79    C     0.24704   0.03983   0.34069   0.00000  Uiso   1.00
H80    H     0.27348   0.07178   0.32576   0.00000  Uiso   1.00
H81    H     0.20227   0.05116   0.34241   0.00000  Uiso   1.00
C82    C     0.26511   0.02988   0.38827   0.00000  Uiso   1.00
H83    H     0.24006   0.33075   0.40370   0.00000  Uiso   1.00
H84    H     0.25829   0.06442   0.40942   0.00000  Uiso   1.00
H85    H     0.31058   0.02088   0.38746   0.00000  Uiso   1.00
O86    O     0.09209   0.32942   0.23697   0.00000  Uiso   1.00
C87    C     0.08327   0.00513   0.19102   0.00000  Uiso   1.00
H88    H     0.10396   0.30881   0.16978   0.00000  Uiso   1.00
H89    H     0.10031   0.04292   0.17900   0.00000  Uiso   1.00
C90    C     0.02006   0.00345   0.18424   0.00000  Uiso   1.00
H91    H     0.33150   0.02761   0.21009   0.00000  Uiso   1.00
H92    H     0.01202   0.01867   0.15060   0.00000  Uiso   1.00
C93    C     0.32913   0.28274   0.18779   0.00000  Uiso   1.00
H94    H     0.01362   0.25893   0.15982   0.00000  Uiso   1.00
H95    H     0.28289   0.28400   0.18567   0.00000  Uiso   1.00
H96    H     0.00500   0.26603   0.22063   0.00000  Uiso   1.00
C97    C     0.00558   0.13621   0.19447   0.00000  Uiso   1.00
H98    H     0.30601   0.11263   0.17854   0.00000  Uiso   1.00
H99    H     0.01610   0.16950   0.17246   0.00000  Uiso   1.00
H100   H     0.04181   0.11160   0.19777   0.00000  Uiso   1.00
C101   C     0.32710   0.19899   0.30472   0.00000  Uiso   1.00
H102   H     0.02520   0.22543   0.31869   0.00000  Uiso   1.00
H103   H     0.28997   0.22211   0.30060   0.00000  Uiso   1.00
H104   H     0.31833   0.16675   0.32835   0.00000  Uiso   1.00
C105   C     0.51445   0.26439   0.25012   0.00000  Uiso   1.00
C106   C     0.48567   0.06899   0.25118   0.00000  Uiso   1.00
C107   C     0.58249   0.22594   0.47094   0.00000  Uiso   1.00
C108   C     0.45501   0.08109   0.02857   0.00000  Uiso   1.00
C109   C     0.52171   0.31820   0.25555   0.00000  Uiso   1.00
C110   C     0.47839   0.01520   0.24723   0.00000  Uiso   1.00
C111   C     0.50087   0.16408   0.33629   0.00000  Uiso   1.00
C112   C     0.49916   0.16867   0.16382   0.00000  Uiso   1.00
C113   C     0.47570   0.12826   0.09537   0.00000  Uiso   1.00
C114   C     0.54403   0.19030   0.40412   0.00000  Uiso   1.00
C115   C     0.49744   0.17104   0.11592   0.00000  Uiso   1.00
C116   C     0.50441   0.15894   0.38411   0.00000  Uiso   1.00
C117   C     0.52462   0.21123   0.09130   0.00000  Uiso   1.00
C118   C     0.47136   0.12255   0.40931   0.00000  Uiso   1.00
C119   C     0.53670   0.20413   0.04433   0.00000  Uiso   1.00
C120   C     0.48155   0.11740   0.45548   0.00000  Uiso   1.00
C121   C     0.50998   0.16148   0.02340   0.00000  Uiso   1.00
C122   C     0.51283   0.15662   0.47654   0.00000  Uiso   1.00
C123   C     0.47910   0.12405   0.04910   0.00000  Uiso   1.00
C124   C     0.54623   0.19131   0.45049   0.00000  Uiso   1.00
C125   C     0.57593   0.23525   0.01751   0.00000  Uiso   1.00
C126   C     0.46092   0.07565   0.48178   0.00000  Uiso   1.00
H127   H     0.45715   0.09765   0.11610   0.00000  Uiso   1.00
H128   H     0.56960   0.21725   0.38364   0.00000  Uiso   1.00
N129   N     0.65011   0.15265   0.23783   0.00000  Uiso   1.00
N130   N     0.34989   0.18068   0.26217   0.00000  Uiso   1.00
O131   O     0.46308   0.24619   0.25298   0.00000  Uiso   1.00
O132   O     0.53692   0.08714   0.24701   0.00000  Uiso   1.00
O133   O     0.55946   0.23721   0.24518   0.00000  Uiso   1.00
O134   O     0.44054   0.09613   0.25481   0.00000  Uiso   1.00
O135   O     0.45181   0.17117   0.31997   0.00000  Uiso   1.00
O136   O     0.54819   0.16216   0.18002   0.00000  Uiso   1.00
O137   O     0.54819   0.16219   0.31217   0.00000  Uiso   1.00
O138   O     0.45181   0.17115   0.18782   0.00000  Uiso   1.00
Zn139  Zn    0.43565   0.17266   0.25521   0.00000  Uiso   1.00
Zn140  Zn    0.56435   0.16067   0.24479   0.00000  Uiso   1.00
C141   C     0.53419   0.26167   0.11507   0.00000  Uiso   1.00
H142   H     0.51598   0.29297   0.09600   0.00000  Uiso   1.00
H143   H     0.51314   0.26269   0.14914   0.00000  Uiso   1.00
H144   H     0.57935   0.26878   0.11999   0.00000  Uiso   1.00
C145   C     0.42184   0.09511   0.38843   0.00000  Uiso   1.00
H146   H     0.43697   0.06718   0.36269   0.00000  Uiso   1.00
H147   H     0.39270   0.07595   0.41361   0.00000  Uiso   1.00
H148   H     0.39457   0.12282   0.37282   0.00000  Uiso   1.00
C149   C     0.61587   0.27407   0.03713   0.00000  Uiso   1.00
H150   H     0.59264   0.30753   0.05008   0.00000  Uiso   1.00
H151   H     0.64048   0.25591   0.06310   0.00000  Uiso   1.00
H152   H     0.64726   0.29025   0.01198   0.00000  Uiso   1.00
C153   C     0.45598   0.02306   0.46211   0.00000  Uiso   1.00
H154   H     0.41100   0.01197   0.45976   0.00000  Uiso   1.00
H155   H     0.47789   0.02146   0.42832   0.00000  Uiso   1.00
H156   H     0.47657   0.32844   0.48344   0.00000  Uiso   1.00
O157   O     0.62859   0.24656   0.44614   0.00000  Uiso   1.00
C158   C     0.33752   0.20927   0.44287   0.00000  Uiso   1.00
H159   H     0.33460   0.18797   0.41066   0.00000  Uiso   1.00
H160   H     0.33398   0.18043   0.47064   0.00000  Uiso   1.00
C161   C     0.39560   0.23492   0.44531   0.00000  Uiso   1.00
H162   H     0.39578   0.26184   0.47405   0.00000  Uiso   1.00
H163   H     0.42597   0.20555   0.45228   0.00000  Uiso   1.00
C164   C     0.41497   0.26130   0.40145   0.00000  Uiso   1.00
H165   H     0.45942   0.27494   0.40303   0.00000  Uiso   1.00
H166   H     0.38750   0.29355   0.39440   0.00000  Uiso   1.00
H167   H     0.41414   0.23368   0.37366   0.00000  Uiso   1.00
O168   O     0.42931   0.04284   0.05506   0.00000  Uiso   1.00
C169   C     0.36993   0.04425   0.05261   0.00000  Uiso   1.00
H170   H     0.35235   0.01040   0.07112   0.00000  Uiso   1.00
H171   H     0.35659   0.04106   0.01746   0.00000  Uiso   1.00
C172   C     0.34448   0.09191   0.07491   0.00000  Uiso   1.00
H173   H     0.36056   0.09697   0.10889   0.00000  Uiso   1.00
H174   H     0.35668   0.12632   0.05455   0.00000  Uiso   1.00
C175   C     0.61369   0.08729   0.07923   0.00000  Uiso   1.00
H176   H     0.59624   0.08262   0.04549   0.00000  Uiso   1.00
H177   H     0.59734   0.12253   0.09515   0.00000  Uiso   1.00
H178   H     0.59976   0.05433   0.10082   0.00000  Uiso   1.00
O179   O     0.57464   0.00444   0.26596   0.00000  Uiso   1.00
C180   C     0.58663   0.32579   0.31083   0.00000  Uiso   1.00
H181   H     0.63127   0.31402   0.31050   0.00000  Uiso   1.00
H182   H     0.56016   0.29372   0.32597   0.00000  Uiso   1.00
C183   C     0.58038   0.03983   0.34069   0.00000  Uiso   1.00
H184   H     0.60681   0.07178   0.32576   0.00000  Uiso   1.00
H185   H     0.53560   0.05116   0.34241   0.00000  Uiso   1.00
C186   C     0.59845   0.02988   0.38827   0.00000  Uiso   1.00
H187   H     0.57339   0.33075   0.40370   0.00000  Uiso   1.00
H188   H     0.59162   0.06442   0.40942   0.00000  Uiso   1.00
H189   H     0.64392   0.02088   0.38746   0.00000  Uiso   1.00
O190   O     0.42542   0.32942   0.23697   0.00000  Uiso   1.00
C191   C     0.41660   0.00513   0.19102   0.00000  Uiso   1.00
H192   H     0.43729   0.30881   0.16978   0.00000  Uiso   1.00
H193   H     0.43364   0.04292   0.17900   0.00000  Uiso   1.00
C194   C     0.35339   0.00345   0.18424   0.00000  Uiso   1.00
H195   H     0.66484   0.02761   0.21009   0.00000  Uiso   1.00
H196   H     0.34536   0.01867   0.15060   0.00000  Uiso   1.00
C197   C     0.66246   0.28274   0.18779   0.00000  Uiso   1.00
H198   H     0.34696   0.25893   0.15982   0.00000  Uiso   1.00
H199   H     0.61622   0.28400   0.18567   0.00000  Uiso   1.00
H200   H     0.33834   0.26603   0.22063   0.00000  Uiso   1.00
C201   C     0.33891   0.13621   0.19447   0.00000  Uiso   1.00
H202   H     0.63934   0.11263   0.17854   0.00000  Uiso   1.00
H203   H     0.34943   0.16950   0.17246   0.00000  Uiso   1.00
H204   H     0.37514   0.11160   0.19777   0.00000  Uiso   1.00
C205   C     0.66043   0.19899   0.30472   0.00000  Uiso   1.00
H206   H     0.35854   0.22543   0.31869   0.00000  Uiso   1.00
H207   H     0.62331   0.22211   0.30060   0.00000  Uiso   1.00
H208   H     0.65166   0.16675   0.32835   0.00000  Uiso   1.00
C209   C     0.84779   0.26439   0.25012   0.00000  Uiso   1.00
C210   C     0.81901   0.06899   0.25118   0.00000  Uiso   1.00
C211   C     0.91582   0.22594   0.47094   0.00000  Uiso   1.00
C212   C     0.78834   0.08109   0.02857   0.00000  Uiso   1.00
C213   C     0.85505   0.31820   0.25555   0.00000  Uiso   1.00
C214   C     0.81173   0.01520   0.24723   0.00000  Uiso   1.00
C215   C     0.83420   0.16408   0.33629   0.00000  Uiso   1.00
C216   C     0.83250   0.16867   0.16382   0.00000  Uiso   1.00
C217   C     0.80904   0.12826   0.09537   0.00000  Uiso   1.00
C218   C     0.87737   0.19030   0.40412   0.00000  Uiso   1.00
C219   C     0.83078   0.17104   0.11592   0.00000  Uiso   1.00
C220   C     0.83774   0.15894   0.38411   0.00000  Uiso   1.00
C221   C     0.85796   0.21123   0.09130   0.00000  Uiso   1.00
C222   C     0.80469   0.12255   0.40931   0.00000  Uiso   1.00
C223   C     0.87003   0.20413   0.04433   0.00000  Uiso   1.00
C224   C     0.81488   0.11740   0.45548   0.00000  Uiso   1.00
C225   C     0.84332   0.16148   0.02340   0.00000  Uiso   1.00
C226   C     0.84616   0.15662   0.47654   0.00000  Uiso   1.00
C227   C     0.81243   0.12405   0.04910   0.00000  Uiso   1.00
C228   C     0.87956   0.19131   0.45049   0.00000  Uiso   1.00
C229   C     0.90927   0.23525   0.01751   0.00000  Uiso   1.00
C230   C     0.79425   0.07565   0.48178   0.00000  Uiso   1.00
H231   H     0.79048   0.09765   0.11610   0.00000  Uiso   1.00
H232   H     0.90293   0.21725   0.38364   0.00000  Uiso   1.00
N233   N     0.98344   0.15265   0.23783   0.00000  Uiso   1.00
N234   N     0.68322   0.18068   0.26217   0.00000  Uiso   1.00
O235   O     0.79642   0.24619   0.25298   0.00000  Uiso   1.00
O236   O     0.87025   0.08714   0.24701   0.00000  Uiso   1.00
O237   O     0.89280   0.23721   0.24518   0.00000  Uiso   1.00
O238   O     0.77387   0.09613   0.25481   0.00000  Uiso   1.00
O239   O     0.78514   0.17117   0.31997   0.00000  Uiso   1.00
O240   O     0.88153   0.16216   0.18002   0.00000  Uiso   1.00
O241   O     0.88152   0.16219   0.31217   0.00000  Uiso   1.00
O242   O     0.78515   0.17115   0.18782   0.00000  Uiso   1.00
Zn243  Zn    0.76898   0.17266   0.25521   0.00000  Uiso   1.00
Zn244  Zn    0.89769   0.16067   0.24479   0.00000  Uiso   1.00
C245   C     0.86752   0.26167   0.11507   0.00000  Uiso   1.00
H246   H     0.84931   0.29297   0.09600   0.00000  Uiso   1.00
H247   H     0.84647   0.26269   0.14914   0.00000  Uiso   1.00
H248   H     0.91268   0.26878   0.11999   0.00000  Uiso   1.00
C249   C     0.75517   0.09511   0.38843   0.00000  Uiso   1.00
H250   H     0.77030   0.06718   0.36269   0.00000  Uiso   1.00
H251   H     0.72604   0.07595   0.41361   0.00000  Uiso   1.00
H252   H     0.72790   0.12282   0.37282   0.00000  Uiso   1.00
C253   C     0.94920   0.27407   0.03713   0.00000  Uiso   1.00
H254   H     0.92598   0.30753   0.05008   0.00000  Uiso   1.00
H255   H     0.97381   0.25591   0.06310   0.00000  Uiso   1.00
H256   H     0.98059   0.29025   0.01198   0.00000  Uiso   1.00
C257   C     0.78932   0.02306   0.46211   0.00000  Uiso   1.00
H258   H     0.74433   0.01197   0.45976   0.00000  Uiso   1.00
H259   H     0.81122   0.02146   0.42832   0.00000  Uiso   1.00
H260   H     0.80990   0.32844   0.48344   0.00000  Uiso   1.00
O261   O     0.96192   0.24656   0.44614   0.00000  Uiso   1.00
C262   C     0.67086   0.20927   0.44287   0.00000  Uiso   1.00
H263   H     0.66793   0.18797   0.41066   0.00000  Uiso   1.00
H264   H     0.66732   0.18043   0.47064   0.00000  Uiso   1.00
C265   C     0.72894   0.23492   0.44531   0.00000  Uiso   1.00
H266   H     0.72912   0.26184   0.47405   0.00000  Uiso   1.00
H267   H     0.75931   0.20555   0.45228   0.00000  Uiso   1.00
C268   C     0.74830   0.26130   0.40145   0.00000  Uiso   1.00
H269   H     0.79275   0.27494   0.40303   0.00000  Uiso   1.00
H270   H     0.72083   0.29355   0.39440   0.00000  Uiso   1.00
H271   H     0.74747   0.23368   0.37366   0.00000  Uiso   1.00
O272   O     0.76265   0.04284   0.05506   0.00000  Uiso   1.00
C273   C     0.70326   0.04425   0.05261   0.00000  Uiso   1.00
H274   H     0.68568   0.01040   0.07112   0.00000  Uiso   1.00
H275   H     0.68993   0.04106   0.01746   0.00000  Uiso   1.00
C276   C     0.67782   0.09191   0.07491   0.00000  Uiso   1.00
H277   H     0.69389   0.09697   0.10889   0.00000  Uiso   1.00
H278   H     0.69001   0.12632   0.05455   0.00000  Uiso   1.00
C279   C     0.94702   0.08729   0.07923   0.00000  Uiso   1.00
H280   H     0.92957   0.08262   0.04549   0.00000  Uiso   1.00
H281   H     0.93068   0.12253   0.09515   0.00000  Uiso   1.00
H282   H     0.93309   0.05433   0.10082   0.00000  Uiso   1.00
O283   O     0.90797   0.00444   0.26596   0.00000  Uiso   1.00
C284   C     0.91997   0.32579   0.31083   0.00000  Uiso   1.00
H285   H     0.96461   0.31402   0.31050   0.00000  Uiso   1.00
H286   H     0.89349   0.29372   0.32597   0.00000  Uiso   1.00
C287   C     0.91371   0.03983   0.34069   0.00000  Uiso   1.00
H288   H     0.94014   0.07178   0.32576   0.00000  Uiso   1.00
H289   H     0.86894   0.05116   0.34241   0.00000  Uiso   1.00
C290   C     0.93178   0.02988   0.38827   0.00000  Uiso   1.00
H291   H     0.90673   0.33075   0.40370   0.00000  Uiso   1.00
H292   H     0.92496   0.06442   0.40942   0.00000  Uiso   1.00
H293   H     0.97725   0.02088   0.38746   0.00000  Uiso   1.00
O294   O     0.75875   0.32942   0.23697   0.00000  Uiso   1.00
C295   C     0.74993   0.00513   0.19102   0.00000  Uiso   1.00
H296   H     0.77063   0.30881   0.16978   0.00000  Uiso   1.00
H297   H     0.76698   0.04292   0.17900   0.00000  Uiso   1.00
C298   C     0.68673   0.00345   0.18424   0.00000  Uiso   1.00
H299   H     0.99817   0.02761   0.21009   0.00000  Uiso   1.00
H300   H     0.67869   0.01867   0.15060   0.00000  Uiso   1.00
C301   C     0.99579   0.28274   0.18779   0.00000  Uiso   1.00
H302   H     0.68029   0.25893   0.15982   0.00000  Uiso   1.00
H303   H     0.94955   0.28400   0.18567   0.00000  Uiso   1.00
H304   H     0.67167   0.26603   0.22063   0.00000  Uiso   1.00
C305   C     0.67225   0.13621   0.19447   0.00000  Uiso   1.00
H306   H     0.97267   0.11263   0.17854   0.00000  Uiso   1.00
H307   H     0.68276   0.16950   0.17246   0.00000  Uiso   1.00
H308   H     0.70848   0.11160   0.19777   0.00000  Uiso   1.00
C309   C     0.99377   0.19899   0.30472   0.00000  Uiso   1.00
H310   H     0.69187   0.22543   0.31869   0.00000  Uiso   1.00
H311   H     0.95664   0.22211   0.30060   0.00000  Uiso   1.00
H312   H     0.98499   0.16675   0.32835   0.00000  Uiso   1.00
C313   C     0.18112   0.59772   0.25012   0.00000  Uiso   1.00
C314   C     0.15234   0.40232   0.25118   0.00000  Uiso   1.00
C315   C     0.24916   0.55927   0.47094   0.00000  Uiso   1.00
C316   C     0.12167   0.41442   0.02857   0.00000  Uiso   1.00
C317   C     0.18838   0.65154   0.25555   0.00000  Uiso   1.00
C318   C     0.14506   0.34853   0.24723   0.00000  Uiso   1.00
C319   C     0.16754   0.49741   0.33629   0.00000  Uiso   1.00
C320   C     0.16583   0.50200   0.16382   0.00000  Uiso   1.00
C321   C     0.14237   0.46159   0.09537   0.00000  Uiso   1.00
C322   C     0.21070   0.52363   0.40412   0.00000  Uiso   1.00
C323   C     0.16411   0.50437   0.11592   0.00000  Uiso   1.00
C324   C     0.17108   0.49227   0.38411   0.00000  Uiso   1.00
C325   C     0.19129   0.54457   0.09130   0.00000  Uiso   1.00
C326   C     0.13803   0.45588   0.40931   0.00000  Uiso   1.00
C327   C     0.20336   0.53747   0.04433   0.00000  Uiso   1.00
C328   C     0.14821   0.45073   0.45548   0.00000  Uiso   1.00
C329   C     0.17665   0.49481   0.02340   0.00000  Uiso   1.00
C330   C     0.17949   0.48995   0.47654   0.00000  Uiso   1.00
C331   C     0.14577   0.45739   0.04910   0.00000  Uiso   1.00
C332   C     0.21289   0.52464   0.45049   0.00000  Uiso   1.00
C333   C     0.24260   0.56859   0.01751   0.00000  Uiso   1.00
C334   C     0.12759   0.40898   0.48178   0.00000  Uiso   1.00
H335   H     0.12382   0.43098   0.11610   0.00000  Uiso   1.00
H336   H     0.23626   0.55059   0.38364   0.00000  Uiso   1.00
N337   N     0.31678   0.48598   0.23783   0.00000  Uiso   1.00
N338   N     0.01656   0.51402   0.26217   0.00000  Uiso   1.00
O339   O     0.12975   0.57952   0.25298   0.00000  Uiso   1.00
O340   O     0.20358   0.42048   0.24701   0.00000  Uiso   1.00
O341   O     0.22613   0.57054   0.24518   0.00000  Uiso   1.00
O342   O     0.10720   0.42946   0.25481   0.00000  Uiso   1.00
O343   O     0.11847   0.50450   0.31997   0.00000  Uiso   1.00
O344   O     0.21486   0.49550   0.18002   0.00000  Uiso   1.00
O345   O     0.21485   0.49552   0.31217   0.00000  Uiso   1.00
O346   O     0.11848   0.50448   0.18782   0.00000  Uiso   1.00
Zn347  Zn    0.10231   0.50600   0.25521   0.00000  Uiso   1.00
Zn348  Zn    0.23102   0.49400   0.24479   0.00000  Uiso   1.00
C349   C     0.20086   0.59500   0.11507   0.00000  Uiso   1.00
H350   H     0.18264   0.62630   0.09600   0.00000  Uiso   1.00
H351   H     0.17980   0.59602   0.14914   0.00000  Uiso   1.00
H352   H     0.24602   0.60212   0.11999   0.00000  Uiso   1.00
C353   C     0.08850   0.42845   0.38843   0.00000  Uiso   1.00
H354   H     0.10363   0.40051   0.36269   0.00000  Uiso   1.00
H355   H     0.05937   0.40928   0.41361   0.00000  Uiso   1.00
H356   H     0.06124   0.45615   0.37282   0.00000  Uiso   1.00
C357   C     0.28254   0.60740   0.03713   0.00000  Uiso   1.00
H358   H     0.25931   0.64086   0.05008   0.00000  Uiso   1.00
H359   H     0.30715   0.58924   0.06310   0.00000  Uiso   1.00
H360   H     0.31393   0.62358   0.01198   0.00000  Uiso   1.00
C361   C     0.12265   0.35639   0.46211   0.00000  Uiso   1.00
H362   H     0.07767   0.34531   0.45976   0.00000  Uiso   1.00
H363   H     0.14456   0.35480   0.42832   0.00000  Uiso   1.00
H364   H     0.14324   0.66178   0.48344   0.00000  Uiso   1.00
O365   O     0.29526   0.57990   0.44614   0.00000  Uiso   1.00
C366   C     0.00419   0.54260   0.44287   0.00000  Uiso   1.00
H367   H     0.00127   0.52130   0.41066   0.00000  Uiso   1.00
H368   H     0.00065   0.51376   0.47064   0.00000  Uiso   1.00
C369   C     0.06227   0.56826   0.44531   0.00000  Uiso   1.00
H370   H     0.06245   0.59518   0.47405   0.00000  Uiso   1.00
H371   H     0.09264   0.53889   0.45228   0.00000  Uiso   1.00
C372   C     0.08163   0.59464   0.40145   0.00000  Uiso   1.00
H373   H     0.12608   0.60828   0.40303   0.00000  Uiso   1.00
H374   H     0.05416   0.62689   0.39440   0.00000  Uiso   1.00
H375   H     0.08080   0.56701   0.37366   0.00000  Uiso   1.00
O376   O     0.09598   0.37618   0.05506   0.00000  Uiso   1.00
C377   C     0.03660   0.37758   0.05261   0.00000  Uiso   1.00
H378   H     0.01901   0.34373   0.07112   0.00000  Uiso   1.00
H379   H     0.02326   0.37440   0.01746   0.00000  Uiso   1.00
C380   C     0.01115   0.42524   0.07491   0.00000  Uiso   1.00
H381   H     0.02722   0.43031   0.10889   0.00000  Uiso   1.00
H382   H     0.02335   0.45965   0.05455   0.00000  Uiso   1.00
C383   C     0.28035   0.42062   0.07923   0.00000  Uiso   1.00
H384   H     0.26291   0.41595   0.04549   0.00000  Uiso   1.00
H385   H     0.26401   0.45587   0.09515   0.00000  Uiso   1.00
H386   H     0.26643   0.38766   0.10082   0.00000  Uiso   1.00
O387   O     0.24130   0.33777   0.26596   0.00000  Uiso   1.00
C388   C     0.25330   0.65912   0.31083   0.00000  Uiso   1.00
H389   H     0.29794   0.64736   0.31050   0.00000  Uiso   1.00
H390   H     0.22683   0.62705   0.32597   0.00000  Uiso   1.00
C391   C     0.24704   0.37316   0.34069   0.00000  Uiso   1.00
H392   H     0.27348   0.40511   0.32576   0.00000  Uiso   1.00
H393   H     0.20227   0.38449   0.34241   0.00000  Uiso   1.00
C394   C     0.26511   0.36321   0.38827   0.00000  Uiso   1.00
H395   H     0.24006   0.66409   0.40370   0.00000  Uiso   1.00
H396   H     0.25829   0.39775   0.40942   0.00000  Uiso   1.00
H397   H     0.31058   0.35422   0.38746   0.00000  Uiso   1.00
O398   O     0.09209   0.66276   0.23697   0.00000  Uiso   1.00
C399   C     0.08327   0.33847   0.19102   0.00000  Uiso   1.00
H400   H     0.10396   0.64214   0.16978   0.00000  Uiso   1.00
H401   H     0.10031   0.37626   0.17900   0.00000  Uiso   1.00
C402   C     0.02006   0.33678   0.18424   0.00000  Uiso   1.00
H403   H     0.33150   0.36094   0.21009   0.00000  Uiso   1.00
H404   H     0.01202   0.35201   0.15060   0.00000  Uiso   1.00
C405   C     0.32913   0.61607   0.18779   0.00000  Uiso   1.00
H406   H     0.01362   0.59226   0.15982   0.00000  Uiso   1.00
H407   H     0.28289   0.61733   0.18567   0.00000  Uiso   1.00
H408   H     0.00500   0.59937   0.22063   0.00000  Uiso   1.00
C409   C     0.00558   0.46955   0.19447   0.00000  Uiso   1.00
H410   H     0.30601   0.44597   0.17854   0.00000  Uiso   1.00
H411   H     0.01610   0.50284   0.17246   0.00000  Uiso   1.00
H412   H     0.04181   0.44494   0.19777   0.00000  Uiso   1.00
C413   C     0.32710   0.53233   0.30472   0.00000  Uiso   1.00
H414   H     0.02520   0.55877   0.31869   0.00000  Uiso   1.00
H415   H     0.28997   0.55544   0.30060   0.00000  Uiso   1.00
H416   H     0.31833   0.50008   0.32835   0.00000  Uiso   1.00
C417   C     0.51445   0.59772   0.25012   0.00000  Uiso   1.00
C418   C     0.48567   0.40232   0.25118   0.00000  Uiso   1.00
C419   C     0.58249   0.55927   0.47094   0.00000  Uiso   1.00
C420   C     0.45501   0.41442   0.02857   0.00000  Uiso   1.00
C421   C     0.52171   0.65154   0.25555   0.00000  Uiso   1.00
C422   C     0.47839   0.34853   0.24723   0.00000  Uiso   1.00
C423   C     0.50087   0.49741   0.33629   0.00000  Uiso   1.00
C424   C     0.49916   0.50200   0.16382   0.00000  Uiso   1.00
C425   C     0.47570   0.46159   0.09537   0.00000  Uiso   1.00
C426   C     0.54403   0.52363   0.40412   0.00000  Uiso   1.00
C427   C     0.49744   0.50437   0.11592   0.00000  Uiso   1.00
C428   C     0.50441   0.49227   0.38411   0.00000  Uiso   1.00
C429   C     0.52462   0.54457   0.09130   0.00000  Uiso   1.00
C430   C     0.47136   0.45588   0.40931   0.00000  Uiso   1.00
C431   C     0.53670   0.53747   0.04433   0.00000  Uiso   1.00
C432   C     0.48155   0.45073   0.45548   0.00000  Uiso   1.00
C433   C     0.50998   0.49481   0.02340   0.00000  Uiso   1.00
C434   C     0.51283   0.48995   0.47654   0.00000  Uiso   1.00
C435   C     0.47910   0.45739   0.04910   0.00000  Uiso   1.00
C436   C     0.54623   0.52464   0.45049   0.00000  Uiso   1.00
C437   C     0.57593   0.56859   0.01751   0.00000  Uiso   1.00
C438   C     0.46092   0.40898   0.48178   0.00000  Uiso   1.00
H439   H     0.45715   0.43098   0.11610   0.00000  Uiso   1.00
H440   H     0.56960   0.55059   0.38364   0.00000  Uiso   1.00
N441   N     0.65011   0.48598   0.23783   0.00000  Uiso   1.00
N442   N     0.34989   0.51402   0.26217   0.00000  Uiso   1.00
O443   O     0.46308   0.57952   0.25298   0.00000  Uiso   1.00
O444   O     0.53692   0.42048   0.24701   0.00000  Uiso   1.00
O445   O     0.55946   0.57054   0.24518   0.00000  Uiso   1.00
O446   O     0.44054   0.42946   0.25481   0.00000  Uiso   1.00
O447   O     0.45181   0.50450   0.31997   0.00000  Uiso   1.00
O448   O     0.54819   0.49550   0.18002   0.00000  Uiso   1.00
O449   O     0.54819   0.49552   0.31217   0.00000  Uiso   1.00
O450   O     0.45181   0.50448   0.18782   0.00000  Uiso   1.00
Zn451  Zn    0.43565   0.50600   0.25521   0.00000  Uiso   1.00
Zn452  Zn    0.56435   0.49400   0.24479   0.00000  Uiso   1.00
C453   C     0.53419   0.59500   0.11507   0.00000  Uiso   1.00
H454   H     0.51598   0.62630   0.09600   0.00000  Uiso   1.00
H455   H     0.51314   0.59602   0.14914   0.00000  Uiso   1.00
H456   H     0.57935   0.60212   0.11999   0.00000  Uiso   1.00
C457   C     0.42184   0.42845   0.38843   0.00000  Uiso   1.00
H458   H     0.43697   0.40051   0.36269   0.00000  Uiso   1.00
H459   H     0.39270   0.40928   0.41361   0.00000  Uiso   1.00
H460   H     0.39457   0.45615   0.37282   0.00000  Uiso   1.00
C461   C     0.61587   0.60740   0.03713   0.00000  Uiso   1.00
H462   H     0.59264   0.64086   0.05008   0.00000  Uiso   1.00
H463   H     0.64048   0.58924   0.06310   0.00000  Uiso   1.00
H464   H     0.64726   0.62358   0.01198   0.00000  Uiso   1.00
C465   C     0.45598   0.35639   0.46211   0.00000  Uiso   1.00
H466   H     0.41100   0.34531   0.45976   0.00000  Uiso   1.00
H467   H     0.47789   0.35480   0.42832   0.00000  Uiso   1.00
H468   H     0.47657   0.66178   0.48344   0.00000  Uiso   1.00
O469   O     0.62859   0.57990   0.44614   0.00000  Uiso   1.00
C470   C     0.33752   0.54260   0.44287   0.00000  Uiso   1.00
H471   H     0.33460   0.52130   0.41066   0.00000  Uiso   1.00
H472   H     0.33398   0.51376   0.47064   0.00000  Uiso   1.00
C473   C     0.39560   0.56826   0.44531   0.00000  Uiso   1.00
H474   H     0.39578   0.59518   0.47405   0.00000  Uiso   1.00
H475   H     0.42597   0.53889   0.45228   0.00000  Uiso   1.00
C476   C     0.41497   0.59464   0.40145   0.00000  Uiso   1.00
H477   H     0.45942   0.60828   0.40303   0.00000  Uiso   1.00
H478   H     0.38750   0.62689   0.39440   0.00000  Uiso   1.00
H479   H     0.41414   0.56701   0.37366   0.00000  Uiso   1.00
O480   O     0.42931   0.37618   0.05506   0.00000  Uiso   1.00
C481   C     0.36993   0.37758   0.05261   0.00000  Uiso   1.00
H482   H     0.35235   0.34373   0.07112   0.00000  Uiso   1.00
H483   H     0.35659   0.37440   0.01746   0.00000  Uiso   1.00
C484   C     0.34448   0.42524   0.07491   0.00000  Uiso   1.00
H485   H     0.36056   0.43031   0.10889   0.00000  Uiso   1.00
H486   H     0.35668   0.45965   0.05455   0.00000  Uiso   1.00
C487   C     0.61369   0.42062   0.07923   0.00000  Uiso   1.00
H488   H     0.59624   0.41595   0.04549   0.00000  Uiso   1.00
H489   H     0.59734   0.45587   0.09515   0.00000  Uiso   1.00
H490   H     0.59976   0.38766   0.10082   0.00000  Uiso   1.00
O491   O     0.57464   0.33777   0.26596   0.00000  Uiso   1.00
C492   C     0.58663   0.65912   0.31083   0.00000  Uiso   1.00
H493   H     0.63127   0.64736   0.31050   0.00000  Uiso   1.00
H494   H     0.56016   0.62705   0.32597   0.00000  Uiso   1.00
C495   C     0.58038   0.37316   0.34069   0.00000  Uiso   1.00
H496   H     0.60681   0.40511   0.32576   0.00000  Uiso   1.00
H497   H     0.53560   0.38449   0.34241   0.00000  Uiso   1.00
C498   C     0.59845   0.36321   0.38827   0.00000  Uiso   1.00
H499   H     0.57339   0.66409   0.40370   0.00000  Uiso   1.00
H500   H     0.59162   0.39775   0.40942   0.00000  Uiso   1.00
H501   H     0.64392   0.35422   0.38746   0.00000  Uiso   1.00
O502   O     0.42542   0.66276   0.23697   0.00000  Uiso   1.00
C503   C     0.41660   0.33847   0.19102   0.00000  Uiso   1.00
H504   H     0.43729   0.64214   0.16978   0.00000  Uiso   1.00
H505   H     0.43364   0.37626   0.17900   0.00000  Uiso   1.00
C506   C     0.35339   0.33678   0.18424   0.00000  Uiso   1.00
H507   H     0.66484   0.36094   0.21009   0.00000  Uiso   1.00
H508   H     0.34536   0.35201   0.15060   0.00000  Uiso   1.00
C509   C     0.66246   0.61607   0.18779   0.00000  Uiso   1.00
H510   H     0.34696   0.59226   0.15982   0.00000  Uiso   1.00
H511   H     0.61622   0.61733   0.18567   0.00000  Uiso   1.00
H512   H     0.33834   0.59937   0.22063   0.00000  Uiso   1.00
C513   C     0.33891   0.46955   0.19447   0.00000  Uiso   1.00
H514   H     0.63934   0.44597   0.17854   0.00000  Uiso   1.00
H515   H     0.34943   0.50284   0.17246   0.00000  Uiso   1.00
H516   H     0.37514   0.44494   0.19777   0.00000  Uiso   1.00
C517   C     0.66043   0.53233   0.30472   0.00000  Uiso   1.00
H518   H     0.35854   0.55877   0.31869   0.00000  Uiso   1.00
H519   H     0.62331   0.55544   0.30060   0.00000  Uiso   1.00
H520   H     0.65166   0.50008   0.32835   0.00000  Uiso   1.00
C521   C     0.84779   0.59772   0.25012   0.00000  Uiso   1.00
C522   C     0.81901   0.40232   0.25118   0.00000  Uiso   1.00
C523   C     0.91582   0.55927   0.47094   0.00000  Uiso   1.00
C524   C     0.78834   0.41442   0.02857   0.00000  Uiso   1.00
C525   C     0.85505   0.65154   0.25555   0.00000  Uiso   1.00
C526   C     0.81173   0.34853   0.24723   0.00000  Uiso   1.00
C527   C     0.83420   0.49741   0.33629   0.00000  Uiso   1.00
C528   C     0.83250   0.50200   0.16382   0.00000  Uiso   1.00
C529   C     0.80904   0.46159   0.09537   0.00000  Uiso   1.00
C530   C     0.87737   0.52363   0.40412   0.00000  Uiso   1.00
C531   C     0.83078   0.50437   0.11592   0.00000  Uiso   1.00
C532   C     0.83774   0.49227   0.38411   0.00000  Uiso   1.00
C533   C     0.85796   0.54457   0.09130   0.00000  Uiso   1.00
C534   C     0.80469   0.45588   0.40931   0.00000  Uiso   1.00
C535   C     0.87003   0.53747   0.04433   0.00000  Uiso   1.00
C536   C     0.81488   0.45073   0.45548   0.00000  Uiso   1.00
C537   C     0.84332   0.49481   0.02340   0.00000  Uiso   1.00
C538   C     0.84616   0.48995   0.47654   0.00000  Uiso   1.00
C539   C     0.81243   0.45739   0.04910   0.00000  Uiso   1.00
C540   C     0.87956   0.52464   0.45049   0.00000  Uiso   1.00
C541   C     0.90927   0.56859   0.01751   0.00000  Uiso   1.00
C542   C     0.79425   0.40898   0.48178   0.00000  Uiso   1.00
H543   H     0.79048   0.43098   0.11610   0.00000  Uiso   1.00
H544   H     0.90293   0.55059   0.38364   0.00000  Uiso   1.00
N545   N     0.98344   0.48598   0.23783   0.00000  Uiso   1.00
N546   N     0.68322   0.51402   0.26217   0.00000  Uiso   1.00
O547   O     0.79642   0.57952   0.25298   0.00000  Uiso   1.00
O548   O     0.87025   0.42048   0.24701   0.00000  Uiso   1.00
O549   O     0.89280   0.57054   0.24518   0.00000  Uiso   1.00
O550   O     0.77387   0.42946   0.25481   0.00000  Uiso   1.00
O551   O     0.78514   0.50450   0.31997   0.00000  Uiso   1.00
O552   O     0.88153   0.49550   0.18002   0.00000  Uiso   1.00
O553   O     0.88152   0.49552   0.31217   0.00000  Uiso   1.00
O554   O     0.78515   0.50448   0.18782   0.00000  Uiso   1.00
Zn555  Zn    0.76898   0.50600   0.25521   0.00000  Uiso   1.00
Zn556  Zn    0.89769   0.49400   0.24479   0.00000  Uiso   1.00
C557   C     0.86752   0.59500   0.11507   0.00000  Uiso   1.00
H558   H     0.84931   0.62630   0.09600   0.00000  Uiso   1.00
H559   H     0.84647   0.59602   0.14914   0.00000  Uiso   1.00
H560   H     0.91268   0.60212   0.11999   0.00000  Uiso   1.00
C561   C     0.75517   0.42845   0.38843   0.00000  Uiso   1.00
H562   H     0.77030   0.40051   0.36269   0.00000  Uiso   1.00
H563   H     0.72604   0.40928   0.41361   0.00000  Uiso   1.00
H564   H     0.72790   0.45615   0.37282   0.00000  Uiso   1.00
C565   C     0.94920   0.60740   0.03713   0.00000  Uiso   1.00
H566   H     0.92598   0.64086   0.05008   0.00000  Uiso   1.00
H567   H     0.97381   0.58924   0.06310   0.00000  Uiso   1.00
H568   H     0.98059   0.62358   0.01198   0.00000  Uiso   1.00
C569   C     0.78932   0.35639   0.46211   0.00000  Uiso   1.00
H570   H     0.74433   0.34531   0.45976   0.00000  Uiso   1.00
H571   H     0.81122   0.35480   0.42832   0.00000  Uiso   1.00
H572   H     0.80990   0.66178   0.48344   0.00000  Uiso   1.00
O573   O     0.96192   0.57990   0.44614   0.00000  Uiso   1.00
C574   C     0.67086   0.54260   0.44287   0.00000  Uiso   1.00
H575   H     0.66793   0.52130   0.41066   0.00000  Uiso   1.00
H576   H     0.66732   0.51376   0.47064   0.00000  Uiso   1.00
C577   C     0.72894   0.56826   0.44531   0.00000  Uiso   1.00
H578   H     0.72912   0.59518   0.47405   0.00000  Uiso   1.00
H579   H     0.75931   0.53889   0.45228   0.00000  Uiso   1.00
C580   C     0.74830   0.59464   0.40145   0.00000  Uiso   1.00
H581   H     0.79275   0.60828   0.40303   0.00000  Uiso   1.00
H582   H     0.72083   0.62689   0.39440   0.00000  Uiso   1.00
H583   H     0.74747   0.56701   0.37366   0.00000  Uiso   1.00
O584   O     0.76265   0.37618   0.05506   0.00000  Uiso   1.00
C585   C     0.70326   0.37758   0.05261   0.00000  Uiso   1.00
H586   H     0.68568   0.34373   0.07112   0.00000  Uiso   1.00
H587   H     0.68993   0.37440   0.01746   0.00000  Uiso   1.00
C588   C     0.67782   0.42524   0.07491   0.00000  Uiso   1.00
H589   H     0.69389   0.43031   0.10889   0.00000  Uiso   1.00
H590   H     0.69001   0.45965   0.05455   0.00000  Uiso   1.00
C591   C     0.94702   0.42062   0.07923   0.00000  Uiso   1.00
H592   H     0.92957   0.41595   0.04549   0.00000  Uiso   1.00
H593   H     0.93068   0.45587   0.09515   0.00000  Uiso   1.00
H594   H     0.93309   0.38766   0.10082   0.00000  Uiso   1.00
O595   O     0.90797   0.33777   0.26596   0.00000  Uiso   1.00
C596   C     0.91997   0.65912   0.31083   0.00000  Uiso   1.00
H597   H     0.96461   0.64736   0.31050   0.00000  Uiso   1.00
H598   H     0.89349   0.62705   0.32597   0.00000  Uiso   1.00
C599   C     0.91371   0.37316   0.34069   0.00000  Uiso   1.00
H600   H     0.94014   0.40511   0.32576   0.00000  Uiso   1.00
H601   H     0.86894   0.38449   0.34241   0.00000  Uiso   1.00
C602   C     0.93178   0.36321   0.38827   0.00000  Uiso   1.00
H603   H     0.90673   0.66409   0.40370   0.00000  Uiso   1.00
H604   H     0.92496   0.39775   0.40942   0.00000  Uiso   1.00
H605   H     0.97725   0.35422   0.38746   0.00000  Uiso   1.00
O606   O     0.75875   0.66276   0.23697   0.00000  Uiso   1.00
C607   C     0.74993   0.33847   0.19102   0.00000  Uiso   1.00
H608   H     0.77063   0.64214   0.16978   0.00000  Uiso   1.00
H609   H     0.76698   0.37626   0.17900   0.00000  Uiso   1.00
C610   C     0.68673   0.33678   0.18424   0.00000  Uiso   1.00
H611   H     0.99817   0.36094   0.21009   0.00000  Uiso   1.00
H612   H     0.67869   0.35201   0.15060   0.00000  Uiso   1.00
C613   C     0.99579   0.61607   0.18779   0.00000  Uiso   1.00
H614   H     0.68029   0.59226   0.15982   0.00000  Uiso   1.00
H615   H     0.94955   0.61733   0.18567   0.00000  Uiso   1.00
H616   H     0.67167   0.59937   0.22063   0.00000  Uiso   1.00
C617   C     0.67225   0.46955   0.19447   0.00000  Uiso   1.00
H618   H     0.97267   0.44597   0.17854   0.00000  Uiso   1.00
H619   H     0.68276   0.50284   0.17246   0.00000  Uiso   1.00
H620   H     0.70848   0.44494   0.19777   0.00000  Uiso   1.00
C621   C     0.99377   0.53233   0.30472   0.00000  Uiso   1.00
H622   H     0.69187   0.55877   0.31869   0.00000  Uiso   1.00
H623   H     0.95664   0.55544   0.30060   0.00000  Uiso   1.00
H624   H     0.98499   0.50008   0.32835   0.00000  Uiso   1.00
C625   C     0.18112   0.93105   0.25012   0.00000  Uiso   1.00
C626   C     0.15234   0.73566   0.25118   0.00000  Uiso   1.00
C627   C     0.24916   0.89260   0.47094   0.00000  Uiso   1.00
C628   C     0.12167   0.74775   0.02857   0.00000  Uiso   1.00
C629   C     0.18838   0.98487   0.25555   0.00000  Uiso   1.00
C630   C     0.14506   0.68186   0.24723   0.00000  Uiso   1.00
C631   C     0.16754   0.83075   0.33629   0.00000  Uiso   1.00
C632   C     0.16583   0.83533   0.16382   0.00000  Uiso   1.00
C633   C     0.14237   0.79493   0.09537   0.00000  Uiso   1.00
C634   C     0.21070   0.85696   0.40412   0.00000  Uiso   1.00
C635   C     0.16411   0.83771   0.11592   0.00000  Uiso   1.00
C636   C     0.17108   0.82561   0.38411   0.00000  Uiso   1.00
C637   C     0.19129   0.87790   0.09130   0.00000  Uiso   1.00
C638   C     0.13803   0.78921   0.40931   0.00000  Uiso   1.00
C639   C     0.20336   0.87080   0.04433   0.00000  Uiso   1.00
C640   C     0.14821   0.78407   0.45548   0.00000  Uiso   1.00
C641   C     0.17665   0.82814   0.02340   0.00000  Uiso   1.00
C642   C     0.17949   0.82329   0.47654   0.00000  Uiso   1.00
C643   C     0.14577   0.79072   0.04910   0.00000  Uiso   1.00
C644   C     0.21289   0.85798   0.45049   0.00000  Uiso   1.00
C645   C     0.24260   0.90192   0.01751   0.00000  Uiso   1.00
C646   C     0.12759   0.74232   0.48178   0.00000  Uiso   1.00
H647   H     0.12382   0.76432   0.11610   0.00000  Uiso   1.00
H648   H     0.23626   0.88392   0.38364   0.00000  Uiso   1.00
N649   N     0.31678   0.81932   0.23783   0.00000  Uiso   1.00
N650   N     0.01656   0.84735   0.26217   0.00000  Uiso   1.00
O651   O     0.12975   0.91286   0.25298   0.00000  Uiso   1.00
O652   O     0.20358   0.75381   0.24701   0.00000  Uiso   1.00
O653   O     0.22613   0.90387   0.24518   0.00000  Uiso   1.00
O654   O     0.10720   0.76279   0.25481   0.00000  Uiso   1.00
O655   O     0.11847   0.83784   0.31997   0.00000  Uiso   1.00
O656   O     0.21486   0.82883   0.18002   0.00000  Uiso   1.00
O657   O     0.21485   0.82885   0.31217   0.00000  Uiso   1.00
O658   O     0.11848   0.83781   0.18782   0.00000  Uiso   1.00
Zn659  Zn    0.10231   0.83933   0.25521   0.00000  Uiso   1.00
Zn660  Zn    0.23102   0.82734   0.24479   0.00000  Uiso   1.00
C661   C     0.20086   0.92833   0.11507   0.00000  Uiso   1.00
H662   H     0.18264   0.95963   0.09600   0.00000  Uiso   1.00
H663   H     0.17980   0.92936   0.14914   0.00000  Uiso   1.00
H664   H     0.24602   0.93545   0.11999   0.00000  Uiso   1.00
C665   C     0.08850   0.76178   0.38843   0.00000  Uiso   1.00
H666   H     0.10363   0.73384   0.36269   0.00000  Uiso   1.00
H667   H     0.05937   0.74262   0.41361   0.00000  Uiso   1.00
H668   H     0.06124   0.78948   0.37282   0.00000  Uiso   1.00
C669   C     0.28254   0.94073   0.03713   0.00000  Uiso   1.00
H670   H     0.25931   0.97419   0.05008   0.00000  Uiso   1.00
H671   H     0.30715   0.92257   0.06310   0.00000  Uiso   1.00
H672   H     0.31393   0.95691   0.01198   0.00000  Uiso   1.00
C673   C     0.12265   0.68972   0.46211   0.00000  Uiso   1.00
H674   H     0.07767   0.67864   0.45976   0.00000  Uiso   1.00
H675   H     0.14456   0.68813   0.42832   0.00000  Uiso   1.00
H676   H     0.14324   0.99511   0.48344   0.00000  Uiso   1.00
O677   O     0.29526   0.91323   0.44614   0.00000  Uiso   1.00
C678   C     0.00419   0.87594   0.44287   0.00000  Uiso   1.00
H679   H     0.00127   0.85464   0.41066   0.00000  Uiso   1.00
H680   H     0.00065   0.84709   0.47064   0.00000  Uiso   1.00
C681   C     0.06227   0.90159   0.44531   0.00000  Uiso   1.00
H682   H     0.06245   0.92851   0.47405   0.00000  Uiso   1.00
H683   H     0.09264   0.87222   0.45228   0.00000  Uiso   1.00
C684   C     0.08163   0.92797   0.40145   0.00000  Uiso   1.00
H685   H     0.12608   0.94161   0.40303   0.00000  Uiso   1.00
H686   H     0.05416   0.96022   0.39440   0.00000  Uiso   1.00
H687   H     0.08080   0.90034   0.37366   0.00000  Uiso   1.00
O688   O     0.09598   0.70951   0.05506   0.00000  Uiso   1.00
C689   C     0.03660   0.71091   0.05261   0.00000  Uiso   1.00
H690   H     0.01901   0.67707   0.07112   0.00000  Uiso   1.00
H691   H     0.02326   0.70773   0.01746   0.00000  Uiso   1.00
C692   C     0.01115   0.75857   0.07491   0.00000  Uiso   1.00
H693   H     0.02722   0.76364   0.10889   0.00000  Uiso   1.00
H694   H     0.02335   0.79299   0.05455   0.00000  Uiso   1.00
C695   C     0.28035   0.75396   0.07923   0.00000  Uiso   1.00
H696   H     0.26291   0.74928   0.04549   0.00000  Uiso   1.00
H697   H     0.26401   0.78920   0.09515   0.00000  Uiso   1.00
H698   H     0.26643   0.72100   0.10082   0.00000  Uiso   1.00
O699   O     0.24130   0.67111   0.26596   0.00000  Uiso   1.00
C700   C     0.25330   0.99246   0.31083   0.00000  Uiso   1.00
H701   H     0.29794   0.98069   0.31050   0.00000  Uiso   1.00
H702   H     0.22683   0.96038   0.32597   0.00000  Uiso   1.00
C703   C     0.24704   0.70650   0.34069   0.00000  Uiso   1.00
H704   H     0.27348   0.73844   0.32576   0.00000  Uiso   1.00
H705   H     0.20227   0.71783   0.34241   0.00000  Uiso   1.00
C706   C     0.26511   0.69654   0.38827   0.00000  Uiso   1.00
H707   H     0.24006   0.99742   0.40370   0.00000  Uiso   1.00
H708   H     0.25829   0.73108   0.40942   0.00000  Uiso   1.00
H709   H     0.31058   0.68755   0.38746   0.00000  Uiso   1.00
O710   O     0.09209   0.99609   0.23697   0.00000  Uiso   1.00
C711   C     0.08327   0.67180   0.19102   0.00000  Uiso   1.00
H712   H     0.10396   0.97548   0.16978   0.00000  Uiso   1.00
H713   H     0.10031   0.70959   0.17900   0.00000  Uiso   1.00
C714   C     0.02006   0.67011   0.18424   0.00000  Uiso   1.00
H715   H     0.33150   0.69428   0.21009   0.00000  Uiso   1.00
H716   H     0.01202   0.68534   0.15060   0.00000  Uiso   1.00
C717   C     0.32913   0.94941   0.18779   0.00000  Uiso   1.00
H718   H     0.01362   0.92559   0.15982   0.00000  Uiso   1.00
H719   H     0.28289   0.95066   0.18567   0.00000  Uiso   1.00
H720   H     0.00500   0.93270   0.22063   0.00000  Uiso   1.00
C721   C     0.00558   0.80288   0.19447   0.00000  Uiso   1.00
H722   H     0.30601   0.77930   0.17854   0.00000  Uiso   1.00
H723   H     0.01610   0.83617   0.17246   0.00000  Uiso   1.00
H724   H     0.04181   0.77827   0.19777   0.00000  Uiso   1.00
C725   C     0.32710   0.86566   0.30472   0.00000  Uiso   1.00
H726   H     0.02520   0.89210   0.31869   0.00000  Uiso   1.00
H727   H     0.28997   0.88878   0.30060   0.00000  Uiso   1.00
H728   H     0.31833   0.83342   0.32835   0.00000  Uiso   1.00
C729   C     0.51445   0.93105   0.25012   0.00000  Uiso   1.00
C730   C     0.48567   0.73566   0.25118   0.00000  Uiso   1.00
C731   C     0.58249   0.89260   0.47094   0.00000  Uiso   1.00
C732   C     0.45501   0.74775   0.02857   0.00000  Uiso   1.00
C733   C     0.52171   0.98487   0.25555   0.00000  Uiso   1.00
C734   C     0.47839   0.68186   0.24723   0.00000  Uiso   1.00
C735   C     0.50087   0.83075   0.33629   0.00000  Uiso   1.00
C736   C     0.49916   0.83533   0.16382   0.00000  Uiso   1.00
C737   C     0.47570   0.79493   0.09537   0.00000  Uiso   1.00
C738   C     0.54403   0.85696   0.40412   0.00000  Uiso   1.00
C739   C     0.49744   0.83771   0.11592   0.00000  Uiso   1.00
C740   C     0.50441   0.82561   0.38411   0.00000  Uiso   1.00
C741   C     0.52462   0.87790   0.09130   0.00000  Uiso   1.00
C742   C     0.47136   0.78921   0.40931   0.00000  Uiso   1.00
C743   C     0.53670   0.87080   0.04433   0.00000  Uiso   1.00
C744   C     0.48155   0.78407   0.45548   0.00000  Uiso   1.00
C745   C     0.50998   0.82814   0.02340   0.00000  Uiso   1.00
C746   C     0.51283   0.82329   0.47654   0.00000  Uiso   1.00
C747   C     0.47910   0.79072   0.04910   0.00000  Uiso   1.00
C748   C     0.54623   0.85798   0.45049   0.00000  Uiso   1.00
C749   C     0.57593   0.90192   0.01751   0.00000  Uiso   1.00
C750   C     0.46092   0.74232   0.48178   0.00000  Uiso   1.00
H751   H     0.45715   0.76432   0.11610   0.00000  Uiso   1.00
H752   H     0.56960   0.88392   0.38364   0.00000  Uiso   1.00
N753   N     0.65011   0.81932   0.23783   0.00000  Uiso   1.00
N754   N     0.34989   0.84735   0.26217   0.00000  Uiso   1.00
O755   O     0.46308   0.91286   0.25298   0.00000  Uiso   1.00
O756   O     0.53692   0.75381   0.24701   0.00000  Uiso   1.00
O757   O     0.55946   0.90387   0.24518   0.00000  Uiso   1.00
O758   O     0.44054   0.76279   0.25481   0.00000  Uiso   1.00
O759   O     0.45181   0.83784   0.31997   0.00000  Uiso   1.00
O760   O     0.54819   0.82883   0.18002   0.00000  Uiso   1.00
O761   O     0.54819   0.82885   0.31217   0.00000  Uiso   1.00
O762   O     0.45181   0.83781   0.18782   0.00000  Uiso   1.00
Zn763  Zn    0.43565   0.83933   0.25521   0.00000  Uiso   1.00
Zn764  Zn    0.56435   0.82734   0.24479   0.00000  Uiso   1.00
C765   C     0.53419   0.92833   0.11507   0.00000  Uiso   1.00
H766   H     0.51598   0.95963   0.09600   0.00000  Uiso   1.00
H767   H     0.51314   0.92936   0.14914   0.00000  Uiso   1.00
H768   H     0.57935   0.93545   0.11999   0.00000  Uiso   1.00
C769   C     0.42184   0.76178   0.38843   0.00000  Uiso   1.00
H770   H     0.43697   0.73384   0.36269   0.00000  Uiso   1.00
H771   H     0.39270   0.74262   0.41361   0.00000  Uiso   1.00
H772   H     0.39457   0.78948   0.37282   0.00000  Uiso   1.00
C773   C     0.61587   0.94073   0.03713   0.00000  Uiso   1.00
H774   H     0.59264   0.97419   0.05008   0.00000  Uiso   1.00
H775   H     0.64048   0.92257   0.06310   0.00000  Uiso   1.00
H776   H     0.64726   0.95691   0.01198   0.00000  Uiso   1.00
C777   C     0.45598   0.68972   0.46211   0.00000  Uiso   1.00
H778   H     0.41100   0.67864   0.45976   0.00000  Uiso   1.00
H779   H     0.47789   0.68813   0.42832   0.00000  Uiso   1.00
H780   H     0.47657   0.99511   0.48344   0.00000  Uiso   1.00
O781   O     0.62859   0.91323   0.44614   0.00000  Uiso   1.00
C782   C     0.33752   0.87594   0.44287   0.00000  Uiso   1.00
H783   H     0.33460   0.85464   0.41066   0.00000  Uiso   1.00
H784   H     0.33398   0.84709   0.47064   0.00000  Uiso   1.00
C785   C     0.39560   0.90159   0.44531   0.00000  Uiso   1.00
H786   H     0.39578   0.92851   0.47405   0.00000  Uiso   1.00
H787   H     0.42597   0.87222   0.45228   0.00000  Uiso   1.00
C788   C     0.41497   0.92797   0.40145   0.00000  Uiso   1.00
H789   H     0.45942   0.94161   0.40303   0.00000  Uiso   1.00
H790   H     0.38750   0.96022   0.39440   0.00000  Uiso   1.00
H791   H     0.41414   0.90034   0.37366   0.00000  Uiso   1.00
O792   O     0.42931   0.70951   0.05506   0.00000  Uiso   1.00
C793   C     0.36993   0.71091   0.05261   0.00000  Uiso   1.00
H794   H     0.35235   0.67707   0.07112   0.00000  Uiso   1.00
H795   H     0.35659   0.70773   0.01746   0.00000  Uiso   1.00
C796   C     0.34448   0.75857   0.07491   0.00000  Uiso   1.00
H797   H     0.36056   0.76364   0.10889   0.00000  Uiso   1.00
H798   H     0.35668   0.79299   0.05455   0.00000  Uiso   1.00
C799   C     0.61369   0.75396   0.07923   0.00000  Uiso   1.00
H800   H     0.59624   0.74928   0.04549   0.00000  Uiso   1.00
H801   H     0.59734   0.78920   0.09515   0.00000  Uiso   1.00
H802   H     0.59976   0.72100   0.10082   0.00000  Uiso   1.00
O803   O     0.57464   0.67111   0.26596   0.00000  Uiso   1.00
C804   C     0.58663   0.99246   0.31083   0.00000  Uiso   1.00
H805   H     0.63127   0.98069   0.31050   0.00000  Uiso   1.00
H806   H     0.56016   0.96038   0.32597   0.00000  Uiso   1.00
C807   C     0.58038   0.70650   0.34069   0.00000  Uiso   1.00
H808   H     0.60681   0.73844   0.32576   0.00000  Uiso   1.00
H809   H     0.53560   0.71783   0.34241   0.00000  Uiso   1.00
C810   C     0.59845   0.69654   0.38827   0.00000  Uiso   1.00
H811   H     0.57339   0.99742   0.40370   0.00000  Uiso   1.00
H812   H     0.59162   0.73108   0.40942   0.00000  Uiso   1.00
H813   H     0.64392   0.68755   0.38746   0.00000  Uiso   1.00
O814   O     0.42542   0.99609   0.23697   0.00000  Uiso   1.00
C815   C     0.41660   0.67180   0.19102   0.00000  Uiso   1.00
H816   H     0.43729   0.97548   0.16978   0.00000  Uiso   1.00
H817   H     0.43364   0.70959   0.17900   0.00000  Uiso   1.00
C818   C     0.35339   0.67011   0.18424   0.00000  Uiso   1.00
H819   H     0.66484   0.69428   0.21009   0.00000  Uiso   1.00
H820   H     0.34536   0.68534   0.15060   0.00000  Uiso   1.00
C821   C     0.66246   0.94941   0.18779   0.00000  Uiso   1.00
H822   H     0.34696   0.92559   0.15982   0.00000  Uiso   1.00
H823   H     0.61622   0.95066   0.18567   0.00000  Uiso   1.00
H824   H     0.33834   0.93270   0.22063   0.00000  Uiso   1.00
C825   C     0.33891   0.80288   0.19447   0.00000  Uiso   1.00
H826   H     0.63934   0.77930   0.17854   0.00000  Uiso   1.00
H827   H     0.34943   0.83617   0.17246   0.00000  Uiso   1.00
H828   H     0.37514   0.77827   0.19777   0.00000  Uiso   1.00
C829   C     0.66043   0.86566   0.30472   0.00000  Uiso   1.00
H830   H     0.35854   0.89210   0.31869   0.00000  Uiso   1.00
H831   H     0.62331   0.88878   0.30060   0.00000  Uiso   1.00
H832   H     0.65166   0.83342   0.32835   0.00000  Uiso   1.00
C833   C     0.84779   0.93105   0.25012   0.00000  Uiso   1.00
C834   C     0.81901   0.73566   0.25118   0.00000  Uiso   1.00
C835   C     0.91582   0.89260   0.47094   0.00000  Uiso   1.00
C836   C     0.78834   0.74775   0.02857   0.00000  Uiso   1.00
C837   C     0.85505   0.98487   0.25555   0.00000  Uiso   1.00
C838   C     0.81173   0.68186   0.24723   0.00000  Uiso   1.00
C839   C     0.83420   0.83075   0.33629   0.00000  Uiso   1.00
C840   C     0.83250   0.83533   0.16382   0.00000  Uiso   1.00
C841   C     0.80904   0.79493   0.09537   0.00000  Uiso   1.00
C842   C     0.87737   0.85696   0.40412   0.00000  Uiso   1.00
C843   C     0.83078   0.83771   0.11592   0.00000  Uiso   1.00
C844   C     0.83774   0.82561   0.38411   0.00000  Uiso   1.00
C845   C     0.85796   0.87790   0.09130   0.00000  Uiso   1.00
C846   C     0.80469   0.78921   0.40931   0.00000  Uiso   1.00
C847   C     0.87003   0.87080   0.04433   0.00000  Uiso   1.00
C848   C     0.81488   0.78407   0.45548   0.00000  Uiso   1.00
C849   C     0.84332   0.82814   0.02340   0.00000  Uiso   1.00
C850   C     0.84616   0.82329   0.47654   0.00000  Uiso   1.00
C851   C     0.81243   0.79072   0.04910   0.00000  Uiso   1.00
C852   C     0.87956   0.85798   0.45049   0.00000  Uiso   1.00
C853   C     0.90927   0.90192   0.01751   0.00000  Uiso   1.00
C854   C     0.79425   0.74232   0.48178   0.00000  Uiso   1.00
H855   H     0.79048   0.76432   0.11610   0.00000  Uiso   1.00
H856   H     0.90293   0.88392   0.38364   0.00000  Uiso   1.00
N857   N     0.98344   0.81932   0.23783   0.00000  Uiso   1.00
N858   N     0.68322   0.84735   0.26217   0.00000  Uiso   1.00
O859   O     0.79642   0.91286   0.25298   0.00000  Uiso   1.00
O860   O     0.87025   0.75381   0.24701   0.00000  Uiso   1.00
O861   O     0.89280   0.90387   0.24518   0.00000  Uiso   1.00
O862   O     0.77387   0.76279   0.25481   0.00000  Uiso   1.00
O863   O     0.78514   0.83784   0.31997   0.00000  Uiso   1.00
O864   O     0.88153   0.82883   0.18002   0.00000  Uiso   1.00
O865   O     0.88152   0.82885   0.31217   0.00000  Uiso   1.00
O866   O     0.78515   0.83781   0.18782   0.00000  Uiso   1.00
Zn867  Zn    0.76898   0.83933   0.25521   0.00000  Uiso   1.00
Zn868  Zn    0.89769   0.82734   0.24479   0.00000  Uiso   1.00
C869   C     0.86752   0.92833   0.11507   0.00000  Uiso   1.00
H870   H     0.84931   0.95963   0.09600   0.00000  Uiso   1.00
H871   H     0.84647   0.92936   0.14914   0.00000  Uiso   1.00
H872   H     0.91268   0.93545   0.11999   0.00000  Uiso   1.00
C873   C     0.75517   0.76178   0.38843   0.00000  Uiso   1.00
H874   H     0.77030   0.73384   0.36269   0.00000  Uiso   1.00
H875   H     0.72604   0.74262   0.41361   0.00000  Uiso   1.00
H876   H     0.72790   0.78948   0.37282   0.00000  Uiso   1.00
C877   C     0.94920   0.94073   0.03713   0.00000  Uiso   1.00
H878   H     0.92598   0.97419   0.05008   0.00000  Uiso   1.00
H879   H     0.97381   0.92257   0.06310   0.00000  Uiso   1.00
H880   H     0.98059   0.95691   0.01198   0.00000  Uiso   1.00
C881   C     0.78932   0.68972   0.46211   0.00000  Uiso   1.00
H882   H     0.74433   0.67864   0.45976   0.00000  Uiso   1.00
H883   H     0.81122   0.68813   0.42832   0.00000  Uiso   1.00
H884   H     0.80990   0.99511   0.48344   0.00000  Uiso   1.00
O885   O     0.96192   0.91323   0.44614   0.00000  Uiso   1.00
C886   C     0.67086   0.87594   0.44287   0.00000  Uiso   1.00
H887   H     0.66793   0.85464   0.41066   0.00000  Uiso   1.00
H888   H     0.66732   0.84709   0.47064   0.00000  Uiso   1.00
C889   C     0.72894   0.90159   0.44531   0.00000  Uiso   1.00
H890   H     0.72912   0.92851   0.47405   0.00000  Uiso   1.00
H891   H     0.75931   0.87222   0.45228   0.00000  Uiso   1.00
C892   C     0.74830   0.92797   0.40145   0.00000  Uiso   1.00
H893   H     0.79275   0.94161   0.40303   0.00000  Uiso   1.00
H894   H     0.72083   0.96022   0.39440   0.00000  Uiso   1.00
H895   H     0.74747   0.90034   0.37366   0.00000  Uiso   1.00
O896   O     0.76265   0.70951   0.05506   0.00000  Uiso   1.00
C897   C     0.70326   0.71091   0.05261   0.00000  Uiso   1.00
H898   H     0.68568   0.67707   0.07112   0.00000  Uiso   1.00
H899   H     0.68993   0.70773   0.01746   0.00000  Uiso   1.00
C900   C     0.67782   0.75857   0.07491   0.00000  Uiso   1.00
H901   H     0.69389   0.76364   0.10889   0.00000  Uiso   1.00
H902   H     0.69001   0.79299   0.05455   0.00000  Uiso   1.00
C903   C     0.94702   0.75396   0.07923   0.00000  Uiso   1.00
H904   H     0.92957   0.74928   0.04549   0.00000  Uiso   1.00
H905   H     0.93068   0.78920   0.09515   0.00000  Uiso   1.00
H906   H     0.93309   0.72100   0.10082   0.00000  Uiso   1.00
O907   O     0.90797   0.67111   0.26596   0.00000  Uiso   1.00
C908   C     0.91997   0.99246   0.31083   0.00000  Uiso   1.00
H909   H     0.96461   0.98069   0.31050   0.00000  Uiso   1.00
H910   H     0.89349   0.96038   0.32597   0.00000  Uiso   1.00
C911   C     0.91371   0.70650   0.34069   0.00000  Uiso   1.00
H912   H     0.94014   0.73844   0.32576   0.00000  Uiso   1.00
H913   H     0.86894   0.71783   0.34241   0.00000  Uiso   1.00
C914   C     0.93178   0.69654   0.38827   0.00000  Uiso   1.00
H915   H     0.90673   0.99742   0.40370   0.00000  Uiso   1.00
H916   H     0.92496   0.73108   0.40942   0.00000  Uiso   1.00
H917   H     0.97725   0.68755   0.38746   0.00000  Uiso   1.00
O918   O     0.75875   0.99609   0.23697   0.00000  Uiso   1.00
C919   C     0.74993   0.67180   0.19102   0.00000  Uiso   1.00
H920   H     0.77063   0.97548   0.16978   0.00000  Uiso   1.00
H921   H     0.76698   0.70959   0.17900   0.00000  Uiso   1.00
C922   C     0.68673   0.67011   0.18424   0.00000  Uiso   1.00
H923   H     0.99817   0.69428   0.21009   0.00000  Uiso   1.00
H924   H     0.67869   0.68534   0.15060   0.00000  Uiso   1.00
C925   C     0.99579   0.94941   0.18779   0.00000  Uiso   1.00
H926   H     0.68029   0.92559   0.15982   0.00000  Uiso   1.00
H927   H     0.94955   0.95066   0.18567   0.00000  Uiso   1.00
H928   H     0.67167   0.93270   0.22063   0.00000  Uiso   1.00
C929   C     0.67225   0.80288   0.19447   0.00000  Uiso   1.00
H930   H     0.97267   0.77930   0.17854   0.00000  Uiso   1.00
H931   H     0.68276   0.83617   0.17246   0.00000  Uiso   1.00
H932   H     0.70848   0.77827   0.19777   0.00000  Uiso   1.00
C933   C     0.99377   0.86566   0.30472   0.00000  Uiso   1.00
H934   H     0.69187   0.89210   0.31869   0.00000  Uiso   1.00
H935   H     0.95664   0.88878   0.30060   0.00000  Uiso   1.00
H936   H     0.98499   0.83342   0.32835   0.00000  Uiso   1.00
C937   C     0.18112   0.26439   0.75012   0.00000  Uiso   1.00
C938   C     0.15234   0.06899   0.75118   0.00000  Uiso   1.00
C939   C     0.24916   0.22594   0.97094   0.00000  Uiso   1.00
C940   C     0.12167   0.08109   0.52857   0.00000  Uiso   1.00
C941   C     0.18838   0.31820   0.75555   0.00000  Uiso   1.00
C942   C     0.14506   0.01520   0.74723   0.00000  Uiso   1.00
C943   C     0.16754   0.16408   0.83629   0.00000  Uiso   1.00
C944   C     0.16583   0.16867   0.66382   0.00000  Uiso   1.00
C945   C     0.14237   0.12826   0.59537   0.00000  Uiso   1.00
C946   C     0.21070   0.19030   0.90412   0.00000  Uiso   1.00
C947   C     0.16411   0.17104   0.61592   0.00000  Uiso   1.00
C948   C     0.17108   0.15894   0.88411   0.00000  Uiso   1.00
C949   C     0.19129   0.21123   0.59130   0.00000  Uiso   1.00
C950   C     0.13803   0.12255   0.90931   0.00000  Uiso   1.00
C951   C     0.20336   0.20413   0.54433   0.00000  Uiso   1.00
C952   C     0.14821   0.11740   0.95548   0.00000  Uiso   1.00
C953   C     0.17665   0.16148   0.52340   0.00000  Uiso   1.00
C954   C     0.17949   0.15662   0.97654   0.00000  Uiso   1.00
C955   C     0.14577   0.12405   0.54910   0.00000  Uiso   1.00
C956   C     0.21289   0.19131   0.95049   0.00000  Uiso   1.00
C957   C     0.24260   0.23525   0.51751   0.00000  Uiso   1.00
C958   C     0.12759   0.07565   0.98178   0.00000  Uiso   1.00
H959   H     0.12382   0.09765   0.61610   0.00000  Uiso   1.00
H960   H     0.23626   0.21725   0.88364   0.00000  Uiso   1.00
N961   N     0.31678   0.15265   0.73783   0.00000  Uiso   1.00
N962   N     0.01656   0.18068   0.76217   0.00000  Uiso   1.00
O963   O     0.12975   0.24619   0.75298   0.00000  Uiso   1.00
O964   O     0.20358   0.08714   0.74701   0.00000  Uiso   1.00
O965   O     0.22613   0.23721   0.74518   0.00000  Uiso   1.00
O966   O     0.10720   0.09613   0.75481   0.00000  Uiso   1.00
O967   O     0.11847   0.17117   0.81997   0.00000  Uiso   1.00
O968   O     0.21486   0.16216   0.68002   0.00000  Uiso   1.00
O969   O     0.21485   0.16219   0.81217   0.00000  Uiso   1.00
O970   O     0.11848   0.17115   0.68782   0.00000  Uiso   1.00
Zn971  Zn    0.10231   0.17266   0.75521   0.00000  Uiso   1.00
Zn972  Zn    0.23102   0.16067   0.74479   0.00000  Uiso   1.00
C973   C     0.20086   0.26167   0.61507   0.00000  Uiso   1.00
H974   H     0.18264   0.29297   0.59600   0.00000  Uiso   1.00
H975   H     0.17980   0.26269   0.64914   0.00000  Uiso   1.00
H976   H     0.24602   0.26878   0.61999   0.00000  Uiso   1.00
C977   C     0.08850   0.09511   0.88843   0.00000  Uiso   1.00
H978   H     0.10363   0.06718   0.86269   0.00000  Uiso   1.00
H979   H     0.05937   0.07595   0.91361   0.00000  Uiso   1.00
H980   H     0.06124   0.12282   0.87282   0.00000  Uiso   1.00
C981   C     0.28254   0.27407   0.53713   0.00000  Uiso   1.00
H982   H     0.25931   0.30753   0.55008   0.00000  Uiso   1.00
H983   H     0.30715   0.25591   0.56310   0.00000  Uiso   1.00
H984   H     0.31393   0.29025   0.51198   0.00000  Uiso   1.00
C985   C     0.12265   0.02306   0.96211   0.00000  Uiso   1.00
H986   H     0.07767   0.01197   0.95976   0.00000  Uiso   1.00
H987   H     0.14456   0.02146   0.92832   0.00000  Uiso   1.00
H988   H     0.14324   0.32844   0.98344   0.00000  Uiso   1.00
O989   O     0.29526   0.24656   0.94614   0.00000  Uiso   1.00
C990   C     0.00419   0.20927   0.94287   0.00000  Uiso   1.00
H991   H     0.00127   0.18797   0.91066   0.00000  Uiso   1.00
H992   H     0.00065   0.18043   0.97064   0.00000  Uiso   1.00
C993   C     0.06227   0.23492   0.94531   0.00000  Uiso   1.00
H994   H     0.06245   0.26184   0.97405   0.00000  Uiso   1.00
H995   H     0.09264   0.20555   0.95228   0.00000  Uiso   1.00
C996   C     0.08163   0.26130   0.90145   0.00000  Uiso   1.00
H997   H     0.12608   0.27494   0.90303   0.00000  Uiso   1.00
H998   H     0.05416   0.29355   0.89440   0.00000  Uiso   1.00
H999   H     0.08080   0.23368   0.87366   0.00000  Uiso   1.00
O1000  O     0.09598   0.04284   0.55506   0.00000  Uiso   1.00
C1001  C     0.03660   0.04425   0.55261   0.00000  Uiso   1.00
H1002  H     0.01901   0.01040   0.57112   0.00000  Uiso   1.00
H1003  H     0.02326   0.04106   0.51746   0.00000  Uiso   1.00
C1004  C     0.01115   0.09191   0.57491   0.00000  Uiso   1.00
H1005  H     0.02722   0.09697   0.60889   0.00000  Uiso   1.00
H1006  H     0.02335   0.12632   0.55455   0.00000  Uiso   1.00
C1007  C     0.28035   0.08729   0.57923   0.00000  Uiso   1.00
H1008  H     0.26291   0.08262   0.54549   0.00000  Uiso   1.00
H1009  H     0.26401   0.12253   0.59515   0.00000  Uiso   1.00
H1010  H     0.26643   0.05433   0.60082   0.00000  Uiso   1.00
O1011  O     0.24130   0.00444   0.76596   0.00000  Uiso   1.00
C1012  C     0.25330   0.32579   0.81083   0.00000  Uiso   1.00
H1013  H     0.29794   0.31402   0.81050   0.00000  Uiso   1.00
H1014  H     0.22683   0.29372   0.82597   0.00000  Uiso   1.00
C1015  C     0.24704   0.03983   0.84069   0.00000  Uiso   1.00
H1016  H     0.27348   0.07178   0.82576   0.00000  Uiso   1.00
H1017  H     0.20227   0.05116   0.84241   0.00000  Uiso   1.00
C1018  C     0.26511   0.02988   0.88827   0.00000  Uiso   1.00
H1019  H     0.24006   0.33075   0.90370   0.00000  Uiso   1.00
H1020  H     0.25829   0.06442   0.90942   0.00000  Uiso   1.00
H1021  H     0.31058   0.02088   0.88746   0.00000  Uiso   1.00
O1022  O     0.09209   0.32942   0.73697   0.00000  Uiso   1.00
C1023  C     0.08327   0.00513   0.69102   0.00000  Uiso   1.00
H1024  H     0.10396   0.30881   0.66978   0.00000  Uiso   1.00
H1025  H     0.10031   0.04292   0.67900   0.00000  Uiso   1.00
C1026  C     0.02006   0.00345   0.68424   0.00000  Uiso   1.00
H1027  H     0.33150   0.02761   0.71009   0.00000  Uiso   1.00
H1028  H     0.01202   0.01867   0.65060   0.00000  Uiso   1.00
C1029  C     0.32913   0.28274   0.68779   0.00000  Uiso   1.00
H1030  H     0.01362   0.25893   0.65982   0.00000  Uiso   1.00
H1031  H     0.28289   0.28400   0.68567   0.00000  Uiso   1.00
H1032  H     0.00500   0.26603   0.72063   0.00000  Uiso   1.00
C1033  C     0.00558   0.13621   0.69447   0.00000  Uiso   1.00
H1034  H     0.30601   0.11263   0.67854   0.00000  Uiso   1.00
H1035  H     0.01610   0.16950   0.67246   0.00000  Uiso   1.00
H1036  H     0.04181   0.11160   0.69777   0.00000  Uiso   1.00
C1037  C     0.32710   0.19899   0.80472   0.00000  Uiso   1.00
H1038  H     0.02520   0.22543   0.81869   0.00000  Uiso   1.00
H1039  H     0.28997   0.22211   0.80060   0.00000  Uiso   1.00
H1040  H     0.31833   0.16675   0.82835   0.00000  Uiso   1.00
C1041  C     0.51445   0.26439   0.75012   0.00000  Uiso   1.00
C1042  C     0.48567   0.06899   0.75118   0.00000  Uiso   1.00
C1043  C     0.58249   0.22594   0.97094   0.00000  Uiso   1.00
C1044  C     0.45501   0.08109   0.52857   0.00000  Uiso   1.00
C1045  C     0.52171   0.31820   0.75555   0.00000  Uiso   1.00
C1046  C     0.47839   0.01520   0.74723   0.00000  Uiso   1.00
C1047  C     0.50087   0.16408   0.83629   0.00000  Uiso   1.00
C1048  C     0.49916   0.16867   0.66382   0.00000  Uiso   1.00
C1049  C     0.47570   0.12826   0.59537   0.00000  Uiso   1.00
C1050  C     0.54403   0.19030   0.90412   0.00000  Uiso   1.00
C1051  C     0.49744   0.17104   0.61592   0.00000  Uiso   1.00
C1052  C     0.50441   0.15894   0.88411   0.00000  Uiso   1.00
C1053  C     0.52462   0.21123   0.59130   0.00000  Uiso   1.00
C1054  C     0.47136   0.12255   0.90931   0.00000  Uiso   1.00
C1055  C     0.53670   0.20413   0.54433   0.00000  Uiso   1.00
C1056  C     0.48155   0.11740   0.95548   0.00000  Uiso   1.00
C1057  C     0.50998   0.16148   0.52340   0.00000  Uiso   1.00
C1058  C     0.51283   0.15662   0.97654   0.00000  Uiso   1.00
C1059  C     0.47910   0.12405   0.54910   0.00000  Uiso   1.00
C1060  C     0.54623   0.19131   0.95049   0.00000  Uiso   1.00
C1061  C     0.57593   0.23525   0.51751   0.00000  Uiso   1.00
C1062  C     0.46092   0.07565   0.98178   0.00000  Uiso   1.00
H1063  H     0.45715   0.09765   0.61610   0.00000  Uiso   1.00
H1064  H     0.56960   0.21725   0.88364   0.00000  Uiso   1.00
N1065  N     0.65011   0.15265   0.73783   0.00000  Uiso   1.00
N1066  N     0.34989   0.18068   0.76217   0.00000  Uiso   1.00
O1067  O     0.46308   0.24619   0.75298   0.00000  Uiso   1.00
O1068  O     0.53692   0.08714   0.74701   0.00000  Uiso   1.00
O1069  O     0.55946   0.23721   0.74518   0.00000  Uiso   1.00
O1070  O     0.44054   0.09613   0.75481   0.00000  Uiso   1.00
O1071  O     0.45181   0.17117   0.81997   0.00000  Uiso   1.00
O1072  O     0.54819   0.16216   0.68002   0.00000  Uiso   1.00
O1073  O     0.54819   0.16219   0.81217   0.00000  Uiso   1.00
O1074  O     0.45181   0.17115   0.68782   0.00000  Uiso   1.00
Zn1075 Zn    0.43565   0.17266   0.75521   0.00000  Uiso   1.00
Zn1076 Zn    0.56435   0.16067   0.74479   0.00000  Uiso   1.00
C1077  C     0.53419   0.26167   0.61507   0.00000  Uiso   1.00
H1078  H     0.51598   0.29297   0.59600   0.00000  Uiso   1.00
H1079  H     0.51314   0.26269   0.64914   0.00000  Uiso   1.00
H1080  H     0.57935   0.26878   0.61999   0.00000  Uiso   1.00
C1081  C     0.42184   0.09511   0.88843   0.00000  Uiso   1.00
H1082  H     0.43697   0.06718   0.86269   0.00000  Uiso   1.00
H1083  H     0.39270   0.07595   0.91361   0.00000  Uiso   1.00
H1084  H     0.39457   0.12282   0.87282   0.00000  Uiso   1.00
C1085  C     0.61587   0.27407   0.53713   0.00000  Uiso   1.00
H1086  H     0.59264   0.30753   0.55008   0.00000  Uiso   1.00
H1087  H     0.64048   0.25591   0.56310   0.00000  Uiso   1.00
H1088  H     0.64726   0.29025   0.51198   0.00000  Uiso   1.00
C1089  C     0.45598   0.02306   0.96211   0.00000  Uiso   1.00
H1090  H     0.41100   0.01197   0.95976   0.00000  Uiso   1.00
H1091  H     0.47789   0.02146   0.92832   0.00000  Uiso   1.00
H1092  H     0.47657   0.32844   0.98344   0.00000  Uiso   1.00
O1093  O     0.62859   0.24656   0.94614   0.00000  Uiso   1.00
C1094  C     0.33752   0.20927   0.94287   0.00000  Uiso   1.00
H1095  H     0.33460   0.18797   0.91066   0.00000  Uiso   1.00
H1096  H     0.33398   0.18043   0.97064   0.00000  Uiso   1.00
C1097  C     0.39560   0.23492   0.94531   0.00000  Uiso   1.00
H1098  H     0.39578   0.26184   0.97405   0.00000  Uiso   1.00
H1099  H     0.42597   0.20555   0.95228   0.00000  Uiso   1.00
C1100  C     0.41497   0.26130   0.90145   0.00000  Uiso   1.00
H1101  H     0.45942   0.27494   0.90303   0.00000  Uiso   1.00
H1102  H     0.38750   0.29355   0.89440   0.00000  Uiso   1.00
H1103  H     0.41414   0.23368   0.87366   0.00000  Uiso   1.00
O1104  O     0.42931   0.04284   0.55506   0.00000  Uiso   1.00
C1105  C     0.36993   0.04425   0.55261   0.00000  Uiso   1.00
H1106  H     0.35235   0.01040   0.57112   0.00000  Uiso   1.00
H1107  H     0.35659   0.04106   0.51746   0.00000  Uiso   1.00
C1108  C     0.34448   0.09191   0.57491   0.00000  Uiso   1.00
H1109  H     0.36056   0.09697   0.60889   0.00000  Uiso   1.00
H1110  H     0.35668   0.12632   0.55455   0.00000  Uiso   1.00
C1111  C     0.61369   0.08729   0.57923   0.00000  Uiso   1.00
H1112  H     0.59624   0.08262   0.54549   0.00000  Uiso   1.00
H1113  H     0.59734   0.12253   0.59515   0.00000  Uiso   1.00
H1114  H     0.59976   0.05433   0.60082   0.00000  Uiso   1.00
O1115  O     0.57464   0.00444   0.76596   0.00000  Uiso   1.00
C1116  C     0.58663   0.32579   0.81083   0.00000  Uiso   1.00
H1117  H     0.63127   0.31402   0.81050   0.00000  Uiso   1.00
H1118  H     0.56016   0.29372   0.82597   0.00000  Uiso   1.00
C1119  C     0.58038   0.03983   0.84069   0.00000  Uiso   1.00
H1120  H     0.60681   0.07178   0.82576   0.00000  Uiso   1.00
H1121  H     0.53560   0.05116   0.84241   0.00000  Uiso   1.00
C1122  C     0.59845   0.02988   0.88827   0.00000  Uiso   1.00
H1123  H     0.57339   0.33075   0.90370   0.00000  Uiso   1.00
H1124  H     0.59162   0.06442   0.90942   0.00000  Uiso   1.00
H1125  H     0.64392   0.02088   0.88746   0.00000  Uiso   1.00
O1126  O     0.42542   0.32942   0.73697   0.00000  Uiso   1.00
C1127  C     0.41660   0.00513   0.69102   0.00000  Uiso   1.00
H1128  H     0.43729   0.30881   0.66978   0.00000  Uiso   1.00
H1129  H     0.43364   0.04292   0.67900   0.00000  Uiso   1.00
C1130  C     0.35339   0.00345   0.68424   0.00000  Uiso   1.00
H1131  H     0.66484   0.02761   0.71009   0.00000  Uiso   1.00
H1132  H     0.34536   0.01867   0.65060   0.00000  Uiso   1.00
C1133  C     0.66246   0.28274   0.68779   0.00000  Uiso   1.00
H1134  H     0.34696   0.25893   0.65982   0.00000  Uiso   1.00
H1135  H     0.61622   0.28400   0.68567   0.00000  Uiso   1.00
H1136  H     0.33834   0.26603   0.72063   0.00000  Uiso   1.00
C1137  C     0.33891   0.13621   0.69447   0.00000  Uiso   1.00
H1138  H     0.63934   0.11263   0.67854   0.00000  Uiso   1.00
H1139  H     0.34943   0.16950   0.67246   0.00000  Uiso   1.00
H1140  H     0.37514   0.11160   0.69777   0.00000  Uiso   1.00
C1141  C     0.66043   0.19899   0.80472   0.00000  Uiso   1.00
H1142  H     0.35854   0.22543   0.81869   0.00000  Uiso   1.00
H1143  H     0.62331   0.22211   0.80060   0.00000  Uiso   1.00
H1144  H     0.65166   0.16675   0.82835   0.00000  Uiso   1.00
C1145  C     0.84779   0.26439   0.75012   0.00000  Uiso   1.00
C1146  C     0.81901   0.06899   0.75118   0.00000  Uiso   1.00
C1147  C     0.91582   0.22594   0.97094   0.00000  Uiso   1.00
C1148  C     0.78834   0.08109   0.52857   0.00000  Uiso   1.00
C1149  C     0.85505   0.31820   0.75555   0.00000  Uiso   1.00
C1150  C     0.81173   0.01520   0.74723   0.00000  Uiso   1.00
C1151  C     0.83420   0.16408   0.83629   0.00000  Uiso   1.00
C1152  C     0.83250   0.16867   0.66382   0.00000  Uiso   1.00
C1153  C     0.80904   0.12826   0.59537   0.00000  Uiso   1.00
C1154  C     0.87737   0.19030   0.90412   0.00000  Uiso   1.00
C1155  C     0.83078   0.17104   0.61592   0.00000  Uiso   1.00
C1156  C     0.83774   0.15894   0.88411   0.00000  Uiso   1.00
C1157  C     0.85796   0.21123   0.59130   0.00000  Uiso   1.00
C1158  C     0.80469   0.12255   0.90931   0.00000  Uiso   1.00
C1159  C     0.87003   0.20413   0.54433   0.00000  Uiso   1.00
C1160  C     0.81488   0.11740   0.95548   0.00000  Uiso   1.00
C1161  C     0.84332   0.16148   0.52340   0.00000  Uiso   1.00
C1162  C     0.84616   0.15662   0.97654   0.00000  Uiso   1.00
C1163  C     0.81243   0.12405   0.54910   0.00000  Uiso   1.00
C1164  C     0.87956   0.19131   0.95049   0.00000  Uiso   1.00
C1165  C     0.90927   0.23525   0.51751   0.00000  Uiso   1.00
C1166  C     0.79425   0.07565   0.98178   0.00000  Uiso   1.00
H1167  H     0.79048   0.09765   0.61610   0.00000  Uiso   1.00
H1168  H     0.90293   0.21725   0.88364   0.00000  Uiso   1.00
N1169  N     0.98344   0.15265   0.73783   0.00000  Uiso   1.00
N1170  N     0.68322   0.18068   0.76217   0.00000  Uiso   1.00
O1171  O     0.79642   0.24619   0.75298   0.00000  Uiso   1.00
O1172  O     0.87025   0.08714   0.74701   0.00000  Uiso   1.00
O1173  O     0.89280   0.23721   0.74518   0.00000  Uiso   1.00
O1174  O     0.77387   0.09613   0.75481   0.00000  Uiso   1.00
O1175  O     0.78514   0.17117   0.81997   0.00000  Uiso   1.00
O1176  O     0.88153   0.16216   0.68002   0.00000  Uiso   1.00
O1177  O     0.88152   0.16219   0.81217   0.00000  Uiso   1.00
O1178  O     0.78515   0.17115   0.68782   0.00000  Uiso   1.00
Zn1179 Zn    0.76898   0.17266   0.75521   0.00000  Uiso   1.00
Zn1180 Zn    0.89769   0.16067   0.74479   0.00000  Uiso   1.00
C1181  C     0.86752   0.26167   0.61507   0.00000  Uiso   1.00
H1182  H     0.84931   0.29297   0.59600   0.00000  Uiso   1.00
H1183  H     0.84647   0.26269   0.64914   0.00000  Uiso   1.00
H1184  H     0.91268   0.26878   0.61999   0.00000  Uiso   1.00
C1185  C     0.75517   0.09511   0.88843   0.00000  Uiso   1.00
H1186  H     0.77030   0.06718   0.86269   0.00000  Uiso   1.00
H1187  H     0.72604   0.07595   0.91361   0.00000  Uiso   1.00
H1188  H     0.72790   0.12282   0.87282   0.00000  Uiso   1.00
C1189  C     0.94920   0.27407   0.53713   0.00000  Uiso   1.00
H1190  H     0.92598   0.30753   0.55008   0.00000  Uiso   1.00
H1191  H     0.97381   0.25591   0.56310   0.00000  Uiso   1.00
H1192  H     0.98059   0.29025   0.51198   0.00000  Uiso   1.00
C1193  C     0.78932   0.02306   0.96211   0.00000  Uiso   1.00
H1194  H     0.74433   0.01197   0.95976   0.00000  Uiso   1.00
H1195  H     0.81122   0.02146   0.92832   0.00000  Uiso   1.00
H1196  H     0.80990   0.32844   0.98344   0.00000  Uiso   1.00
O1197  O     0.96192   0.24656   0.94614   0.00000  Uiso   1.00
C1198  C     0.67086   0.20927   0.94287   0.00000  Uiso   1.00
H1199  H     0.66793   0.18797   0.91066   0.00000  Uiso   1.00
H1200  H     0.66732   0.18043   0.97064   0.00000  Uiso   1.00
C1201  C     0.72894   0.23492   0.94531   0.00000  Uiso   1.00
H1202  H     0.72912   0.26184   0.97405   0.00000  Uiso   1.00
H1203  H     0.75931   0.20555   0.95228   0.00000  Uiso   1.00
C1204  C     0.74830   0.26130   0.90145   0.00000  Uiso   1.00
H1205  H     0.79275   0.27494   0.90303   0.00000  Uiso   1.00
H1206  H     0.72083   0.29355   0.89440   0.00000  Uiso   1.00
H1207  H     0.74747   0.23368   0.87366   0.00000  Uiso   1.00
O1208  O     0.76265   0.04284   0.55506   0.00000  Uiso   1.00
C1209  C     0.70326   0.04425   0.55261   0.00000  Uiso   1.00
H1210  H     0.68568   0.01040   0.57112   0.00000  Uiso   1.00
H1211  H     0.68993   0.04106   0.51746   0.00000  Uiso   1.00
C1212  C     0.67782   0.09191   0.57491   0.00000  Uiso   1.00
H1213  H     0.69389   0.09697   0.60889   0.00000  Uiso   1.00
H1214  H     0.69001   0.12632   0.55455   0.00000  Uiso   1.00
C1215  C     0.94702   0.08729   0.57923   0.00000  Uiso   1.00
H1216  H     0.92957   0.08262   0.54549   0.00000  Uiso   1.00
H1217  H     0.93068   0.12253   0.59515   0.00000  Uiso   1.00
H1218  H     0.93309   0.05433   0.60082   0.00000  Uiso   1.00
O1219  O     0.90797   0.00444   0.76596   0.00000  Uiso   1.00
C1220  C     0.91997   0.32579   0.81083   0.00000  Uiso   1.00
H1221  H     0.96461   0.31402   0.81050   0.00000  Uiso   1.00
H1222  H     0.89349   0.29372   0.82597   0.00000  Uiso   1.00
C1223  C     0.91371   0.03983   0.84069   0.00000  Uiso   1.00
H1224  H     0.94014   0.07178   0.82576   0.00000  Uiso   1.00
H1225  H     0.86894   0.05116   0.84241   0.00000  Uiso   1.00
C1226  C     0.93178   0.02988   0.88827   0.00000  Uiso   1.00
H1227  H     0.90673   0.33075   0.90370   0.00000  Uiso   1.00
H1228  H     0.92496   0.06442   0.90942   0.00000  Uiso   1.00
H1229  H     0.97725   0.02088   0.88746   0.00000  Uiso   1.00
O1230  O     0.75875   0.32942   0.73697   0.00000  Uiso   1.00
C1231  C     0.74993   0.00513   0.69102   0.00000  Uiso   1.00
H1232  H     0.77063   0.30881   0.66978   0.00000  Uiso   1.00
H1233  H     0.76698   0.04292   0.67900   0.00000  Uiso   1.00
C1234  C     0.68673   0.00345   0.68424   0.00000  Uiso   1.00
H1235  H     0.99817   0.02761   0.71009   0.00000  Uiso   1.00
H1236  H     0.67869   0.01867   0.65060   0.00000  Uiso   1.00
C1237  C     0.99579   0.28274   0.68779   0.00000  Uiso   1.00
H1238  H     0.68029   0.25893   0.65982   0.00000  Uiso   1.00
H1239  H     0.94955   0.28400   0.68567   0.00000  Uiso   1.00
H1240  H     0.67167   0.26603   0.72063   0.00000  Uiso   1.00
C1241  C     0.67225   0.13621   0.69447   0.00000  Uiso   1.00
H1242  H     0.97267   0.11263   0.67854   0.00000  Uiso   1.00
H1243  H     0.68276   0.16950   0.67246   0.00000  Uiso   1.00
H1244  H     0.70848   0.11160   0.69777   0.00000  Uiso   1.00
C1245  C     0.99377   0.19899   0.80472   0.00000  Uiso   1.00
H1246  H     0.69187   0.22543   0.81869   0.00000  Uiso   1.00
H1247  H     0.95664   0.22211   0.80060   0.00000  Uiso   1.00
H1248  H     0.98499   0.16675   0.82835   0.00000  Uiso   1.00
C1249  C     0.18112   0.59772   0.75012   0.00000  Uiso   1.00
C1250  C     0.15234   0.40232   0.75118   0.00000  Uiso   1.00
C1251  C     0.24916   0.55927   0.97094   0.00000  Uiso   1.00
C1252  C     0.12167   0.41442   0.52857   0.00000  Uiso   1.00
C1253  C     0.18838   0.65154   0.75555   0.00000  Uiso   1.00
C1254  C     0.14506   0.34853   0.74723   0.00000  Uiso   1.00
C1255  C     0.16754   0.49741   0.83629   0.00000  Uiso   1.00
C1256  C     0.16583   0.50200   0.66382   0.00000  Uiso   1.00
C1257  C     0.14237   0.46159   0.59537   0.00000  Uiso   1.00
C1258  C     0.21070   0.52363   0.90412   0.00000  Uiso   1.00
C1259  C     0.16411   0.50437   0.61592   0.00000  Uiso   1.00
C1260  C     0.17108   0.49227   0.88411   0.00000  Uiso   1.00
C1261  C     0.19129   0.54457   0.59130   0.00000  Uiso   1.00
C1262  C     0.13803   0.45588   0.90931   0.00000  Uiso   1.00
C1263  C     0.20336   0.53747   0.54433   0.00000  Uiso   1.00
C1264  C     0.14821   0.45073   0.95548   0.00000  Uiso   1.00
C1265  C     0.17665   0.49481   0.52340   0.00000  Uiso   1.00
C1266  C     0.17949   0.48995   0.97654   0.00000  Uiso   1.00
C1267  C     0.14577   0.45739   0.54910   0.00000  Uiso   1.00
C1268  C     0.21289   0.52464   0.95049   0.00000  Uiso   1.00
C1269  C     0.24260   0.56859   0.51751   0.00000  Uiso   1.00
C1270  C     0.12759   0.40898   0.98178   0.00000  Uiso   1.00
H1271  H     0.12382   0.43098   0.61610   0.00000  Uiso   1.00
H1272  H     0.23626   0.55059   0.88364   0.00000  Uiso   1.00
N1273  N     0.31678   0.48598   0.73783   0.00000  Uiso   1.00
N1274  N     0.01656   0.51402   0.76217   0.00000  Uiso   1.00
O1275  O     0.12975   0.57952   0.75298   0.00000  Uiso   1.00
O1276  O     0.20358   0.42048   0.74701   0.00000  Uiso   1.00
O1277  O     0.22613   0.57054   0.74518   0.00000  Uiso   1.00
O1278  O     0.10720   0.42946   0.75481   0.00000  Uiso   1.00
O1279  O     0.11847   0.50450   0.81997   0.00000  Uiso   1.00
O1280  O     0.21486   0.49550   0.68002   0.00000  Uiso   1.00
O1281  O     0.21485   0.49552   0.81217   0.00000  Uiso   1.00
O1282  O     0.11848   0.50448   0.68782   0.00000  Uiso   1.00
Zn1283 Zn    0.10231   0.50600   0.75521   0.00000  Uiso   1.00
Zn1284 Zn    0.23102   0.49400   0.74479   0.00000  Uiso   1.00
C1285  C     0.20086   0.59500   0.61507   0.00000  Uiso   1.00
H1286  H     0.18264   0.62630   0.59600   0.00000  Uiso   1.00
H1287  H     0.17980   0.59602   0.64914   0.00000  Uiso   1.00
H1288  H     0.24602   0.60212   0.61999   0.00000  Uiso   1.00
C1289  C     0.08850   0.42845   0.88843   0.00000  Uiso   1.00
H1290  H     0.10363   0.40051   0.86269   0.00000  Uiso   1.00
H1291  H     0.05937   0.40928   0.91361   0.00000  Uiso   1.00
H1292  H     0.06124   0.45615   0.87282   0.00000  Uiso   1.00
C1293  C     0.28254   0.60740   0.53713   0.00000  Uiso   1.00
H1294  H     0.25931   0.64086   0.55008   0.00000  Uiso   1.00
H1295  H     0.30715   0.58924   0.56310   0.00000  Uiso   1.00
H1296  H     0.31393   0.62358   0.51198   0.00000  Uiso   1.00
C1297  C     0.12265   0.35639   0.96211   0.00000  Uiso   1.00
H1298  H     0.07767   0.34531   0.95976   0.00000  Uiso   1.00
H1299  H     0.14456   0.35480   0.92832   0.00000  Uiso   1.00
H1300  H     0.14324   0.66178   0.98344   0.00000  Uiso   1.00
O1301  O     0.29526   0.57990   0.94614   0.00000  Uiso   1.00
C1302  C     0.00419   0.54260   0.94287   0.00000  Uiso   1.00
H1303  H     0.00127   0.52130   0.91066   0.00000  Uiso   1.00
H1304  H     0.00065   0.51376   0.97064   0.00000  Uiso   1.00
C1305  C     0.06227   0.56826   0.94531   0.00000  Uiso   1.00
H1306  H     0.06245   0.59518   0.97405   0.00000  Uiso   1.00
H1307  H     0.09264   0.53889   0.95228   0.00000  Uiso   1.00
C1308  C     0.08163   0.59464   0.90145   0.00000  Uiso   1.00
H1309  H     0.12608   0.60828   0.90303   0.00000  Uiso   1.00
H1310  H     0.05416   0.62689   0.89440   0.00000  Uiso   1.00
H1311  H     0.08080   0.56701   0.87366   0.00000  Uiso   1.00
O1312  O     0.09598   0.37618   0.55506   0.00000  Uiso   1.00
C1313  C     0.03660   0.37758   0.55261   0.00000  Uiso   1.00
H1314  H     0.01901   0.34373   0.57112   0.00000  Uiso   1.00
H1315  H     0.02326   0.37440   0.51746   0.00000  Uiso   1.00
C1316  C     0.01115   0.42524   0.57491   0.00000  Uiso   1.00
H1317  H     0.02722   0.43031   0.60889   0.00000  Uiso   1.00
H1318  H     0.02335   0.45965   0.55455   0.00000  Uiso   1.00
C1319  C     0.28035   0.42062   0.57923   0.00000  Uiso   1.00
H1320  H     0.26291   0.41595   0.54549   0.00000  Uiso   1.00
H1321  H     0.26401   0.45587   0.59515   0.00000  Uiso   1.00
H1322  H     0.26643   0.38766   0.60082   0.00000  Uiso   1.00
O1323  O     0.24130   0.33777   0.76596   0.00000  Uiso   1.00
C1324  C     0.25330   0.65912   0.81083   0.00000  Uiso   1.00
H1325  H     0.29794   0.64736   0.81050   0.00000  Uiso   1.00
H1326  H     0.22683   0.62705   0.82597   0.00000  Uiso   1.00
C1327  C     0.24704   0.37316   0.84069   0.00000  Uiso   1.00
H1328  H     0.27348   0.40511   0.82576   0.00000  Uiso   1.00
H1329  H     0.20227   0.38449   0.84241   0.00000  Uiso   1.00
C1330  C     0.26511   0.36321   0.88827   0.00000  Uiso   1.00
H1331  H     0.24006   0.66409   0.90370   0.00000  Uiso   1.00
H1332  H     0.25829   0.39775   0.90942   0.00000  Uiso   1.00
H1333  H     0.31058   0.35422   0.88746   0.00000  Uiso   1.00
O1334  O     0.09209   0.66276   0.73697   0.00000  Uiso   1.00
C1335  C     0.08327   0.33847   0.69102   0.00000  Uiso   1.00
H1336  H     0.10396   0.64214   0.66978   0.00000  Uiso   1.00
H1337  H     0.10031   0.37626   0.67900   0.00000  Uiso   1.00
C1338  C     0.02006   0.33678   0.68424   0.00000  Uiso   1.00
H1339  H     0.33150   0.36094   0.71009   0.00000  Uiso   1.00
H1340  H     0.01202   0.35201   0.65060   0.00000  Uiso   1.00
C1341  C     0.32913   0.61607   0.68779   0.00000  Uiso   1.00
H1342  H     0.01362   0.59226   0.65982   0.00000  Uiso   1.00
H1343  H     0.28289   0.61733   0.68567   0.00000  Uiso   1.00
H1344  H     0.00500   0.59937   0.72063   0.00000  Uiso   1.00
C1345  C     0.00558   0.46955   0.69447   0.00000  Uiso   1.00
H1346  H     0.30601   0.44597   0.67854   0.00000  Uiso   1.00
H1347  H     0.01610   0.50284   0.67246   0.00000  Uiso   1.00
H1348  H     0.04181   0.44494   0.69777   0.00000  Uiso   1.00
C1349  C     0.32710   0.53233   0.80472   0.00000  Uiso   1.00
H1350  H     0.02520   0.55877   0.81869   0.00000  Uiso   1.00
H1351  H     0.28997   0.55544   0.80060   0.00000  Uiso   1.00
H1352  H     0.31833   0.50008   0.82835   0.00000  Uiso   1.00
C1353  C     0.51445   0.59772   0.75012   0.00000  Uiso   1.00
C1354  C     0.48567   0.40232   0.75118   0.00000  Uiso   1.00
C1355  C     0.58249   0.55927   0.97094   0.00000  Uiso   1.00
C1356  C     0.45501   0.41442   0.52857   0.00000  Uiso   1.00
C1357  C     0.52171   0.65154   0.75555   0.00000  Uiso   1.00
C1358  C     0.47839   0.34853   0.74723   0.00000  Uiso   1.00
C1359  C     0.50087   0.49741   0.83629   0.00000  Uiso   1.00
C1360  C     0.49916   0.50200   0.66382   0.00000  Uiso   1.00
C1361  C     0.47570   0.46159   0.59537   0.00000  Uiso   1.00
C1362  C     0.54403   0.52363   0.90412   0.00000  Uiso   1.00
C1363  C     0.49744   0.50437   0.61592   0.00000  Uiso   1.00
C1364  C     0.50441   0.49227   0.88411   0.00000  Uiso   1.00
C1365  C     0.52462   0.54457   0.59130   0.00000  Uiso   1.00
C1366  C     0.47136   0.45588   0.90931   0.00000  Uiso   1.00
C1367  C     0.53670   0.53747   0.54433   0.00000  Uiso   1.00
C1368  C     0.48155   0.45073   0.95548   0.00000  Uiso   1.00
C1369  C     0.50998   0.49481   0.52340   0.00000  Uiso   1.00
C1370  C     0.51283   0.48995   0.97654   0.00000  Uiso   1.00
C1371  C     0.47910   0.45739   0.54910   0.00000  Uiso   1.00
C1372  C     0.54623   0.52464   0.95049   0.00000  Uiso   1.00
C1373  C     0.57593   0.56859   0.51751   0.00000  Uiso   1.00
C1374  C     0.46092   0.40898   0.98178   0.00000  Uiso   1.00
H1375  H     0.45715   0.43098   0.61610   0.00000  Uiso   1.00
H1376  H     0.56960   0.55059   0.88364   0.00000  Uiso   1.00
N1377  N     0.65011   0.48598   0.73783   0.00000  Uiso   1.00
N1378  N     0.34989   0.51402   0.76217   0.00000  Uiso   1.00
O1379  O     0.46308   0.57952   0.75298   0.00000  Uiso   1.00
O1380  O     0.53692   0.42048   0.74701   0.00000  Uiso   1.00
O1381  O     0.55946   0.57054   0.74518   0.00000  Uiso   1.00
O1382  O     0.44054   0.42946   0.75481   0.00000  Uiso   1.00
O1383  O     0.45181   0.50450   0.81997   0.00000  Uiso   1.00
O1384  O     0.54819   0.49550   0.68002   0.00000  Uiso   1.00
O1385  O     0.54819   0.49552   0.81217   0.00000  Uiso   1.00
O1386  O     0.45181   0.50448   0.68782   0.00000  Uiso   1.00
Zn1387 Zn    0.43565   0.50600   0.75521   0.00000  Uiso   1.00
Zn1388 Zn    0.56435   0.49400   0.74479   0.00000  Uiso   1.00
C1389  C     0.53419   0.59500   0.61507   0.00000  Uiso   1.00
H1390  H     0.51598   0.62630   0.59600   0.00000  Uiso   1.00
H1391  H     0.51314   0.59602   0.64914   0.00000  Uiso   1.00
H1392  H     0.57935   0.60212   0.61999   0.00000  Uiso   1.00
C1393  C     0.42184   0.42845   0.88843   0.00000  Uiso   1.00
H1394  H     0.43697   0.40051   0.86269   0.00000  Uiso   1.00
H1395  H     0.39270   0.40928   0.91361   0.00000  Uiso   1.00
H1396  H     0.39457   0.45615   0.87282   0.00000  Uiso   1.00
C1397  C     0.61587   0.60740   0.53713   0.00000  Uiso   1.00
H1398  H     0.59264   0.64086   0.55008   0.00000  Uiso   1.00
H1399  H     0.64048   0.58924   0.56310   0.00000  Uiso   1.00
H1400  H     0.64726   0.62358   0.51198   0.00000  Uiso   1.00
C1401  C     0.45598   0.35639   0.96211   0.00000  Uiso   1.00
H1402  H     0.41100   0.34531   0.95976   0.00000  Uiso   1.00
H1403  H     0.47789   0.35480   0.92832   0.00000  Uiso   1.00
H1404  H     0.47657   0.66178   0.98344   0.00000  Uiso   1.00
O1405  O     0.62859   0.57990   0.94614   0.00000  Uiso   1.00
C1406  C     0.33752   0.54260   0.94287   0.00000  Uiso   1.00
H1407  H     0.33460   0.52130   0.91066   0.00000  Uiso   1.00
H1408  H     0.33398   0.51376   0.97064   0.00000  Uiso   1.00
C1409  C     0.39560   0.56826   0.94531   0.00000  Uiso   1.00
H1410  H     0.39578   0.59518   0.97405   0.00000  Uiso   1.00
H1411  H     0.42597   0.53889   0.95228   0.00000  Uiso   1.00
C1412  C     0.41497   0.59464   0.90145   0.00000  Uiso   1.00
H1413  H     0.45942   0.60828   0.90303   0.00000  Uiso   1.00
H1414  H     0.38750   0.62689   0.89440   0.00000  Uiso   1.00
H1415  H     0.41414   0.56701   0.87366   0.00000  Uiso   1.00
O1416  O     0.42931   0.37618   0.55506   0.00000  Uiso   1.00
C1417  C     0.36993   0.37758   0.55261   0.00000  Uiso   1.00
H1418  H     0.35235   0.34373   0.57112   0.00000  Uiso   1.00
H1419  H     0.35659   0.37440   0.51746   0.00000  Uiso   1.00
C1420  C     0.34448   0.42524   0.57491   0.00000  Uiso   1.00
H1421  H     0.36056   0.43031   0.60889   0.00000  Uiso   1.00
H1422  H     0.35668   0.45965   0.55455   0.00000  Uiso   1.00
C1423  C     0.61369   0.42062   0.57923   0.00000  Uiso   1.00
H1424  H     0.59624   0.41595   0.54549   0.00000  Uiso   1.00
H1425  H     0.59734   0.45587   0.59515   0.00000  Uiso   1.00
H1426  H     0.59976   0.38766   0.60082   0.00000  Uiso   1.00
O1427  O     0.57464   0.33777   0.76596   0.00000  Uiso   1.00
C1428  C     0.58663   0.65912   0.81083   0.00000  Uiso   1.00
H1429  H     0.63127   0.64736   0.81050   0.00000  Uiso   1.00
H1430  H     0.56016   0.62705   0.82597   0.00000  Uiso   1.00
C1431  C     0.58038   0.37316   0.84069   0.00000  Uiso   1.00
H1432  H     0.60681   0.40511   0.82576   0.00000  Uiso   1.00
H1433  H     0.53560   0.38449   0.84241   0.00000  Uiso   1.00
C1434  C     0.59845   0.36321   0.88827   0.00000  Uiso   1.00
H1435  H     0.57339   0.66409   0.90370   0.00000  Uiso   1.00
H1436  H     0.59162   0.39775   0.90942   0.00000  Uiso   1.00
H1437  H     0.64392   0.35422   0.88746   0.00000  Uiso   1.00
O1438  O     0.42542   0.66276   0.73697   0.00000  Uiso   1.00
C1439  C     0.41660   0.33847   0.69102   0.00000  Uiso   1.00
H1440  H     0.43729   0.64214   0.66978   0.00000  Uiso   1.00
H1441  H     0.43364   0.37626   0.67900   0.00000  Uiso   1.00
C1442  C     0.35339   0.33678   0.68424   0.00000  Uiso   1.00
H1443  H     0.66484   0.36094   0.71009   0.00000  Uiso   1.00
H1444  H     0.34536   0.35201   0.65060   0.00000  Uiso   1.00
C1445  C     0.66246   0.61607   0.68779   0.00000  Uiso   1.00
H1446  H     0.34696   0.59226   0.65982   0.00000  Uiso   1.00
H1447  H     0.61622   0.61733   0.68567   0.00000  Uiso   1.00
H1448  H     0.33834   0.59937   0.72063   0.00000  Uiso   1.00
C1449  C     0.33891   0.46955   0.69447   0.00000  Uiso   1.00
H1450  H     0.63934   0.44597   0.67854   0.00000  Uiso   1.00
H1451  H     0.34943   0.50284   0.67246   0.00000  Uiso   1.00
H1452  H     0.37514   0.44494   0.69777   0.00000  Uiso   1.00
C1453  C     0.66043   0.53233   0.80472   0.00000  Uiso   1.00
H1454  H     0.35854   0.55877   0.81869   0.00000  Uiso   1.00
H1455  H     0.62331   0.55544   0.80060   0.00000  Uiso   1.00
H1456  H     0.65166   0.50008   0.82835   0.00000  Uiso   1.00
C1457  C     0.84779   0.59772   0.75012   0.00000  Uiso   1.00
C1458  C     0.81901   0.40232   0.75118   0.00000  Uiso   1.00
C1459  C     0.91582   0.55927   0.97094   0.00000  Uiso   1.00
C1460  C     0.78834   0.41442   0.52857   0.00000  Uiso   1.00
C1461  C     0.85505   0.65154   0.75555   0.00000  Uiso   1.00
C1462  C     0.81173   0.34853   0.74723   0.00000  Uiso   1.00
C1463  C     0.83420   0.49741   0.83629   0.00000  Uiso   1.00
C1464  C     0.83250   0.50200   0.66382   0.00000  Uiso   1.00
C1465  C     0.80904   0.46159   0.59537   0.00000  Uiso   1.00
C1466  C     0.87737   0.52363   0.90412   0.00000  Uiso   1.00
C1467  C     0.83078   0.50437   0.61592   0.00000  Uiso   1.00
C1468  C     0.83774   0.49227   0.88411   0.00000  Uiso   1.00
C1469  C     0.85796   0.54457   0.59130   0.00000  Uiso   1.00
C1470  C     0.80469   0.45588   0.90931   0.00000  Uiso   1.00
C1471  C     0.87003   0.53747   0.54433   0.00000  Uiso   1.00
C1472  C     0.81488   0.45073   0.95548   0.00000  Uiso   1.00
C1473  C     0.84332   0.49481   0.52340   0.00000  Uiso   1.00
C1474  C     0.84616   0.48995   0.97654   0.00000  Uiso   1.00
C1475  C     0.81243   0.45739   0.54910   0.00000  Uiso   1.00
C1476  C     0.87956   0.52464   0.95049   0.00000  Uiso   1.00
C1477  C     0.90927   0.56859   0.51751   0.00000  Uiso   1.00
C1478  C     0.79425   0.40898   0.98178   0.00000  Uiso   1.00
H1479  H     0.79048   0.43098   0.61610   0.00000  Uiso   1.00
H1480  H     0.90293   0.55059   0.88364   0.00000  Uiso   1.00
N1481  N     0.98344   0.48598   0.73783   0.00000  Uiso   1.00
N1482  N     0.68322   0.51402   0.76217   0.00000  Uiso   1.00
O1483  O     0.79642   0.57952   0.75298   0.00000  Uiso   1.00
O1484  O     0.87025   0.42048   0.74701   0.00000  Uiso   1.00
O1485  O     0.89280   0.57054   0.74518   0.00000  Uiso   1.00
O1486  O     0.77387   0.42946   0.75481   0.00000  Uiso   1.00
O1487  O     0.78514   0.50450   0.81997   0.00000  Uiso   1.00
O1488  O     0.88153   0.49550   0.68002   0.00000  Uiso   1.00
O1489  O     0.88152   0.49552   0.81217   0.00000  Uiso   1.00
O1490  O     0.78515   0.50448   0.68782   0.00000  Uiso   1.00
Zn1491 Zn    0.76898   0.50600   0.75521   0.00000  Uiso   1.00
Zn1492 Zn    0.89769   0.49400   0.74479   0.00000  Uiso   1.00
C1493  C     0.86752   0.59500   0.61507   0.00000  Uiso   1.00
H1494  H     0.84931   0.62630   0.59600   0.00000  Uiso   1.00
H1495  H     0.84647   0.59602   0.64914   0.00000  Uiso   1.00
H1496  H     0.91268   0.60212   0.61999   0.00000  Uiso   1.00
C1497  C     0.75517   0.42845   0.88843   0.00000  Uiso   1.00
H1498  H     0.77030   0.40051   0.86269   0.00000  Uiso   1.00
H1499  H     0.72604   0.40928   0.91361   0.00000  Uiso   1.00
H1500  H     0.72790   0.45615   0.87282   0.00000  Uiso   1.00
C1501  C     0.94920   0.60740   0.53713   0.00000  Uiso   1.00
H1502  H     0.92598   0.64086   0.55008   0.00000  Uiso   1.00
H1503  H     0.97381   0.58924   0.56310   0.00000  Uiso   1.00
H1504  H     0.98059   0.62358   0.51198   0.00000  Uiso   1.00
C1505  C     0.78932   0.35639   0.96211   0.00000  Uiso   1.00
H1506  H     0.74433   0.34531   0.95976   0.00000  Uiso   1.00
H1507  H     0.81122   0.35480   0.92832   0.00000  Uiso   1.00
H1508  H     0.80990   0.66178   0.98344   0.00000  Uiso   1.00
O1509  O     0.96192   0.57990   0.94614   0.00000  Uiso   1.00
C1510  C     0.67086   0.54260   0.94287   0.00000  Uiso   1.00
H1511  H     0.66793   0.52130   0.91066   0.00000  Uiso   1.00
H1512  H     0.66732   0.51376   0.97064   0.00000  Uiso   1.00
C1513  C     0.72894   0.56826   0.94531   0.00000  Uiso   1.00
H1514  H     0.72912   0.59518   0.97405   0.00000  Uiso   1.00
H1515  H     0.75931   0.53889   0.95228   0.00000  Uiso   1.00
C1516  C     0.74830   0.59464   0.90145   0.00000  Uiso   1.00
H1517  H     0.79275   0.60828   0.90303   0.00000  Uiso   1.00
H1518  H     0.72083   0.62689   0.89440   0.00000  Uiso   1.00
H1519  H     0.74747   0.56701   0.87366   0.00000  Uiso   1.00
O1520  O     0.76265   0.37618   0.55506   0.00000  Uiso   1.00
C1521  C     0.70326   0.37758   0.55261   0.00000  Uiso   1.00
H1522  H     0.68568   0.34373   0.57112   0.00000  Uiso   1.00
H1523  H     0.68993   0.37440   0.51746   0.00000  Uiso   1.00
C1524  C     0.67782   0.42524   0.57491   0.00000  Uiso   1.00
H1525  H     0.69389   0.43031   0.60889   0.00000  Uiso   1.00
H1526  H     0.69001   0.45965   0.55455   0.00000  Uiso   1.00
C1527  C     0.94702   0.42062   0.57923   0.00000  Uiso   1.00
H1528  H     0.92957   0.41595   0.54549   0.00000  Uiso   1.00
H1529  H     0.93068   0.45587   0.59515   0.00000  Uiso   1.00
H1530  H     0.93309   0.38766   0.60082   0.00000  Uiso   1.00
O1531  O     0.90797   0.33777   0.76596   0.00000  Uiso   1.00
C1532  C     0.91997   0.65912   0.81083   0.00000  Uiso   1.00
H1533  H     0.96461   0.64736   0.81050   0.00000  Uiso   1.00
H1534  H     0.89349   0.62705   0.82597   0.00000  Uiso   1.00
C1535  C     0.91371   0.37316   0.84069   0.00000  Uiso   1.00
H1536  H     0.94014   0.40511   0.82576   0.00000  Uiso   1.00
H1537  H     0.86894   0.38449   0.84241   0.00000  Uiso   1.00
C1538  C     0.93178   0.36321   0.88827   0.00000  Uiso   1.00
H1539  H     0.90673   0.66409   0.90370   0.00000  Uiso   1.00
H1540  H     0.92496   0.39775   0.90942   0.00000  Uiso   1.00
H1541  H     0.97725   0.35422   0.88746   0.00000  Uiso   1.00
O1542  O     0.75875   0.66276   0.73697   0.00000  Uiso   1.00
C1543  C     0.74993   0.33847   0.69102   0.00000  Uiso   1.00
H1544  H     0.77063   0.64214   0.66978   0.00000  Uiso   1.00
H1545  H     0.76698   0.37626   0.67900   0.00000  Uiso   1.00
C1546  C     0.68673   0.33678   0.68424   0.00000  Uiso   1.00
H1547  H     0.99817   0.36094   0.71009   0.00000  Uiso   1.00
H1548  H     0.67869   0.35201   0.65060   0.00000  Uiso   1.00
C1549  C     0.99579   0.61607   0.68779   0.00000  Uiso   1.00
H1550  H     0.68029   0.59226   0.65982   0.00000  Uiso   1.00
H1551  H     0.94955   0.61733   0.68567   0.00000  Uiso   1.00
H1552  H     0.67167   0.59937   0.72063   0.00000  Uiso   1.00
C1553  C     0.67225   0.46955   0.69447   0.00000  Uiso   1.00
H1554  H     0.97267   0.44597   0.67854   0.00000  Uiso   1.00
H1555  H     0.68276   0.50284   0.67246   0.00000  Uiso   1.00
H1556  H     0.70848   0.44494   0.69777   0.00000  Uiso   1.00
C1557  C     0.99377   0.53233   0.80472   0.00000  Uiso   1.00
H1558  H     0.69187   0.55877   0.81869   0.00000  Uiso   1.00
H1559  H     0.95664   0.55544   0.80060   0.00000  Uiso   1.00
H1560  H     0.98499   0.50008   0.82835   0.00000  Uiso   1.00
C1561  C     0.18112   0.93105   0.75012   0.00000  Uiso   1.00
C1562  C     0.15234   0.73566   0.75118   0.00000  Uiso   1.00
C1563  C     0.24916   0.89260   0.97094   0.00000  Uiso   1.00
C1564  C     0.12167   0.74775   0.52857   0.00000  Uiso   1.00
C1565  C     0.18838   0.98487   0.75555   0.00000  Uiso   1.00
C1566  C     0.14506   0.68186   0.74723   0.00000  Uiso   1.00
C1567  C     0.16754   0.83075   0.83629   0.00000  Uiso   1.00
C1568  C     0.16583   0.83533   0.66382   0.00000  Uiso   1.00
C1569  C     0.14237   0.79493   0.59537   0.00000  Uiso   1.00
C1570  C     0.21070   0.85696   0.90412   0.00000  Uiso   1.00
C1571  C     0.16411   0.83771   0.61592   0.00000  Uiso   1.00
C1572  C     0.17108   0.82561   0.88411   0.00000  Uiso   1.00
C1573  C     0.19129   0.87790   0.59130   0.00000  Uiso   1.00
C1574  C     0.13803   0.78921   0.90931   0.00000  Uiso   1.00
C1575  C     0.20336   0.87080   0.54433   0.00000  Uiso   1.00
C1576  C     0.14821   0.78407   0.95548   0.00000  Uiso   1.00
C1577  C     0.17665   0.82814   0.52340   0.00000  Uiso   1.00
C1578  C     0.17949   0.82329   0.97654   0.00000  Uiso   1.00
C1579  C     0.14577   0.79072   0.54910   0.00000  Uiso   1.00
C1580  C     0.21289   0.85798   0.95049   0.00000  Uiso   1.00
C1581  C     0.24260   0.90192   0.51751   0.00000  Uiso   1.00
C1582  C     0.12759   0.74232   0.98178   0.00000  Uiso   1.00
H1583  H     0.12382   0.76432   0.61610   0.00000  Uiso   1.00
H1584  H     0.23626   0.88392   0.88364   0.00000  Uiso   1.00
N1585  N     0.31678   0.81932   0.73783   0.00000  Uiso   1.00
N1586  N     0.01656   0.84735   0.76217   0.00000  Uiso   1.00
O1587  O     0.12975   0.91286   0.75298   0.00000  Uiso   1.00
O1588  O     0.20358   0.75381   0.74701   0.00000  Uiso   1.00
O1589  O     0.22613   0.90387   0.74518   0.00000  Uiso   1.00
O1590  O     0.10720   0.76279   0.75481   0.00000  Uiso   1.00
O1591  O     0.11847   0.83784   0.81997   0.00000  Uiso   1.00
O1592  O     0.21486   0.82883   0.68002   0.00000  Uiso   1.00
O1593  O     0.21485   0.82885   0.81217   0.00000  Uiso   1.00
O1594  O     0.11848   0.83781   0.68782   0.00000  Uiso   1.00
Zn1595 Zn    0.10231   0.83933   0.75521   0.00000  Uiso   1.00
Zn1596 Zn    0.23102   0.82734   0.74479   0.00000  Uiso   1.00
C1597  C     0.20086   0.92833   0.61507   0.00000  Uiso   1.00
H1598  H     0.18264   0.95963   0.59600   0.00000  Uiso   1.00
H1599  H     0.17980   0.92936   0.64914   0.00000  Uiso   1.00
H1600  H     0.24602   0.93545   0.61999   0.00000  Uiso   1.00
C1601  C     0.08850   0.76178   0.88843   0.00000  Uiso   1.00
H1602  H     0.10363   0.73384   0.86269   0.00000  Uiso   1.00
H1603  H     0.05937   0.74262   0.91361   0.00000  Uiso   1.00
H1604  H     0.06124   0.78948   0.87282   0.00000  Uiso   1.00
C1605  C     0.28254   0.94073   0.53713   0.00000  Uiso   1.00
H1606  H     0.25931   0.97419   0.55008   0.00000  Uiso   1.00
H1607  H     0.30715   0.92257   0.56310   0.00000  Uiso   1.00
H1608  H     0.31393   0.95691   0.51198   0.00000  Uiso   1.00
C1609  C     0.12265   0.68972   0.96211   0.00000  Uiso   1.00
H1610  H     0.07767   0.67864   0.95976   0.00000  Uiso   1.00
H1611  H     0.14456   0.68813   0.92832   0.00000  Uiso   1.00
H1612  H     0.14324   0.99511   0.98344   0.00000  Uiso   1.00
O1613  O     0.29526   0.91323   0.94614   0.00000  Uiso   1.00
C1614  C     0.00419   0.87594   0.94287   0.00000  Uiso   1.00
H1615  H     0.00127   0.85464   0.91066   0.00000  Uiso   1.00
H1616  H     0.00065   0.84709   0.97064   0.00000  Uiso   1.00
C1617  C     0.06227   0.90159   0.94531   0.00000  Uiso   1.00
H1618  H     0.06245   0.92851   0.97405   0.00000  Uiso   1.00
H1619  H     0.09264   0.87222   0.95228   0.00000  Uiso   1.00
C1620  C     0.08163   0.92797   0.90145   0.00000  Uiso   1.00
H1621  H     0.12608   0.94161   0.90303   0.00000  Uiso   1.00
H1622  H     0.05416   0.96022   0.89440   0.00000  Uiso   1.00
H1623  H     0.08080   0.90034   0.87366   0.00000  Uiso   1.00
O1624  O     0.09598   0.70951   0.55506   0.00000  Uiso   1.00
C1625  C     0.03660   0.71091   0.55261   0.00000  Uiso   1.00
H1626  H     0.01901   0.67707   0.57112   0.00000  Uiso   1.00
H1627  H     0.02326   0.70773   0.51746   0.00000  Uiso   1.00
C1628  C     0.01115   0.75857   0.57491   0.00000  Uiso   1.00
H1629  H     0.02722   0.76364   0.60889   0.00000  Uiso   1.00
H1630  H     0.02335   0.79299   0.55455   0.00000  Uiso   1.00
C1631  C     0.28035   0.75396   0.57923   0.00000  Uiso   1.00
H1632  H     0.26291   0.74928   0.54549   0.00000  Uiso   1.00
H1633  H     0.26401   0.78920   0.59515   0.00000  Uiso   1.00
H1634  H     0.26643   0.72100   0.60082   0.00000  Uiso   1.00
O1635  O     0.24130   0.67111   0.76596   0.00000  Uiso   1.00
C1636  C     0.25330   0.99246   0.81083   0.00000  Uiso   1.00
H1637  H     0.29794   0.98069   0.81050   0.00000  Uiso   1.00
H1638  H     0.22683   0.96038   0.82597   0.00000  Uiso   1.00
C1639  C     0.24704   0.70650   0.84069   0.00000  Uiso   1.00
H1640  H     0.27348   0.73844   0.82576   0.00000  Uiso   1.00
H1641  H     0.20227   0.71783   0.84241   0.00000  Uiso   1.00
C1642  C     0.26511   0.69654   0.88827   0.00000  Uiso   1.00
H1643  H     0.24006   0.99742   0.90370   0.00000  Uiso   1.00
H1644  H     0.25829   0.73108   0.90942   0.00000  Uiso   1.00
H1645  H     0.31058   0.68755   0.88746   0.00000  Uiso   1.00
O1646  O     0.09209   0.99609   0.73697   0.00000  Uiso   1.00
C1647  C     0.08327   0.67180   0.69102   0.00000  Uiso   1.00
H1648  H     0.10396   0.97548   0.66978   0.00000  Uiso   1.00
H1649  H     0.10031   0.70959   0.67900   0.00000  Uiso   1.00
C1650  C     0.02006   0.67011   0.68424   0.00000  Uiso   1.00
H1651  H     0.33150   0.69428   0.71009   0.00000  Uiso   1.00
H1652  H     0.01202   0.68534   0.65060   0.00000  Uiso   1.00
C1653  C     0.32913   0.94941   0.68779   0.00000  Uiso   1.00
H1654  H     0.01362   0.92559   0.65982   0.00000  Uiso   1.00
H1655  H     0.28289   0.95066   0.68567   0.00000  Uiso   1.00
H1656  H     0.00500   0.93270   0.72063   0.00000  Uiso   1.00
C1657  C     0.00558   0.80288   0.69447   0.00000  Uiso   1.00
H1658  H     0.30601   0.77930   0.67854   0.00000  Uiso   1.00
H1659  H     0.01610   0.83617   0.67246   0.00000  Uiso   1.00
H1660  H     0.04181   0.77827   0.69777   0.00000  Uiso   1.00
C1661  C     0.32710   0.86566   0.80472   0.00000  Uiso   1.00
H1662  H     0.02520   0.89210   0.81869   0.00000  Uiso   1.00
H1663  H     0.28997   0.88878   0.80060   0.00000  Uiso   1.00
H1664  H     0.31833   0.83342   0.82835   0.00000  Uiso   1.00
C1665  C     0.51445   0.93105   0.75012   0.00000  Uiso   1.00
C1666  C     0.48567   0.73566   0.75118   0.00000  Uiso   1.00
C1667  C     0.58249   0.89260   0.97094   0.00000  Uiso   1.00
C1668  C     0.45501   0.74775   0.52857   0.00000  Uiso   1.00
C1669  C     0.52171   0.98487   0.75555   0.00000  Uiso   1.00
C1670  C     0.47839   0.68186   0.74723   0.00000  Uiso   1.00
C1671  C     0.50087   0.83075   0.83629   0.00000  Uiso   1.00
C1672  C     0.49916   0.83533   0.66382   0.00000  Uiso   1.00
C1673  C     0.47570   0.79493   0.59537   0.00000  Uiso   1.00
C1674  C     0.54403   0.85696   0.90412   0.00000  Uiso   1.00
C1675  C     0.49744   0.83771   0.61592   0.00000  Uiso   1.00
C1676  C     0.50441   0.82561   0.88411   0.00000  Uiso   1.00
C1677  C     0.52462   0.87790   0.59130   0.00000  Uiso   1.00
C1678  C     0.47136   0.78921   0.90931   0.00000  Uiso   1.00
C1679  C     0.53670   0.87080   0.54433   0.00000  Uiso   1.00
C1680  C     0.48155   0.78407   0.95548   0.00000  Uiso   1.00
C1681  C     0.50998   0.82814   0.52340   0.00000  Uiso   1.00
C1682  C     0.51283   0.82329   0.97654   0.00000  Uiso   1.00
C1683  C     0.47910   0.79072   0.54910   0.00000  Uiso   1.00
C1684  C     0.54623   0.85798   0.95049   0.00000  Uiso   1.00
C1685  C     0.57593   0.90192   0.51751   0.00000  Uiso   1.00
C1686  C     0.46092   0.74232   0.98178   0.00000  Uiso   1.00
H1687  H     0.45715   0.76432   0.61610   0.00000  Uiso   1.00
H1688  H     0.56960   0.88392   0.88364   0.00000  Uiso   1.00
N1689  N     0.65011   0.81932   0.73783   0.00000  Uiso   1.00
N1690  N     0.34989   0.84735   0.76217   0.00000  Uiso   1.00
O1691  O     0.46308   0.91286   0.75298   0.00000  Uiso   1.00
O1692  O     0.53692   0.75381   0.74701   0.00000  Uiso   1.00
O1693  O     0.55946   0.90387   0.74518   0.00000  Uiso   1.00
O1694  O     0.44054   0.76279   0.75481   0.00000  Uiso   1.00
O1695  O     0.45181   0.83784   0.81997   0.00000  Uiso   1.00
O1696  O     0.54819   0.82883   0.68002   0.00000  Uiso   1.00
O1697  O     0.54819   0.82885   0.81217   0.00000  Uiso   1.00
O1698  O     0.45181   0.83781   0.68782   0.00000  Uiso   1.00
Zn1699 Zn    0.43565   0.83933   0.75521   0.00000  Uiso   1.00
Zn1700 Zn    0.56435   0.82734   0.74479   0.00000  Uiso   1.00
C1701  C     0.53419   0.92833   0.61507   0.00000  Uiso   1.00
H1702  H     0.51598   0.95963   0.59600   0.00000  Uiso   1.00
H1703  H     0.51314   0.92936   0.64914   0.00000  Uiso   1.00
H1704  H     0.57935   0.93545   0.61999   0.00000  Uiso   1.00
C1705  C     0.42184   0.76178   0.88843   0.00000  Uiso   1.00
H1706  H     0.43697   0.73384   0.86269   0.00000  Uiso   1.00
H1707  H     0.39270   0.74262   0.91361   0.00000  Uiso   1.00
H1708  H     0.39457   0.78948   0.87282   0.00000  Uiso   1.00
C1709  C     0.61587   0.94073   0.53713   0.00000  Uiso   1.00
H1710  H     0.59264   0.97419   0.55008   0.00000  Uiso   1.00
H1711  H     0.64048   0.92257   0.56310   0.00000  Uiso   1.00
H1712  H     0.64726   0.95691   0.51198   0.00000  Uiso   1.00
C1713  C     0.45598   0.68972   0.96211   0.00000  Uiso   1.00
H1714  H     0.41100   0.67864   0.95976   0.00000  Uiso   1.00
H1715  H     0.47789   0.68813   0.92832   0.00000  Uiso   1.00
H1716  H     0.47657   0.99511   0.98344   0.00000  Uiso   1.00
O1717  O     0.62859   0.91323   0.94614   0.00000  Uiso   1.00
C1718  C     0.33752   0.87594   0.94287   0.00000  Uiso   1.00
H1719  H     0.33460   0.85464   0.91066   0.00000  Uiso   1.00
H1720  H     0.33398   0.84709   0.97064   0.00000  Uiso   1.00
C1721  C     0.39560   0.90159   0.94531   0.00000  Uiso   1.00
H1722  H     0.39578   0.92851   0.97405   0.00000  Uiso   1.00
H1723  H     0.42597   0.87222   0.95228   0.00000  Uiso   1.00
C1724  C     0.41497   0.92797   0.90145   0.00000  Uiso   1.00
H1725  H     0.45942   0.94161   0.90303   0.00000  Uiso   1.00
H1726  H     0.38750   0.96022   0.89440   0.00000  Uiso   1.00
H1727  H     0.41414   0.90034   0.87366   0.00000  Uiso   1.00
O1728  O     0.42931   0.70951   0.55506   0.00000  Uiso   1.00
C1729  C     0.36993   0.71091   0.55261   0.00000  Uiso   1.00
H1730  H     0.35235   0.67707   0.57112   0.00000  Uiso   1.00
H1731  H     0.35659   0.70773   0.51746   0.00000  Uiso   1.00
C1732  C     0.34448   0.75857   0.57491   0.00000  Uiso   1.00
H1733  H     0.36056   0.76364   0.60889   0.00000  Uiso   1.00
H1734  H     0.35668   0.79299   0.55455   0.00000  Uiso   1.00
C1735  C     0.61369   0.75396   0.57923   0.00000  Uiso   1.00
H1736  H     0.59624   0.74928   0.54549   0.00000  Uiso   1.00
H1737  H     0.59734   0.78920   0.59515   0.00000  Uiso   1.00
H1738  H     0.59976   0.72100   0.60082   0.00000  Uiso   1.00
O1739  O     0.57464   0.67111   0.76596   0.00000  Uiso   1.00
C1740  C     0.58663   0.99246   0.81083   0.00000  Uiso   1.00
H1741  H     0.63127   0.98069   0.81050   0.00000  Uiso   1.00
H1742  H     0.56016   0.96038   0.82597   0.00000  Uiso   1.00
C1743  C     0.58038   0.70650   0.84069   0.00000  Uiso   1.00
H1744  H     0.60681   0.73844   0.82576   0.00000  Uiso   1.00
H1745  H     0.53560   0.71783   0.84241   0.00000  Uiso   1.00
C1746  C     0.59845   0.69654   0.88827   0.00000  Uiso   1.00
H1747  H     0.57339   0.99742   0.90370   0.00000  Uiso   1.00
H1748  H     0.59162   0.73108   0.90942   0.00000  Uiso   1.00
H1749  H     0.64392   0.68755   0.88746   0.00000  Uiso   1.00
O1750  O     0.42542   0.99609   0.73697   0.00000  Uiso   1.00
C1751  C     0.41660   0.67180   0.69102   0.00000  Uiso   1.00
H1752  H     0.43729   0.97548   0.66978   0.00000  Uiso   1.00
H1753  H     0.43364   0.70959   0.67900   0.00000  Uiso   1.00
C1754  C     0.35339   0.67011   0.68424   0.00000  Uiso   1.00
H1755  H     0.66484   0.69428   0.71009   0.00000  Uiso   1.00
H1756  H     0.34536   0.68534   0.65060   0.00000  Uiso   1.00
C1757  C     0.66246   0.94941   0.68779   0.00000  Uiso   1.00
H1758  H     0.34696   0.92559   0.65982   0.00000  Uiso   1.00
H1759  H     0.61622   0.95066   0.68567   0.00000  Uiso   1.00
H1760  H     0.33834   0.93270   0.72063   0.00000  Uiso   1.00
C1761  C     0.33891   0.80288   0.69447   0.00000  Uiso   1.00
H1762  H     0.63934   0.77930   0.67854   0.00000  Uiso   1.00
H1763  H     0.34943   0.83617   0.67246   0.00000  Uiso   1.00
H1764  H     0.37514   0.77827   0.69777   0.00000  Uiso   1.00
C1765  C     0.66043   0.86566   0.80472   0.00000  Uiso   1.00
H1766  H     0.35854   0.89210   0.81869   0.00000  Uiso   1.00
H1767  H     0.62331   0.88878   0.80060   0.00000  Uiso   1.00
H1768  H     0.65166   0.83342   0.82835   0.00000  Uiso   1.00
C1769  C     0.84779   0.93105   0.75012   0.00000  Uiso   1.00
C1770  C     0.81901   0.73566   0.75118   0.00000  Uiso   1.00
C1771  C     0.91582   0.89260   0.97094   0.00000  Uiso   1.00
C1772  C     0.78834   0.74775   0.52857   0.00000  Uiso   1.00
C1773  C     0.85505   0.98487   0.75555   0.00000  Uiso   1.00
C1774  C     0.81173   0.68186   0.74723   0.00000  Uiso   1.00
C1775  C     0.83420   0.83075   0.83629   0.00000  Uiso   1.00
C1776  C     0.83250   0.83533   0.66382   0.00000  Uiso   1.00
C1777  C     0.80904   0.79493   0.59537   0.00000  Uiso   1.00
C1778  C     0.87737   0.85696   0.90412   0.00000  Uiso   1.00
C1779  C     0.83078   0.83771   0.61592   0.00000  Uiso   1.00
C1780  C     0.83774   0.82561   0.88411   0.00000  Uiso   1.00
C1781  C     0.85796   0.87790   0.59130   0.00000  Uiso   1.00
C1782  C     0.80469   0.78921   0.90931   0.00000  Uiso   1.00
C1783  C     0.87003   0.87080   0.54433   0.00000  Uiso   1.00
C1784  C     0.81488   0.78407   0.95548   0.00000  Uiso   1.00
C1785  C     0.84332   0.82814   0.52340   0.00000  Uiso   1.00
C1786  C     0.84616   0.82329   0.97654   0.00000  Uiso   1.00
C1787  C     0.81243   0.79072   0.54910   0.00000  Uiso   1.00
C1788  C     0.87956   0.85798   0.95049   0.00000  Uiso   1.00
C1789  C     0.90927   0.90192   0.51751   0.00000  Uiso   1.00
C1790  C     0.79425   0.74232   0.98178   0.00000  Uiso   1.00
H1791  H     0.79048   0.76432   0.61610   0.00000  Uiso   1.00
H1792  H     0.90293   0.88392   0.88364   0.00000  Uiso   1.00
N1793  N     0.98344   0.81932   0.73783   0.00000  Uiso   1.00
N1794  N     0.68322   0.84735   0.76217   0.00000  Uiso   1.00
O1795  O     0.79642   0.91286   0.75298   0.00000  Uiso   1.00
O1796  O     0.87025   0.75381   0.74701   0.00000  Uiso   1.00
O1797  O     0.89280   0.90387   0.74518   0.00000  Uiso   1.00
O1798  O     0.77387   0.76279   0.75481   0.00000  Uiso   1.00
O1799  O     0.78514   0.83784   0.81997   0.00000  Uiso   1.00
O1800  O     0.88153   0.82883   0.68002   0.00000  Uiso   1.00
O1801  O     0.88152   0.82885   0.81217   0.00000  Uiso   1.00
O1802  O     0.78515   0.83781   0.68782   0.00000  Uiso   1.00
Zn1803 Zn    0.76898   0.83933   0.75521   0.00000  Uiso   1.00
Zn1804 Zn    0.89769   0.82734   0.74479   0.00000  Uiso   1.00
C1805  C     0.86752   0.92833   0.61507   0.00000  Uiso   1.00
H1806  H     0.84931   0.95963   0.59600   0.00000  Uiso   1.00
H1807  H     0.84647   0.92936   0.64914   0.00000  Uiso   1.00
H1808  H     0.91268   0.93545   0.61999   0.00000  Uiso   1.00
C1809  C     0.75517   0.76178   0.88843   0.00000  Uiso   1.00
H1810  H     0.77030   0.73384   0.86269   0.00000  Uiso   1.00
H1811  H     0.72604   0.74262   0.91361   0.00000  Uiso   1.00
H1812  H     0.72790   0.78948   0.87282   0.00000  Uiso   1.00
C1813  C     0.94920   0.94073   0.53713   0.00000  Uiso   1.00
H1814  H     0.92598   0.97419   0.55008   0.00000  Uiso   1.00
H1815  H     0.97381   0.92257   0.56310   0.00000  Uiso   1.00
H1816  H     0.98059   0.95691   0.51198   0.00000  Uiso   1.00
C1817  C     0.78932   0.68972   0.96211   0.00000  Uiso   1.00
H1818  H     0.74433   0.67864   0.95976   0.00000  Uiso   1.00
H1819  H     0.81122   0.68813   0.92832   0.00000  Uiso   1.00
H1820  H     0.80990   0.99511   0.98344   0.00000  Uiso   1.00
O1821  O     0.96192   0.91323   0.94614   0.00000  Uiso   1.00
C1822  C     0.67086   0.87594   0.94287   0.00000  Uiso   1.00
H1823  H     0.66793   0.85464   0.91066   0.00000  Uiso   1.00
H1824  H     0.66732   0.84709   0.97064   0.00000  Uiso   1.00
C1825  C     0.72894   0.90159   0.94531   0.00000  Uiso   1.00
H1826  H     0.72912   0.92851   0.97405   0.00000  Uiso   1.00
H1827  H     0.75931   0.87222   0.95228   0.00000  Uiso   1.00
C1828  C     0.74830   0.92797   0.90145   0.00000  Uiso   1.00
H1829  H     0.79275   0.94161   0.90303   0.00000  Uiso   1.00
H1830  H     0.72083   0.96022   0.89440   0.00000  Uiso   1.00
H1831  H     0.74747   0.90034   0.87366   0.00000  Uiso   1.00
O1832  O     0.76265   0.70951   0.55506   0.00000  Uiso   1.00
C1833  C     0.70326   0.71091   0.55261   0.00000  Uiso   1.00
H1834  H     0.68568   0.67707   0.57112   0.00000  Uiso   1.00
H1835  H     0.68993   0.70773   0.51746   0.00000  Uiso   1.00
C1836  C     0.67782   0.75857   0.57491   0.00000  Uiso   1.00
H1837  H     0.69389   0.76364   0.60889   0.00000  Uiso   1.00
H1838  H     0.69001   0.79299   0.55455   0.00000  Uiso   1.00
C1839  C     0.94702   0.75396   0.57923   0.00000  Uiso   1.00
H1840  H     0.92957   0.74928   0.54549   0.00000  Uiso   1.00
H1841  H     0.93068   0.78920   0.59515   0.00000  Uiso   1.00
H1842  H     0.93309   0.72100   0.60082   0.00000  Uiso   1.00
O1843  O     0.90797   0.67111   0.76596   0.00000  Uiso   1.00
C1844  C     0.91997   0.99246   0.81083   0.00000  Uiso   1.00
H1845  H     0.96461   0.98069   0.81050   0.00000  Uiso   1.00
H1846  H     0.89349   0.96038   0.82597   0.00000  Uiso   1.00
C1847  C     0.91371   0.70650   0.84069   0.00000  Uiso   1.00
H1848  H     0.94014   0.73844   0.82576   0.00000  Uiso   1.00
H1849  H     0.86894   0.71783   0.84241   0.00000  Uiso   1.00
C1850  C     0.93178   0.69654   0.88827   0.00000  Uiso   1.00
H1851  H     0.90673   0.99742   0.90370   0.00000  Uiso   1.00
H1852  H     0.92496   0.73108   0.90942   0.00000  Uiso   1.00
H1853  H     0.97725   0.68755   0.88746   0.00000  Uiso   1.00
O1854  O     0.75875   0.99609   0.73697   0.00000  Uiso   1.00
C1855  C     0.74993   0.67180   0.69102   0.00000  Uiso   1.00
H1856  H     0.77063   0.97548   0.66978   0.00000  Uiso   1.00
H1857  H     0.76698   0.70959   0.67900   0.00000  Uiso   1.00
C1858  C     0.68673   0.67011   0.68424   0.00000  Uiso   1.00
H1859  H     0.99817   0.69428   0.71009   0.00000  Uiso   1.00
H1860  H     0.67869   0.68534   0.65060   0.00000  Uiso   1.00
C1861  C     0.99579   0.94941   0.68779   0.00000  Uiso   1.00
H1862  H     0.68029   0.92559   0.65982   0.00000  Uiso   1.00
H1863  H     0.94955   0.95066   0.68567   0.00000  Uiso   1.00
H1864  H     0.67167   0.93270   0.72063   0.00000  Uiso   1.00
C1865  C     0.67225   0.80288   0.69447   0.00000  Uiso   1.00
H1866  H     0.97267   0.77930   0.67854   0.00000  Uiso   1.00
H1867  H     0.68276   0.83617   0.67246   0.00000  Uiso   1.00
H1868  H     0.70848   0.77827   0.69777   0.00000  Uiso   1.00
C1869  C     0.99377   0.86566   0.80472   0.00000  Uiso   1.00
H1870  H     0.69187   0.89210   0.81869   0.00000  Uiso   1.00
H1871  H     0.95664   0.88878   0.80060   0.00000  Uiso   1.00
H1872  H     0.98499   0.83342   0.82835   0.00000  Uiso   1.00
loop_
_geom_bond_atom_site_label_1
_geom_bond_atom_site_label_2
_geom_bond_distance
_geom_bond_site_symmetry_2
_ccdc_geom_bond_type
C1     C5      1.426   .     S
C1     O29     1.302   .     A
C1     O27     1.295   .     A
C2     C6      1.421   .     S
C2     O30     1.301   .     A
C2     O28     1.293   .     A
C3     O53     1.384   .     S
C3     C20     1.394   .     A
C3     C957    1.406   .     S
C4     C19     1.401   .     A
C4     O64     1.385   .     S
C4     C958    1.398   1_554 S
C5     C318    1.351   .     S
C5     O387    1.393   .     S
C6     C629    1.351   1_545 S
C6     O710    1.389   1_545 S
C7     O33     1.301   .     A
C7     C12     1.436   .     S
C7     O31     1.303   .     A
C8     C11     1.429   .     S
C8     O32     1.299   .     A
C8     O34     1.301   .     A
C9     C19     1.378   .     A
C9     H23     1.083   .     S
C9     C11     1.376   .     A
C10    C20     1.383   .     A
C10    C12     1.388   .     A
C10    H24     1.085   .     S
C11    C13     1.407   .     A
C12    C14     1.410   .     A
C13    C37     1.514   .     S
C13    C15     1.423   .     A
C14    C41     1.520   .     S
C14    C16     1.414   .     A
C15    C17     1.427   .     A
C15    C21     1.432   .     A
C16    C22     1.409   .     A
C16    C18     1.415   .     A
C17    C19     1.410   .     A
C17    C954    1.397   1_554 S
C18    C20     1.398   .     A
C18    C953    1.397   .     S
C21    C45     1.508   .     S
C21    C939    1.406   1_554 S
C22    C49     1.499   .     S
C22    C940    1.398   .     S
N25    Zn36    2.050   .     S
N25    N130    1.306   .     S
N25    C201    1.435   .     S
N26    Zn35    2.050   .     S
N26    N233    1.306   1_455 S
N26    C309    1.435   1_455 S
O27    Zn35    2.017   .     S
O28    Zn36    2.017   .     S
O29    Zn36    2.013   .     S
O30    Zn35    2.013   .     S
O31    Zn35    1.985   .     S
O32    Zn36    1.985   .     S
O33    Zn36    2.020   .     S
O34    Zn35    2.020   .     S
C37    H40     1.100   .     S
C37    H38     1.110   .     S
C37    H39     1.105   .     S
C41    H43     1.104   .     S
C41    H42     1.110   .     S
C41    H44     1.106   .     S
C45    H46     1.106   .     S
C45    H47     1.110   .     S
C45    H48     1.104   .     S
C49    H51     1.107   .     S
C49    H50     1.104   .     S
C49    H676    1.111   1_545 S
H52    C361    1.111   .     S
O53    C158    1.419   .     S
C54    H56     1.121   .     S
C54    H55     1.111   .     S
C54    C57     1.521   .     S
C54    O261    1.419   1_455 S
C57    H59     1.097   .     S
C57    C60     1.522   .     S
C57    H58     1.106   .     S
C60    H63     1.097   .     S
C60    H62     1.109   .     S
C60    H61     1.107   .     S
O64    C65     1.416   .     S
C65    H67     1.110   .     S
C65    C68     1.535   .     S
C65    H66     1.106   .     S
C68    H69     1.105   .     S
C68    H70     1.112   .     S
C68    C279    1.521   1_455 S
C71    H74     1.111   .     S
C71    H73     1.106   .     S
C71    H72     1.111   .     S
C71    C172    1.521   .     S
O75    C629    1.393   1_545 S
O75    C700    1.418   1_545 S
C76    H78     1.117   .     S
C76    H77     1.111   .     S
C76    O387    1.418   .     S
C76    C391    1.529   .     S
C79    H81     1.109   .     S
C79    C82     1.526   .     S
C79    H80     1.112   .     S
C79    C700    1.529   1_545 S
C82    H84     1.111   .     S
C82    H85     1.110   .     S
C82    H707    1.111   1_545 S
H83    C394    1.111   .     S
O86    C318    1.389   .     S
O86    C399    1.415   .     S
C87    H89     1.113   .     S
C87    C90     1.523   .     S
C87    O710    1.415   1_545 S
C87    H712    1.108   1_545 S
H88    C399    1.108   .     S
C90    H92     1.107   .     S
C90    H299    1.110   1_455 S
C90    C925    1.516   1_445 S
H91    C194    1.110   .     S
C93    H95     1.104   .     S
C93    C506    1.516   .     S
C93    H198    1.110   .     S
C93    H200    1.107   .     S
H94    C301    1.110   1_455 S
H96    C301    1.107   1_455 S
C97    H99     1.108   .     S
C97    H100    1.098   .     S
C97    N233    1.435   1_455 S
C97    H306    1.107   1_455 S
H98    C201    1.107   .     S
C101   H104    1.110   .     S
C101   H103    1.096   .     S
C101   N130    1.435   .     S
C101   H206    1.101   .     S
H102   C309    1.101   1_455 S
C105   C109    1.426   .     S
C105   O133    1.302   .     A
C105   O131    1.295   .     A
C106   C110    1.421   .     S
C106   O134    1.301   .     A
C106   O132    1.293   .     A
C107   O157    1.384   .     S
C107   C124    1.394   .     A
C107   C1061   1.406   .     S
C108   C123    1.401   .     A
C108   O168    1.385   .     S
C108   C1062   1.398   1_554 S
C109   C422    1.351   .     S
C109   O491    1.393   .     S
C110   C733    1.351   1_545 S
C110   O814    1.389   1_545 S
C111   O137    1.301   .     A
C111   C116    1.436   .     S
C111   O135    1.303   .     A
C112   C115    1.429   .     S
C112   O136    1.299   .     A
C112   O138    1.301   .     A
C113   C123    1.378   .     A
C113   H127    1.083   .     S
C113   C115    1.376   .     A
C114   C124    1.383   .     A
C114   C116    1.388   .     A
C114   H128    1.085   .     S
C115   C117    1.407   .     A
C116   C118    1.410   .     A
C117   C141    1.514   .     S
C117   C119    1.423   .     A
C118   C145    1.520   .     S
C118   C120    1.414   .     A
C119   C121    1.427   .     A
C119   C125    1.432   .     A
C120   C126    1.409   .     A
C120   C122    1.415   .     A
C121   C123    1.410   .     A
C121   C1058   1.397   1_554 S
C122   C124    1.398   .     A
C122   C1057   1.397   .     S
C125   C149    1.508   .     S
C125   C1043   1.406   1_554 S
C126   C153    1.499   .     S
C126   C1044   1.398   .     S
N129   Zn140   2.050   .     S
N129   N234    1.306   .     S
N129   C305    1.435   .     S
N130   Zn139   2.050   .     S
O131   Zn139   2.017   .     S
O132   Zn140   2.017   .     S
O133   Zn140   2.013   .     S
O134   Zn139   2.013   .     S
O135   Zn139   1.985   .     S
O136   Zn140   1.985   .     S
O137   Zn140   2.020   .     S
O138   Zn139   2.020   .     S
C141   H144    1.100   .     S
C141   H142    1.110   .     S
C141   H143    1.105   .     S
C145   H147    1.104   .     S
C145   H146    1.110   .     S
C145   H148    1.106   .     S
C149   H150    1.106   .     S
C149   H151    1.110   .     S
C149   H152    1.104   .     S
C153   H155    1.107   .     S
C153   H154    1.104   .     S
C153   H780    1.111   1_545 S
H156   C465    1.111   .     S
O157   C262    1.419   .     S
C158   H160    1.121   .     S
C158   H159    1.111   .     S
C158   C161    1.521   .     S
C161   H163    1.097   .     S
C161   C164    1.522   .     S
C161   H162    1.106   .     S
C164   H167    1.097   .     S
C164   H166    1.109   .     S
C164   H165    1.107   .     S
O168   C169    1.416   .     S
C169   H171    1.110   .     S
C169   C172    1.535   .     S
C169   H170    1.106   .     S
C172   H173    1.105   .     S
C172   H174    1.112   .     S
C175   H178    1.111   .     S
C175   H177    1.106   .     S
C175   H176    1.111   .     S
C175   C276    1.521   .     S
O179   C733    1.393   1_545 S
O179   C804    1.418   1_545 S
C180   H182    1.117   .     S
C180   H181    1.111   .     S
C180   O491    1.418   .     S
C180   C495    1.529   .     S
C183   H185    1.109   .     S
C183   C186    1.526   .     S
C183   H184    1.112   .     S
C183   C804    1.529   1_545 S
C186   H188    1.111   .     S
C186   H189    1.110   .     S
C186   H811    1.111   1_545 S
H187   C498    1.111   .     S
O190   C422    1.389   .     S
O190   C503    1.415   .     S
C191   H193    1.113   .     S
C191   C194    1.523   .     S
C191   O814    1.415   1_545 S
C191   H816    1.108   1_545 S
H192   C503    1.108   .     S
C194   H196    1.107   .     S
C194   C717    1.516   1_545 S
H195   C298    1.110   .     S
C197   H199    1.104   .     S
C197   C610    1.516   .     S
C197   H302    1.110   .     S
C197   H304    1.107   .     S
C201   H203    1.108   .     S
C201   H204    1.098   .     S
H202   C305    1.107   .     S
C205   H208    1.110   .     S
C205   H207    1.096   .     S
C205   N234    1.435   .     S
C205   H310    1.101   .     S
C209   C213    1.426   .     S
C209   O237    1.302   .     A
C209   O235    1.295   .     A
C210   C214    1.421   .     S
C210   O238    1.301   .     A
C210   O236    1.293   .     A
C211   O261    1.384   .     S
C211   C228    1.394   .     A
C211   C1165   1.406   .     S
C212   C227    1.401   .     A
C212   O272    1.385   .     S
C212   C1166   1.398   1_554 S
C213   C526    1.351   .     S
C213   O595    1.393   .     S
C214   C837    1.351   1_545 S
C214   O918    1.389   1_545 S
C215   O241    1.301   .     A
C215   C220    1.436   .     S
C215   O239    1.303   .     A
C216   C219    1.429   .     S
C216   O240    1.299   .     A
C216   O242    1.301   .     A
C217   C227    1.378   .     A
C217   H231    1.083   .     S
C217   C219    1.376   .     A
C218   C228    1.383   .     A
C218   C220    1.388   .     A
C218   H232    1.085   .     S
C219   C221    1.407   .     A
C220   C222    1.410   .     A
C221   C245    1.514   .     S
C221   C223    1.423   .     A
C222   C249    1.520   .     S
C222   C224    1.414   .     A
C223   C225    1.427   .     A
C223   C229    1.432   .     A
C224   C230    1.409   .     A
C224   C226    1.415   .     A
C225   C227    1.410   .     A
C225   C1162   1.397   1_554 S
C226   C228    1.398   .     A
C226   C1161   1.397   .     S
C229   C253    1.508   .     S
C229   C1147   1.406   1_554 S
C230   C257    1.499   .     S
C230   C1148   1.398   .     S
N233   Zn244   2.050   .     S
N233   N26     1.306   1_655 S
N233   C97     1.435   1_655 S
N234   Zn243   2.050   .     S
O235   Zn243   2.017   .     S
O236   Zn244   2.017   .     S
O237   Zn244   2.013   .     S
O238   Zn243   2.013   .     S
O239   Zn243   1.985   .     S
O240   Zn244   1.985   .     S
O241   Zn244   2.020   .     S
O242   Zn243   2.020   .     S
C245   H248    1.100   .     S
C245   H246    1.110   .     S
C245   H247    1.105   .     S
C249   H251    1.104   .     S
C249   H250    1.110   .     S
C249   H252    1.106   .     S
C253   H254    1.106   .     S
C253   H255    1.110   .     S
C253   H256    1.104   .     S
C257   H259    1.107   .     S
C257   H258    1.104   .     S
C257   H884    1.111   1_545 S
H260   C569    1.111   .     S
O261   C54     1.419   1_655 S
C262   H264    1.121   .     S
C262   H263    1.111   .     S
C262   C265    1.521   .     S
C265   H267    1.097   .     S
C265   C268    1.522   .     S
C265   H266    1.106   .     S
C268   H271    1.097   .     S
C268   H270    1.109   .     S
C268   H269    1.107   .     S
O272   C273    1.416   .     S
C273   H275    1.110   .     S
C273   C276    1.535   .     S
C273   H274    1.106   .     S
C276   H277    1.105   .     S
C276   H278    1.112   .     S
C279   H282    1.111   .     S
C279   H281    1.106   .     S
C279   H280    1.111   .     S
C279   C68     1.521   1_655 S
O283   C837    1.393   1_545 S
O283   C908    1.418   1_545 S
C284   H286    1.117   .     S
C284   H285    1.111   .     S
C284   O595    1.418   .     S
C284   C599    1.529   .     S
C287   H289    1.109   .     S
C287   C290    1.526   .     S
C287   H288    1.112   .     S
C287   C908    1.529   1_545 S
C290   H292    1.111   .     S
C290   H293    1.110   .     S
C290   H915    1.111   1_545 S
H291   C602    1.111   .     S
O294   C526    1.389   .     S
O294   C607    1.415   .     S
C295   H297    1.113   .     S
C295   C298    1.523   .     S
C295   O918    1.415   1_545 S
C295   H920    1.108   1_545 S
H296   C607    1.108   .     S
C298   H300    1.107   .     S
C298   C821    1.516   1_545 S
H299   C90     1.110   1_655 S
C301   H303    1.104   .     S
C301   C402    1.516   1_655 S
C301   H94     1.110   1_655 S
C301   H96     1.107   1_655 S
C305   H307    1.108   .     S
C305   H308    1.098   .     S
H306   C97     1.107   1_655 S
C309   H312    1.110   .     S
C309   H311    1.096   .     S
C309   N26     1.435   1_655 S
C309   H102    1.101   1_655 S
C313   C317    1.426   .     S
C313   O341    1.302   .     A
C313   O339    1.295   .     A
C314   C318    1.421   .     S
C314   O342    1.301   .     A
C314   O340    1.293   .     A
C315   O365    1.384   .     S
C315   C332    1.394   .     A
C315   C1269   1.406   .     S
C316   C331    1.401   .     A
C316   O376    1.385   .     S
C316   C1270   1.398   1_554 S
C317   C630    1.351   .     S
C317   O699    1.393   .     S
C319   O345    1.301   .     A
C319   C324    1.436   .     S
C319   O343    1.303   .     A
C320   C323    1.429   .     S
C320   O344    1.299   .     A
C320   O346    1.301   .     A
C321   C331    1.378   .     A
C321   H335    1.083   .     S
C321   C323    1.376   .     A
C322   C332    1.383   .     A
C322   C324    1.388   .     A
C322   H336    1.085   .     S
C323   C325    1.407   .     A
C324   C326    1.410   .     A
C325   C349    1.514   .     S
C325   C327    1.423   .     A
C326   C353    1.520   .     S
C326   C328    1.414   .     A
C327   C329    1.427   .     A
C327   C333    1.432   .     A
C328   C334    1.409   .     A
C328   C330    1.415   .     A
C329   C331    1.410   .     A
C329   C1266   1.397   1_554 S
C330   C332    1.398   .     A
C330   C1265   1.397   .     S
C333   C357    1.508   .     S
C333   C1251   1.406   1_554 S
C334   C361    1.499   .     S
C334   C1252   1.398   .     S
N337   Zn348   2.050   .     S
N337   N442    1.306   .     S
N337   C513    1.435   .     S
N338   Zn347   2.050   .     S
N338   N545    1.306   1_455 S
N338   C621    1.435   1_455 S
O339   Zn347   2.017   .     S
O340   Zn348   2.017   .     S
O341   Zn348   2.013   .     S
O342   Zn347   2.013   .     S
O343   Zn347   1.985   .     S
O344   Zn348   1.985   .     S
O345   Zn348   2.020   .     S
O346   Zn347   2.020   .     S
C349   H352    1.100   .     S
C349   H350    1.110   .     S
C349   H351    1.105   .     S
C353   H355    1.104   .     S
C353   H354    1.110   .     S
C353   H356    1.106   .     S
C357   H358    1.106   .     S
C357   H359    1.110   .     S
C357   H360    1.104   .     S
C361   H363    1.107   .     S
C361   H362    1.104   .     S
H364   C673    1.111   .     S
O365   C470    1.419   .     S
C366   H368    1.121   .     S
C366   H367    1.111   .     S
C366   C369    1.521   .     S
C366   O573    1.419   1_455 S
C369   H371    1.097   .     S
C369   C372    1.522   .     S
C369   H370    1.106   .     S
C372   H375    1.097   .     S
C372   H374    1.109   .     S
C372   H373    1.107   .     S
O376   C377    1.416   .     S
C377   H379    1.110   .     S
C377   C380    1.535   .     S
C377   H378    1.106   .     S
C380   H381    1.105   .     S
C380   H382    1.112   .     S
C380   C591    1.521   1_455 S
C383   H386    1.111   .     S
C383   H385    1.106   .     S
C383   H384    1.111   .     S
C383   C484    1.521   .     S
C388   H390    1.117   .     S
C388   H389    1.111   .     S
C388   O699    1.418   .     S
C388   C703    1.529   .     S
C391   H393    1.109   .     S
C391   C394    1.526   .     S
C391   H392    1.112   .     S
C394   H396    1.111   .     S
C394   H397    1.110   .     S
H395   C706    1.111   .     S
O398   C630    1.389   .     S
O398   C711    1.415   .     S
C399   H401    1.113   .     S
C399   C402    1.523   .     S
H400   C711    1.108   .     S
C402   H404    1.107   .     S
C402   H611    1.110   1_455 S
C402   C301    1.516   1_455 S
H403   C506    1.110   .     S
C405   H407    1.104   .     S
C405   C818    1.516   .     S
C405   H510    1.110   .     S
C405   H512    1.107   .     S
H406   C613    1.110   1_455 S
H408   C613    1.107   1_455 S
C409   H411    1.108   .     S
C409   H412    1.098   .     S
C409   N545    1.435   1_455 S
C409   H618    1.107   1_455 S
H410   C513    1.107   .     S
C413   H416    1.110   .     S
C413   H415    1.096   .     S
C413   N442    1.435   .     S
C413   H518    1.101   .     S
H414   C621    1.101   1_455 S
C417   C421    1.426   .     S
C417   O445    1.302   .     A
C417   O443    1.295   .     A
C418   C422    1.421   .     S
C418   O446    1.301   .     A
C418   O444    1.293   .     A
C419   O469    1.384   .     S
C419   C436    1.394   .     A
C419   C1373   1.406   .     S
C420   C435    1.401   .     A
C420   O480    1.385   .     S
C420   C1374   1.398   1_554 S
C421   C734    1.351   .     S
C421   O803    1.393   .     S
C423   O449    1.301   .     A
C423   C428    1.436   .     S
C423   O447    1.303   .     A
C424   C427    1.429   .     S
C424   O448    1.299   .     A
C424   O450    1.301   .     A
C425   C435    1.378   .     A
C425   H439    1.083   .     S
C425   C427    1.376   .     A
C426   C436    1.383   .     A
C426   C428    1.388   .     A
C426   H440    1.085   .     S
C427   C429    1.407   .     A
C428   C430    1.410   .     A
C429   C453    1.514   .     S
C429   C431    1.423   .     A
C430   C457    1.520   .     S
C430   C432    1.414   .     A
C431   C433    1.427   .     A
C431   C437    1.432   .     A
C432   C438    1.409   .     A
C432   C434    1.415   .     A
C433   C435    1.410   .     A
C433   C1370   1.397   1_554 S
C434   C436    1.398   .     A
C434   C1369   1.397   .     S
C437   C461    1.508   .     S
C437   C1355   1.406   1_554 S
C438   C465    1.499   .     S
C438   C1356   1.398   .     S
N441   Zn452   2.050   .     S
N441   N546    1.306   .     S
N441   C617    1.435   .     S
N442   Zn451   2.050   .     S
O443   Zn451   2.017   .     S
O444   Zn452   2.017   .     S
O445   Zn452   2.013   .     S
O446   Zn451   2.013   .     S
O447   Zn451   1.985   .     S
O448   Zn452   1.985   .     S
O449   Zn452   2.020   .     S
O450   Zn451   2.020   .     S
C453   H456    1.100   .     S
C453   H454    1.110   .     S
C453   H455    1.105   .     S
C457   H459    1.104   .     S
C457   H458    1.110   .     S
C457   H460    1.106   .     S
C461   H462    1.106   .     S
C461   H463    1.110   .     S
C461   H464    1.104   .     S
C465   H467    1.107   .     S
C465   H466    1.104   .     S
H468   C777    1.111   .     S
O469   C574    1.419   .     S
C470   H472    1.121   .     S
C470   H471    1.111   .     S
C470   C473    1.521   .     S
C473   H475    1.097   .     S
C473   C476    1.522   .     S
C473   H474    1.106   .     S
C476   H479    1.097   .     S
C476   H478    1.109   .     S
C476   H477    1.107   .     S
O480   C481    1.416   .     S
C481   H483    1.110   .     S
C481   C484    1.535   .     S
C481   H482    1.106   .     S
C484   H485    1.105   .     S
C484   H486    1.112   .     S
C487   H490    1.111   .     S
C487   H489    1.106   .     S
C487   H488    1.111   .     S
C487   C588    1.521   .     S
C492   H494    1.117   .     S
C492   H493    1.111   .     S
C492   O803    1.418   .     S
C492   C807    1.529   .     S
C495   H497    1.109   .     S
C495   C498    1.526   .     S
C495   H496    1.112   .     S
C498   H500    1.111   .     S
C498   H501    1.110   .     S
H499   C810    1.111   .     S
O502   C734    1.389   .     S
O502   C815    1.415   .     S
C503   H505    1.113   .     S
C503   C506    1.523   .     S
H504   C815    1.108   .     S
C506   H508    1.107   .     S
H507   C610    1.110   .     S
C509   H511    1.104   .     S
C509   C922    1.516   .     S
C509   H614    1.110   .     S
C509   H616    1.107   .     S
C513   H515    1.108   .     S
C513   H516    1.098   .     S
H514   C617    1.107   .     S
C517   H520    1.110   .     S
C517   H519    1.096   .     S
C517   N546    1.435   .     S
C517   H622    1.101   .     S
C521   C525    1.426   .     S
C521   O549    1.302   .     A
C521   O547    1.295   .     A
C522   C526    1.421   .     S
C522   O550    1.301   .     A
C522   O548    1.293   .     A
C523   O573    1.384   .     S
C523   C540    1.394   .     A
C523   C1477   1.406   .     S
C524   C539    1.401   .     A
C524   O584    1.385   .     S
C524   C1478   1.398   1_554 S
C525   C838    1.351   .     S
C525   O907    1.393   .     S
C527   O553    1.301   .     A
C527   C532    1.436   .     S
C527   O551    1.303   .     A
C528   C531    1.429   .     S
C528   O552    1.299   .     A
C528   O554    1.301   .     A
C529   C539    1.378   .     A
C529   H543    1.083   .     S
C529   C531    1.376   .     A
C530   C540    1.383   .     A
C530   C532    1.388   .     A
C530   H544    1.085   .     S
C531   C533    1.407   .     A
C532   C534    1.410   .     A
C533   C557    1.514   .     S
C533   C535    1.423   .     A
C534   C561    1.520   .     S
C534   C536    1.414   .     A
C535   C537    1.427   .     A
C535   C541    1.432   .     A
C536   C542    1.409   .     A
C536   C538    1.415   .     A
C537   C539    1.410   .     A
C537   C1474   1.397   1_554 S
C538   C540    1.398   .     A
C538   C1473   1.397   .     S
C541   C565    1.508   .     S
C541   C1459   1.406   1_554 S
C542   C569    1.499   .     S
C542   C1460   1.398   .     S
N545   Zn556   2.050   .     S
N545   N338    1.306   1_655 S
N545   C409    1.435   1_655 S
N546   Zn555   2.050   .     S
O547   Zn555   2.017   .     S
O548   Zn556   2.017   .     S
O549   Zn556   2.013   .     S
O550   Zn555   2.013   .     S
O551   Zn555   1.985   .     S
O552   Zn556   1.985   .     S
O553   Zn556   2.020   .     S
O554   Zn555   2.020   .     S
C557   H560    1.100   .     S
C557   H558    1.110   .     S
C557   H559    1.105   .     S
C561   H563    1.104   .     S
C561   H562    1.110   .     S
C561   H564    1.106   .     S
C565   H566    1.106   .     S
C565   H567    1.110   .     S
C565   H568    1.104   .     S
C569   H571    1.107   .     S
C569   H570    1.104   .     S
H572   C881    1.111   .     S
O573   C366    1.419   1_655 S
C574   H576    1.121   .     S
C574   H575    1.111   .     S
C574   C577    1.521   .     S
C577   H579    1.097   .     S
C577   C580    1.522   .     S
C577   H578    1.106   .     S
C580   H583    1.097   .     S
C580   H582    1.109   .     S
C580   H581    1.107   .     S
O584   C585    1.416   .     S
C585   H587    1.110   .     S
C585   C588    1.535   .     S
C585   H586    1.106   .     S
C588   H589    1.105   .     S
C588   H590    1.112   .     S
C591   H594    1.111   .     S
C591   H593    1.106   .     S
C591   H592    1.111   .     S
C591   C380    1.521   1_655 S
C596   H598    1.117   .     S
C596   H597    1.111   .     S
C596   O907    1.418   .     S
C596   C911    1.529   .     S
C599   H601    1.109   .     S
C599   C602    1.526   .     S
C599   H600    1.112   .     S
C602   H604    1.111   .     S
C602   H605    1.110   .     S
H603   C914    1.111   .     S
O606   C838    1.389   .     S
O606   C919    1.415   .     S
C607   H609    1.113   .     S
C607   C610    1.523   .     S
H608   C919    1.108   .     S
C610   H612    1.107   .     S
H611   C402    1.110   1_655 S
C613   H615    1.104   .     S
C613   C714    1.516   1_655 S
C613   H406    1.110   1_655 S
C613   H408    1.107   1_655 S
C617   H619    1.108   .     S
C617   H620    1.098   .     S
H618   C409    1.107   1_655 S
C621   H624    1.110   .     S
C621   H623    1.096   .     S
C621   N338    1.435   1_655 S
C621   H414    1.101   1_655 S
C625   C629    1.426   .     S
C625   O653    1.302   .     A
C625   O651    1.295   .     A
C626   C630    1.421   .     S
C626   O654    1.301   .     A
C626   O652    1.293   .     A
C627   O677    1.384   .     S
C627   C644    1.394   .     A
C627   C1581   1.406   .     S
C628   C643    1.401   .     A
C628   O688    1.385   .     S
C628   C1582   1.398   1_554 S
C629   C6      1.351   1_565 S
C629   O75     1.393   1_565 S
C631   O657    1.301   .     A
C631   C636    1.436   .     S
C631   O655    1.303   .     A
C632   C635    1.429   .     S
C632   O656    1.299   .     A
C632   O658    1.301   .     A
C633   C643    1.378   .     A
C633   H647    1.083   .     S
C633   C635    1.376   .     A
C634   C644    1.383   .     A
C634   C636    1.388   .     A
C634   H648    1.085   .     S
C635   C637    1.407   .     A
C636   C638    1.410   .     A
C637   C661    1.514   .     S
C637   C639    1.423   .     A
C638   C665    1.520   .     S
C638   C640    1.414   .     A
C639   C641    1.427   .     A
C639   C645    1.432   .     A
C640   C646    1.409   .     A
C640   C642    1.415   .     A
C641   C643    1.410   .     A
C641   C1578   1.397   1_554 S
C642   C644    1.398   .     A
C642   C1577   1.397   .     S
C645   C669    1.508   .     S
C645   C1563   1.406   1_554 S
C646   C673    1.499   .     S
C646   C1564   1.398   .     S
N649   Zn660   2.050   .     S
N649   N754    1.306   .     S
N649   C825    1.435   .     S
N650   Zn659   2.050   .     S
N650   N857    1.306   1_455 S
N650   C933    1.435   1_455 S
O651   Zn659   2.017   .     S
O652   Zn660   2.017   .     S
O653   Zn660   2.013   .     S
O654   Zn659   2.013   .     S
O655   Zn659   1.985   .     S
O656   Zn660   1.985   .     S
O657   Zn660   2.020   .     S
O658   Zn659   2.020   .     S
C661   H664    1.100   .     S
C661   H662    1.110   .     S
C661   H663    1.105   .     S
C665   H667    1.104   .     S
C665   H666    1.110   .     S
C665   H668    1.106   .     S
C669   H670    1.106   .     S
C669   H671    1.110   .     S
C669   H672    1.104   .     S
C673   H675    1.107   .     S
C673   H674    1.104   .     S
H676   C49     1.111   1_565 S
O677   C782    1.419   .     S
C678   H680    1.121   .     S
C678   H679    1.111   .     S
C678   C681    1.521   .     S
C678   O885    1.419   1_455 S
C681   H683    1.097   .     S
C681   C684    1.522   .     S
C681   H682    1.106   .     S
C684   H687    1.097   .     S
C684   H686    1.109   .     S
C684   H685    1.107   .     S
O688   C689    1.416   .     S
C689   H691    1.110   .     S
C689   C692    1.535   .     S
C689   H690    1.106   .     S
C692   H693    1.105   .     S
C692   H694    1.112   .     S
C692   C903    1.521   1_455 S
C695   H698    1.111   .     S
C695   H697    1.106   .     S
C695   H696    1.111   .     S
C695   C796    1.521   .     S
C700   H702    1.117   .     S
C700   H701    1.111   .     S
C700   O75     1.418   1_565 S
C700   C79     1.529   1_565 S
C703   H705    1.109   .     S
C703   C706    1.526   .     S
C703   H704    1.112   .     S
C706   H708    1.111   .     S
C706   H709    1.110   .     S
H707   C82     1.111   1_565 S
O710   C6      1.389   1_565 S
O710   C87     1.415   1_565 S
C711   H713    1.113   .     S
C711   C714    1.523   .     S
H712   C87     1.108   1_565 S
C714   H716    1.107   .     S
C714   H923    1.110   1_455 S
C714   C613    1.516   1_455 S
H715   C818    1.110   .     S
C717   H719    1.104   .     S
C717   C194    1.516   1_565 S
C717   H822    1.110   .     S
C717   H824    1.107   .     S
H718   C925    1.110   1_455 S
H720   C925    1.107   1_455 S
C721   H723    1.108   .     S
C721   H724    1.098   .     S
C721   N857    1.435   1_455 S
C721   H930    1.107   1_455 S
H722   C825    1.107   .     S
C725   H728    1.110   .     S
C725   H727    1.096   .     S
C725   N754    1.435   .     S
C725   H830    1.101   .     S
H726   C933    1.101   1_455 S
C729   C733    1.426   .     S
C729   O757    1.302   .     A
C729   O755    1.295   .     A
C730   C734    1.421   .     S
C730   O758    1.301   .     A
C730   O756    1.293   .     A
C731   O781    1.384   .     S
C731   C748    1.394   .     A
C731   C1685   1.406   .     S
C732   C747    1.401   .     A
C732   O792    1.385   .     S
C732   C1686   1.398   1_554 S
C733   C110    1.351   1_565 S
C733   O179    1.393   1_565 S
C735   O761    1.301   .     A
C735   C740    1.436   .     S
C735   O759    1.303   .     A
C736   C739    1.429   .     S
C736   O760    1.299   .     A
C736   O762    1.301   .     A
C737   C747    1.378   .     A
C737   H751    1.083   .     S
C737   C739    1.376   .     A
C738   C748    1.383   .     A
C738   C740    1.388   .     A
C738   H752    1.085   .     S
C739   C741    1.407   .     A
C740   C742    1.410   .     A
C741   C765    1.514   .     S
C741   C743    1.423   .     A
C742   C769    1.520   .     S
C742   C744    1.414   .     A
C743   C745    1.427   .     A
C743   C749    1.432   .     A
C744   C750    1.409   .     A
C744   C746    1.415   .     A
C745   C747    1.410   .     A
C745   C1682   1.397   1_554 S
C746   C748    1.398   .     A
C746   C1681   1.397   .     S
C749   C773    1.508   .     S
C749   C1667   1.406   1_554 S
C750   C777    1.499   .     S
C750   C1668   1.398   .     S
N753   Zn764   2.050   .     S
N753   N858    1.306   .     S
N753   C929    1.435   .     S
N754   Zn763   2.050   .     S
O755   Zn763   2.017   .     S
O756   Zn764   2.017   .     S
O757   Zn764   2.013   .     S
O758   Zn763   2.013   .     S
O759   Zn763   1.985   .     S
O760   Zn764   1.985   .     S
O761   Zn764   2.020   .     S
O762   Zn763   2.020   .     S
C765   H768    1.100   .     S
C765   H766    1.110   .     S
C765   H767    1.105   .     S
C769   H771    1.104   .     S
C769   H770    1.110   .     S
C769   H772    1.106   .     S
C773   H774    1.106   .     S
C773   H775    1.110   .     S
C773   H776    1.104   .     S
C777   H779    1.107   .     S
C777   H778    1.104   .     S
H780   C153    1.111   1_565 S
O781   C886    1.419   .     S
C782   H784    1.121   .     S
C782   H783    1.111   .     S
C782   C785    1.521   .     S
C785   H787    1.097   .     S
C785   C788    1.522   .     S
C785   H786    1.106   .     S
C788   H791    1.097   .     S
C788   H790    1.109   .     S
C788   H789    1.107   .     S
O792   C793    1.416   .     S
C793   H795    1.110   .     S
C793   C796    1.535   .     S
C793   H794    1.106   .     S
C796   H797    1.105   .     S
C796   H798    1.112   .     S
C799   H802    1.111   .     S
C799   H801    1.106   .     S
C799   H800    1.111   .     S
C799   C900    1.521   .     S
C804   H806    1.117   .     S
C804   H805    1.111   .     S
C804   O179    1.418   1_565 S
C804   C183    1.529   1_565 S
C807   H809    1.109   .     S
C807   C810    1.526   .     S
C807   H808    1.112   .     S
C810   H812    1.111   .     S
C810   H813    1.110   .     S
H811   C186    1.111   1_565 S
O814   C110    1.389   1_565 S
O814   C191    1.415   1_565 S
C815   H817    1.113   .     S
C815   C818    1.523   .     S
H816   C191    1.108   1_565 S
C818   H820    1.107   .     S
H819   C922    1.110   .     S
C821   H823    1.104   .     S
C821   C298    1.516   1_565 S
C821   H926    1.110   .     S
C821   H928    1.107   .     S
C825   H827    1.108   .     S
C825   H828    1.098   .     S
H826   C929    1.107   .     S
C829   H832    1.110   .     S
C829   H831    1.096   .     S
C829   N858    1.435   .     S
C829   H934    1.101   .     S
C833   C837    1.426   .     S
C833   O861    1.302   .     A
C833   O859    1.295   .     A
C834   C838    1.421   .     S
C834   O862    1.301   .     A
C834   O860    1.293   .     A
C835   O885    1.384   .     S
C835   C852    1.394   .     A
C835   C1789   1.406   .     S
C836   C851    1.401   .     A
C836   O896    1.385   .     S
C836   C1790   1.398   1_554 S
C837   C214    1.351   1_565 S
C837   O283    1.393   1_565 S
C839   O865    1.301   .     A
C839   C844    1.436   .     S
C839   O863    1.303   .     A
C840   C843    1.429   .     S
C840   O864    1.299   .     A
C840   O866    1.301   .     A
C841   C851    1.378   .     A
C841   H855    1.083   .     S
C841   C843    1.376   .     A
C842   C852    1.383   .     A
C842   C844    1.388   .     A
C842   H856    1.085   .     S
C843   C845    1.407   .     A
C844   C846    1.410   .     A
C845   C869    1.514   .     S
C845   C847    1.423   .     A
C846   C873    1.520   .     S
C846   C848    1.414   .     A
C847   C849    1.427   .     A
C847   C853    1.432   .     A
C848   C854    1.409   .     A
C848   C850    1.415   .     A
C849   C851    1.410   .     A
C849   C1786   1.397   1_554 S
C850   C852    1.398   .     A
C850   C1785   1.397   .     S
C853   C877    1.508   .     S
C853   C1771   1.406   1_554 S
C854   C881    1.499   .     S
C854   C1772   1.398   .     S
N857   Zn868   2.050   .     S
N857   N650    1.306   1_655 S
N857   C721    1.435   1_655 S
N858   Zn867   2.050   .     S
O859   Zn867   2.017   .     S
O860   Zn868   2.017   .     S
O861   Zn868   2.013   .     S
O862   Zn867   2.013   .     S
O863   Zn867   1.985   .     S
O864   Zn868   1.985   .     S
O865   Zn868   2.020   .     S
O866   Zn867   2.020   .     S
C869   H872    1.100   .     S
C869   H870    1.110   .     S
C869   H871    1.105   .     S
C873   H875    1.104   .     S
C873   H874    1.110   .     S
C873   H876    1.106   .     S
C877   H878    1.106   .     S
C877   H879    1.110   .     S
C877   H880    1.104   .     S
C881   H883    1.107   .     S
C881   H882    1.104   .     S
H884   C257    1.111   1_565 S
O885   C678    1.419   1_655 S
C886   H888    1.121   .     S
C886   H887    1.111   .     S
C886   C889    1.521   .     S
C889   H891    1.097   .     S
C889   C892    1.522   .     S
C889   H890    1.106   .     S
C892   H895    1.097   .     S
C892   H894    1.109   .     S
C892   H893    1.107   .     S
O896   C897    1.416   .     S
C897   H899    1.110   .     S
C897   C900    1.535   .     S
C897   H898    1.106   .     S
C900   H901    1.105   .     S
C900   H902    1.112   .     S
C903   H906    1.111   .     S
C903   H905    1.106   .     S
C903   H904    1.111   .     S
C903   C692    1.521   1_655 S
C908   H910    1.117   .     S
C908   H909    1.111   .     S
C908   O283    1.418   1_565 S
C908   C287    1.529   1_565 S
C911   H913    1.109   .     S
C911   C914    1.526   .     S
C911   H912    1.112   .     S
C914   H916    1.111   .     S
C914   H917    1.110   .     S
H915   C290    1.111   1_565 S
O918   C214    1.389   1_565 S
O918   C295    1.415   1_565 S
C919   H921    1.113   .     S
C919   C922    1.523   .     S
H920   C295    1.108   1_565 S
C922   H924    1.107   .     S
H923   C714    1.110   1_655 S
C925   H927    1.104   .     S
C925   C90     1.516   1_665 S
C925   H718    1.110   1_655 S
C925   H720    1.107   1_655 S
C929   H931    1.108   .     S
C929   H932    1.098   .     S
H930   C721    1.107   1_655 S
C933   H936    1.110   .     S
C933   H935    1.096   .     S
C933   N650    1.435   1_655 S
C933   H726    1.101   1_655 S
C937   C941    1.426   .     S
C937   O965    1.302   .     A
C937   O963    1.295   .     A
C938   C942    1.421   .     S
C938   O966    1.301   .     A
C938   O964    1.293   .     A
C939   O989    1.384   .     S
C939   C956    1.394   .     A
C939   C21     1.406   1_556 S
C940   C955    1.401   .     A
C940   O1000   1.385   .     S
C941   C1254   1.351   .     S
C941   O1323   1.393   .     S
C942   C1565   1.351   1_545 S
C942   O1646   1.389   1_545 S
C943   O969    1.301   .     A
C943   C948    1.436   .     S
C943   O967    1.303   .     A
C944   C947    1.429   .     S
C944   O968    1.299   .     A
C944   O970    1.301   .     A
C945   C955    1.378   .     A
C945   H959    1.083   .     S
C945   C947    1.376   .     A
C946   C956    1.383   .     A
C946   C948    1.388   .     A
C946   H960    1.085   .     S
C947   C949    1.407   .     A
C948   C950    1.410   .     A
C949   C973    1.514   .     S
C949   C951    1.423   .     A
C950   C977    1.520   .     S
C950   C952    1.414   .     A
C951   C953    1.427   .     A
C951   C957    1.432   .     A
C952   C958    1.409   .     A
C952   C954    1.415   .     A
C953   C955    1.410   .     A
C954   C956    1.398   .     A
C954   C17     1.397   1_556 S
C957   C981    1.508   .     S
C958   C985    1.499   .     S
C958   C4      1.398   1_556 S
N961   Zn972   2.050   .     S
N961   N1066   1.306   .     S
N961   C1137   1.435   .     S
N962   Zn971   2.050   .     S
N962   N1169   1.306   1_455 S
N962   C1245   1.435   1_455 S
O963   Zn971   2.017   .     S
O964   Zn972   2.017   .     S
O965   Zn972   2.013   .     S
O966   Zn971   2.013   .     S
O967   Zn971   1.985   .     S
O968   Zn972   1.985   .     S
O969   Zn972   2.020   .     S
O970   Zn971   2.020   .     S
C973   H976    1.100   .     S
C973   H974    1.110   .     S
C973   H975    1.105   .     S
C977   H979    1.104   .     S
C977   H978    1.110   .     S
C977   H980    1.106   .     S
C981   H982    1.106   .     S
C981   H983    1.110   .     S
C981   H984    1.104   .     S
C985   H987    1.107   .     S
C985   H986    1.104   .     S
C985   H1612   1.111   1_545 S
H988   C1297   1.111   .     S
O989   C1094   1.419   .     S
C990   H992    1.121   .     S
C990   H991    1.111   .     S
C990   C993    1.521   .     S
C990   O1197   1.419   1_455 S
C993   H995    1.097   .     S
C993   C996    1.522   .     S
C993   H994    1.106   .     S
C996   H999    1.097   .     S
C996   H998    1.109   .     S
C996   H997    1.107   .     S
O1000  C1001   1.416   .     S
C1001  H1003   1.110   .     S
C1001  C1004   1.535   .     S
C1001  H1002   1.106   .     S
C1004  H1005   1.105   .     S
C1004  H1006   1.112   .     S
C1004  C1215   1.521   1_455 S
C1007  H1010   1.111   .     S
C1007  H1009   1.106   .     S
C1007  H1008   1.111   .     S
C1007  C1108   1.521   .     S
O1011  C1565   1.393   1_545 S
O1011  C1636   1.418   1_545 S
C1012  H1014   1.117   .     S
C1012  H1013   1.111   .     S
C1012  O1323   1.418   .     S
C1012  C1327   1.529   .     S
C1015  H1017   1.109   .     S
C1015  C1018   1.526   .     S
C1015  H1016   1.112   .     S
C1015  C1636   1.529   1_545 S
C1018  H1020   1.111   .     S
C1018  H1021   1.110   .     S
C1018  H1643   1.111   1_545 S
H1019  C1330   1.111   .     S
O1022  C1254   1.389   .     S
O1022  C1335   1.415   .     S
C1023  H1025   1.113   .     S
C1023  C1026   1.523   .     S
C1023  O1646   1.415   1_545 S
C1023  H1648   1.108   1_545 S
H1024  C1335   1.108   .     S
C1026  H1028   1.107   .     S
C1026  H1235   1.110   1_455 S
C1026  C1861   1.516   1_445 S
H1027  C1130   1.110   .     S
C1029  H1031   1.104   .     S
C1029  C1442   1.516   .     S
C1029  H1134   1.110   .     S
C1029  H1136   1.107   .     S
H1030  C1237   1.110   1_455 S
H1032  C1237   1.107   1_455 S
C1033  H1035   1.108   .     S
C1033  H1036   1.098   .     S
C1033  N1169   1.435   1_455 S
C1033  H1242   1.107   1_455 S
H1034  C1137   1.107   .     S
C1037  H1040   1.110   .     S
C1037  H1039   1.096   .     S
C1037  N1066   1.435   .     S
C1037  H1142   1.101   .     S
H1038  C1245   1.101   1_455 S
C1041  C1045   1.426   .     S
C1041  O1069   1.302   .     A
C1041  O1067   1.295   .     A
C1042  C1046   1.421   .     S
C1042  O1070   1.301   .     A
C1042  O1068   1.293   .     A
C1043  O1093   1.384   .     S
C1043  C1060   1.394   .     A
C1043  C125    1.406   1_556 S
C1044  C1059   1.401   .     A
C1044  O1104   1.385   .     S
C1045  C1358   1.351   .     S
C1045  O1427   1.393   .     S
C1046  C1669   1.351   1_545 S
C1046  O1750   1.389   1_545 S
C1047  O1073   1.301   .     A
C1047  C1052   1.436   .     S
C1047  O1071   1.303   .     A
C1048  C1051   1.429   .     S
C1048  O1072   1.299   .     A
C1048  O1074   1.301   .     A
C1049  C1059   1.378   .     A
C1049  H1063   1.083   .     S
C1049  C1051   1.376   .     A
C1050  C1060   1.383   .     A
C1050  C1052   1.388   .     A
C1050  H1064   1.085   .     S
C1051  C1053   1.407   .     A
C1052  C1054   1.410   .     A
C1053  C1077   1.514   .     S
C1053  C1055   1.423   .     A
C1054  C1081   1.520   .     S
C1054  C1056   1.414   .     A
C1055  C1057   1.427   .     A
C1055  C1061   1.432   .     A
C1056  C1062   1.409   .     A
C1056  C1058   1.415   .     A
C1057  C1059   1.410   .     A
C1058  C1060   1.398   .     A
C1058  C121    1.397   1_556 S
C1061  C1085   1.508   .     S
C1062  C1089   1.499   .     S
C1062  C108    1.398   1_556 S
N1065  Zn1076  2.050   .     S
N1065  N1170   1.306   .     S
N1065  C1241   1.435   .     S
N1066  Zn1075  2.050   .     S
O1067  Zn1075  2.017   .     S
O1068  Zn1076  2.017   .     S
O1069  Zn1076  2.013   .     S
O1070  Zn1075  2.013   .     S
O1071  Zn1075  1.985   .     S
O1072  Zn1076  1.985   .     S
O1073  Zn1076  2.020   .     S
O1074  Zn1075  2.020   .     S
C1077  H1080   1.100   .     S
C1077  H1078   1.110   .     S
C1077  H1079   1.105   .     S
C1081  H1083   1.104   .     S
C1081  H1082   1.110   .     S
C1081  H1084   1.106   .     S
C1085  H1086   1.106   .     S
C1085  H1087   1.110   .     S
C1085  H1088   1.104   .     S
C1089  H1091   1.107   .     S
C1089  H1090   1.104   .     S
C1089  H1716   1.111   1_545 S
H1092  C1401   1.111   .     S
O1093  C1198   1.419   .     S
C1094  H1096   1.121   .     S
C1094  H1095   1.111   .     S
C1094  C1097   1.521   .     S
C1097  H1099   1.097   .     S
C1097  C1100   1.522   .     S
C1097  H1098   1.106   .     S
C1100  H1103   1.097   .     S
C1100  H1102   1.109   .     S
C1100  H1101   1.107   .     S
O1104  C1105   1.416   .     S
C1105  H1107   1.110   .     S
C1105  C1108   1.535   .     S
C1105  H1106   1.106   .     S
C1108  H1109   1.105   .     S
C1108  H1110   1.112   .     S
C1111  H1114   1.111   .     S
C1111  H1113   1.106   .     S
C1111  H1112   1.111   .     S
C1111  C1212   1.521   .     S
O1115  C1669   1.393   1_545 S
O1115  C1740   1.418   1_545 S
C1116  H1118   1.117   .     S
C1116  H1117   1.111   .     S
C1116  O1427   1.418   .     S
C1116  C1431   1.529   .     S
C1119  H1121   1.109   .     S
C1119  C1122   1.526   .     S
C1119  H1120   1.112   .     S
C1119  C1740   1.529   1_545 S
C1122  H1124   1.111   .     S
C1122  H1125   1.110   .     S
C1122  H1747   1.111   1_545 S
H1123  C1434   1.111   .     S
O1126  C1358   1.389   .     S
O1126  C1439   1.415   .     S
C1127  H1129   1.113   .     S
C1127  C1130   1.523   .     S
C1127  O1750   1.415   1_545 S
C1127  H1752   1.108   1_545 S
H1128  C1439   1.108   .     S
C1130  H1132   1.107   .     S
C1130  C1653   1.516   1_545 S
H1131  C1234   1.110   .     S
C1133  H1135   1.104   .     S
C1133  C1546   1.516   .     S
C1133  H1238   1.110   .     S
C1133  H1240   1.107   .     S
C1137  H1139   1.108   .     S
C1137  H1140   1.098   .     S
H1138  C1241   1.107   .     S
C1141  H1144   1.110   .     S
C1141  H1143   1.096   .     S
C1141  N1170   1.435   .     S
C1141  H1246   1.101   .     S
C1145  C1149   1.426   .     S
C1145  O1173   1.302   .     A
C1145  O1171   1.295   .     A
C1146  C1150   1.421   .     S
C1146  O1174   1.301   .     A
C1146  O1172   1.293   .     A
C1147  O1197   1.384   .     S
C1147  C1164   1.394   .     A
C1147  C229    1.406   1_556 S
C1148  C1163   1.401   .     A
C1148  O1208   1.385   .     S
C1149  C1462   1.351   .     S
C1149  O1531   1.393   .     S
C1150  C1773   1.351   1_545 S
C1150  O1854   1.389   1_545 S
C1151  O1177   1.301   .     A
C1151  C1156   1.436   .     S
C1151  O1175   1.303   .     A
C1152  C1155   1.429   .     S
C1152  O1176   1.299   .     A
C1152  O1178   1.301   .     A
C1153  C1163   1.378   .     A
C1153  H1167   1.083   .     S
C1153  C1155   1.376   .     A
C1154  C1164   1.383   .     A
C1154  C1156   1.388   .     A
C1154  H1168   1.085   .     S
C1155  C1157   1.407   .     A
C1156  C1158   1.410   .     A
C1157  C1181   1.514   .     S
C1157  C1159   1.423   .     A
C1158  C1185   1.520   .     S
C1158  C1160   1.414   .     A
C1159  C1161   1.427   .     A
C1159  C1165   1.432   .     A
C1160  C1166   1.409   .     A
C1160  C1162   1.415   .     A
C1161  C1163   1.410   .     A
C1162  C1164   1.398   .     A
C1162  C225    1.397   1_556 S
C1165  C1189   1.508   .     S
C1166  C1193   1.499   .     S
C1166  C212    1.398   1_556 S
N1169  Zn1180  2.050   .     S
N1169  N962    1.306   1_655 S
N1169  C1033   1.435   1_655 S
N1170  Zn1179  2.050   .     S
O1171  Zn1179  2.017   .     S
O1172  Zn1180  2.017   .     S
O1173  Zn1180  2.013   .     S
O1174  Zn1179  2.013   .     S
O1175  Zn1179  1.985   .     S
O1176  Zn1180  1.985   .     S
O1177  Zn1180  2.020   .     S
O1178  Zn1179  2.020   .     S
C1181  H1184   1.100   .     S
C1181  H1182   1.110   .     S
C1181  H1183   1.105   .     S
C1185  H1187   1.104   .     S
C1185  H1186   1.110   .     S
C1185  H1188   1.106   .     S
C1189  H1190   1.106   .     S
C1189  H1191   1.110   .     S
C1189  H1192   1.104   .     S
C1193  H1195   1.107   .     S
C1193  H1194   1.104   .     S
C1193  H1820   1.111   1_545 S
H1196  C1505   1.111   .     S
O1197  C990    1.419   1_655 S
C1198  H1200   1.121   .     S
C1198  H1199   1.111   .     S
C1198  C1201   1.521   .     S
C1201  H1203   1.097   .     S
C1201  C1204   1.522   .     S
C1201  H1202   1.106   .     S
C1204  H1207   1.097   .     S
C1204  H1206   1.109   .     S
C1204  H1205   1.107   .     S
O1208  C1209   1.416   .     S
C1209  H1211   1.110   .     S
C1209  C1212   1.535   .     S
C1209  H1210   1.106   .     S
C1212  H1213   1.105   .     S
C1212  H1214   1.112   .     S
C1215  H1218   1.111   .     S
C1215  H1217   1.106   .     S
C1215  H1216   1.111   .     S
C1215  C1004   1.521   1_655 S
O1219  C1773   1.393   1_545 S
O1219  C1844   1.418   1_545 S
C1220  H1222   1.117   .     S
C1220  H1221   1.111   .     S
C1220  O1531   1.418   .     S
C1220  C1535   1.529   .     S
C1223  H1225   1.109   .     S
C1223  C1226   1.526   .     S
C1223  H1224   1.112   .     S
C1223  C1844   1.529   1_545 S
C1226  H1228   1.111   .     S
C1226  H1229   1.110   .     S
C1226  H1851   1.111   1_545 S
H1227  C1538   1.111   .     S
O1230  C1462   1.389   .     S
O1230  C1543   1.415   .     S
C1231  H1233   1.113   .     S
C1231  C1234   1.523   .     S
C1231  O1854   1.415   1_545 S
C1231  H1856   1.108   1_545 S
H1232  C1543   1.108   .     S
C1234  H1236   1.107   .     S
C1234  C1757   1.516   1_545 S
H1235  C1026   1.110   1_655 S
C1237  H1239   1.104   .     S
C1237  C1338   1.516   1_655 S
C1237  H1030   1.110   1_655 S
C1237  H1032   1.107   1_655 S
C1241  H1243   1.108   .     S
C1241  H1244   1.098   .     S
H1242  C1033   1.107   1_655 S
C1245  H1248   1.110   .     S
C1245  H1247   1.096   .     S
C1245  N962    1.435   1_655 S
C1245  H1038   1.101   1_655 S
C1249  C1253   1.426   .     S
C1249  O1277   1.302   .     A
C1249  O1275   1.295   .     A
C1250  C1254   1.421   .     S
C1250  O1278   1.301   .     A
C1250  O1276   1.293   .     A
C1251  O1301   1.384   .     S
C1251  C1268   1.394   .     A
C1251  C333    1.406   1_556 S
C1252  C1267   1.401   .     A
C1252  O1312   1.385   .     S
C1253  C1566   1.351   .     S
C1253  O1635   1.393   .     S
C1255  O1281   1.301   .     A
C1255  C1260   1.436   .     S
C1255  O1279   1.303   .     A
C1256  C1259   1.429   .     S
C1256  O1280   1.299   .     A
C1256  O1282   1.301   .     A
C1257  C1267   1.378   .     A
C1257  H1271   1.083   .     S
C1257  C1259   1.376   .     A
C1258  C1268   1.383   .     A
C1258  C1260   1.388   .     A
C1258  H1272   1.085   .     S
C1259  C1261   1.407   .     A
C1260  C1262   1.410   .     A
C1261  C1285   1.514   .     S
C1261  C1263   1.423   .     A
C1262  C1289   1.520   .     S
C1262  C1264   1.414   .     A
C1263  C1265   1.427   .     A
C1263  C1269   1.432   .     A
C1264  C1270   1.409   .     A
C1264  C1266   1.415   .     A
C1265  C1267   1.410   .     A
C1266  C1268   1.398   .     A
C1266  C329    1.397   1_556 S
C1269  C1293   1.508   .     S
C1270  C1297   1.499   .     S
C1270  C316    1.398   1_556 S
N1273  Zn1284  2.050   .     S
N1273  N1378   1.306   .     S
N1273  C1449   1.435   .     S
N1274  Zn1283  2.050   .     S
N1274  N1481   1.306   1_455 S
N1274  C1557   1.435   1_455 S
O1275  Zn1283  2.017   .     S
O1276  Zn1284  2.017   .     S
O1277  Zn1284  2.013   .     S
O1278  Zn1283  2.013   .     S
O1279  Zn1283  1.985   .     S
O1280  Zn1284  1.985   .     S
O1281  Zn1284  2.020   .     S
O1282  Zn1283  2.020   .     S
C1285  H1288   1.100   .     S
C1285  H1286   1.110   .     S
C1285  H1287   1.105   .     S
C1289  H1291   1.104   .     S
C1289  H1290   1.110   .     S
C1289  H1292   1.106   .     S
C1293  H1294   1.106   .     S
C1293  H1295   1.110   .     S
C1293  H1296   1.104   .     S
C1297  H1299   1.107   .     S
C1297  H1298   1.104   .     S
H1300  C1609   1.111   .     S
O1301  C1406   1.419   .     S
C1302  H1304   1.121   .     S
C1302  H1303   1.111   .     S
C1302  C1305   1.521   .     S
C1302  O1509   1.419   1_455 S
C1305  H1307   1.097   .     S
C1305  C1308   1.522   .     S
C1305  H1306   1.106   .     S
C1308  H1311   1.097   .     S
C1308  H1310   1.109   .     S
C1308  H1309   1.107   .     S
O1312  C1313   1.416   .     S
C1313  H1315   1.110   .     S
C1313  C1316   1.535   .     S
C1313  H1314   1.106   .     S
C1316  H1317   1.105   .     S
C1316  H1318   1.112   .     S
C1316  C1527   1.521   1_455 S
C1319  H1322   1.111   .     S
C1319  H1321   1.106   .     S
C1319  H1320   1.111   .     S
C1319  C1420   1.521   .     S
C1324  H1326   1.117   .     S
C1324  H1325   1.111   .     S
C1324  O1635   1.418   .     S
C1324  C1639   1.529   .     S
C1327  H1329   1.109   .     S
C1327  C1330   1.526   .     S
C1327  H1328   1.112   .     S
C1330  H1332   1.111   .     S
C1330  H1333   1.110   .     S
H1331  C1642   1.111   .     S
O1334  C1566   1.389   .     S
O1334  C1647   1.415   .     S
C1335  H1337   1.113   .     S
C1335  C1338   1.523   .     S
H1336  C1647   1.108   .     S
C1338  H1340   1.107   .     S
C1338  H1547   1.110   1_455 S
C1338  C1237   1.516   1_455 S
H1339  C1442   1.110   .     S
C1341  H1343   1.104   .     S
C1341  C1754   1.516   .     S
C1341  H1446   1.110   .     S
C1341  H1448   1.107   .     S
H1342  C1549   1.110   1_455 S
H1344  C1549   1.107   1_455 S
C1345  H1347   1.108   .     S
C1345  H1348   1.098   .     S
C1345  N1481   1.435   1_455 S
C1345  H1554   1.107   1_455 S
H1346  C1449   1.107   .     S
C1349  H1352   1.110   .     S
C1349  H1351   1.096   .     S
C1349  N1378   1.435   .     S
C1349  H1454   1.101   .     S
H1350  C1557   1.101   1_455 S
C1353  C1357   1.426   .     S
C1353  O1381   1.302   .     A
C1353  O1379   1.295   .     A
C1354  C1358   1.421   .     S
C1354  O1382   1.301   .     A
C1354  O1380   1.293   .     A
C1355  O1405   1.384   .     S
C1355  C1372   1.394   .     A
C1355  C437    1.406   1_556 S
C1356  C1371   1.401   .     A
C1356  O1416   1.385   .     S
C1357  C1670   1.351   .     S
C1357  O1739   1.393   .     S
C1359  O1385   1.301   .     A
C1359  C1364   1.436   .     S
C1359  O1383   1.303   .     A
C1360  C1363   1.429   .     S
C1360  O1384   1.299   .     A
C1360  O1386   1.301   .     A
C1361  C1371   1.378   .     A
C1361  H1375   1.083   .     S
C1361  C1363   1.376   .     A
C1362  C1372   1.383   .     A
C1362  C1364   1.388   .     A
C1362  H1376   1.085   .     S
C1363  C1365   1.407   .     A
C1364  C1366   1.410   .     A
C1365  C1389   1.514   .     S
C1365  C1367   1.423   .     A
C1366  C1393   1.520   .     S
C1366  C1368   1.414   .     A
C1367  C1369   1.427   .     A
C1367  C1373   1.432   .     A
C1368  C1374   1.409   .     A
C1368  C1370   1.415   .     A
C1369  C1371   1.410   .     A
C1370  C1372   1.398   .     A
C1370  C433    1.397   1_556 S
C1373  C1397   1.508   .     S
C1374  C1401   1.499   .     S
C1374  C420    1.398   1_556 S
N1377  Zn1388  2.050   .     S
N1377  N1482   1.306   .     S
N1377  C1553   1.435   .     S
N1378  Zn1387  2.050   .     S
O1379  Zn1387  2.017   .     S
O1380  Zn1388  2.017   .     S
O1381  Zn1388  2.013   .     S
O1382  Zn1387  2.013   .     S
O1383  Zn1387  1.985   .     S
O1384  Zn1388  1.985   .     S
O1385  Zn1388  2.020   .     S
O1386  Zn1387  2.020   .     S
C1389  H1392   1.100   .     S
C1389  H1390   1.110   .     S
C1389  H1391   1.105   .     S
C1393  H1395   1.104   .     S
C1393  H1394   1.110   .     S
C1393  H1396   1.106   .     S
C1397  H1398   1.106   .     S
C1397  H1399   1.110   .     S
C1397  H1400   1.104   .     S
C1401  H1403   1.107   .     S
C1401  H1402   1.104   .     S
H1404  C1713   1.111   .     S
O1405  C1510   1.419   .     S
C1406  H1408   1.121   .     S
C1406  H1407   1.111   .     S
C1406  C1409   1.521   .     S
C1409  H1411   1.097   .     S
C1409  C1412   1.522   .     S
C1409  H1410   1.106   .     S
C1412  H1415   1.097   .     S
C1412  H1414   1.109   .     S
C1412  H1413   1.107   .     S
O1416  C1417   1.416   .     S
C1417  H1419   1.110   .     S
C1417  C1420   1.535   .     S
C1417  H1418   1.106   .     S
C1420  H1421   1.105   .     S
C1420  H1422   1.112   .     S
C1423  H1426   1.111   .     S
C1423  H1425   1.106   .     S
C1423  H1424   1.111   .     S
C1423  C1524   1.521   .     S
C1428  H1430   1.117   .     S
C1428  H1429   1.111   .     S
C1428  O1739   1.418   .     S
C1428  C1743   1.529   .     S
C1431  H1433   1.109   .     S
C1431  C1434   1.526   .     S
C1431  H1432   1.112   .     S
C1434  H1436   1.111   .     S
C1434  H1437   1.110   .     S
H1435  C1746   1.111   .     S
O1438  C1670   1.389   .     S
O1438  C1751   1.415   .     S
C1439  H1441   1.113   .     S
C1439  C1442   1.523   .     S
H1440  C1751   1.108   .     S
C1442  H1444   1.107   .     S
H1443  C1546   1.110   .     S
C1445  H1447   1.104   .     S
C1445  C1858   1.516   .     S
C1445  H1550   1.110   .     S
C1445  H1552   1.107   .     S
C1449  H1451   1.108   .     S
C1449  H1452   1.098   .     S
H1450  C1553   1.107   .     S
C1453  H1456   1.110   .     S
C1453  H1455   1.096   .     S
C1453  N1482   1.435   .     S
C1453  H1558   1.101   .     S
C1457  C1461   1.426   .     S
C1457  O1485   1.302   .     A
C1457  O1483   1.295   .     A
C1458  C1462   1.421   .     S
C1458  O1486   1.301   .     A
C1458  O1484   1.293   .     A
C1459  O1509   1.384   .     S
C1459  C1476   1.394   .     A
C1459  C541    1.406   1_556 S
C1460  C1475   1.401   .     A
C1460  O1520   1.385   .     S
C1461  C1774   1.351   .     S
C1461  O1843   1.393   .     S
C1463  O1489   1.301   .     A
C1463  C1468   1.436   .     S
C1463  O1487   1.303   .     A
C1464  C1467   1.429   .     S
C1464  O1488   1.299   .     A
C1464  O1490   1.301   .     A
C1465  C1475   1.378   .     A
C1465  H1479   1.083   .     S
C1465  C1467   1.376   .     A
C1466  C1476   1.383   .     A
C1466  C1468   1.388   .     A
C1466  H1480   1.085   .     S
C1467  C1469   1.407   .     A
C1468  C1470   1.410   .     A
C1469  C1493   1.514   .     S
C1469  C1471   1.423   .     A
C1470  C1497   1.520   .     S
C1470  C1472   1.414   .     A
C1471  C1473   1.427   .     A
C1471  C1477   1.432   .     A
C1472  C1478   1.409   .     A
C1472  C1474   1.415   .     A
C1473  C1475   1.410   .     A
C1474  C1476   1.398   .     A
C1474  C537    1.397   1_556 S
C1477  C1501   1.508   .     S
C1478  C1505   1.499   .     S
C1478  C524    1.398   1_556 S
N1481  Zn1492  2.050   .     S
N1481  N1274   1.306   1_655 S
N1481  C1345   1.435   1_655 S
N1482  Zn1491  2.050   .     S
O1483  Zn1491  2.017   .     S
O1484  Zn1492  2.017   .     S
O1485  Zn1492  2.013   .     S
O1486  Zn1491  2.013   .     S
O1487  Zn1491  1.985   .     S
O1488  Zn1492  1.985   .     S
O1489  Zn1492  2.020   .     S
O1490  Zn1491  2.020   .     S
C1493  H1496   1.100   .     S
C1493  H1494   1.110   .     S
C1493  H1495   1.105   .     S
C1497  H1499   1.104   .     S
C1497  H1498   1.110   .     S
C1497  H1500   1.106   .     S
C1501  H1502   1.106   .     S
C1501  H1503   1.110   .     S
C1501  H1504   1.104   .     S
C1505  H1507   1.107   .     S
C1505  H1506   1.104   .     S
H1508  C1817   1.111   .     S
O1509  C1302   1.419   1_655 S
C1510  H1512   1.121   .     S
C1510  H1511   1.111   .     S
C1510  C1513   1.521   .     S
C1513  H1515   1.097   .     S
C1513  C1516   1.522   .     S
C1513  H1514   1.106   .     S
C1516  H1519   1.097   .     S
C1516  H1518   1.109   .     S
C1516  H1517   1.107   .     S
O1520  C1521   1.416   .     S
C1521  H1523   1.110   .     S
C1521  C1524   1.535   .     S
C1521  H1522   1.106   .     S
C1524  H1525   1.105   .     S
C1524  H1526   1.112   .     S
C1527  H1530   1.111   .     S
C1527  H1529   1.106   .     S
C1527  H1528   1.111   .     S
C1527  C1316   1.521   1_655 S
C1532  H1534   1.117   .     S
C1532  H1533   1.111   .     S
C1532  O1843   1.418   .     S
C1532  C1847   1.529   .     S
C1535  H1537   1.109   .     S
C1535  C1538   1.526   .     S
C1535  H1536   1.112   .     S
C1538  H1540   1.111   .     S
C1538  H1541   1.110   .     S
H1539  C1850   1.111   .     S
O1542  C1774   1.389   .     S
O1542  C1855   1.415   .     S
C1543  H1545   1.113   .     S
C1543  C1546   1.523   .     S
H1544  C1855   1.108   .     S
C1546  H1548   1.107   .     S
H1547  C1338   1.110   1_655 S
C1549  H1551   1.104   .     S
C1549  C1650   1.516   1_655 S
C1549  H1342   1.110   1_655 S
C1549  H1344   1.107   1_655 S
C1553  H1555   1.108   .     S
C1553  H1556   1.098   .     S
H1554  C1345   1.107   1_655 S
C1557  H1560   1.110   .     S
C1557  H1559   1.096   .     S
C1557  N1274   1.435   1_655 S
C1557  H1350   1.101   1_655 S
C1561  C1565   1.426   .     S
C1561  O1589   1.302   .     A
C1561  O1587   1.295   .     A
C1562  C1566   1.421   .     S
C1562  O1590   1.301   .     A
C1562  O1588   1.293   .     A
C1563  O1613   1.384   .     S
C1563  C1580   1.394   .     A
C1563  C645    1.406   1_556 S
C1564  C1579   1.401   .     A
C1564  O1624   1.385   .     S
C1565  C942    1.351   1_565 S
C1565  O1011   1.393   1_565 S
C1567  O1593   1.301   .     A
C1567  C1572   1.436   .     S
C1567  O1591   1.303   .     A
C1568  C1571   1.429   .     S
C1568  O1592   1.299   .     A
C1568  O1594   1.301   .     A
C1569  C1579   1.378   .     A
C1569  H1583   1.083   .     S
C1569  C1571   1.376   .     A
C1570  C1580   1.383   .     A
C1570  C1572   1.388   .     A
C1570  H1584   1.085   .     S
C1571  C1573   1.407   .     A
C1572  C1574   1.410   .     A
C1573  C1597   1.514   .     S
C1573  C1575   1.423   .     A
C1574  C1601   1.520   .     S
C1574  C1576   1.414   .     A
C1575  C1577   1.427   .     A
C1575  C1581   1.432   .     A
C1576  C1582   1.409   .     A
C1576  C1578   1.415   .     A
C1577  C1579   1.410   .     A
C1578  C1580   1.398   .     A
C1578  C641    1.397   1_556 S
C1581  C1605   1.508   .     S
C1582  C1609   1.499   .     S
C1582  C628    1.398   1_556 S
N1585  Zn1596  2.050   .     S
N1585  N1690   1.306   .     S
N1585  C1761   1.435   .     S
N1586  Zn1595  2.050   .     S
N1586  N1793   1.306   1_455 S
N1586  C1869   1.435   1_455 S
O1587  Zn1595  2.017   .     S
O1588  Zn1596  2.017   .     S
O1589  Zn1596  2.013   .     S
O1590  Zn1595  2.013   .     S
O1591  Zn1595  1.985   .     S
O1592  Zn1596  1.985   .     S
O1593  Zn1596  2.020   .     S
O1594  Zn1595  2.020   .     S
C1597  H1600   1.100   .     S
C1597  H1598   1.110   .     S
C1597  H1599   1.105   .     S
C1601  H1603   1.104   .     S
C1601  H1602   1.110   .     S
C1601  H1604   1.106   .     S
C1605  H1606   1.106   .     S
C1605  H1607   1.110   .     S
C1605  H1608   1.104   .     S
C1609  H1611   1.107   .     S
C1609  H1610   1.104   .     S
H1612  C985    1.111   1_565 S
O1613  C1718   1.419   .     S
C1614  H1616   1.121   .     S
C1614  H1615   1.111   .     S
C1614  C1617   1.521   .     S
C1614  O1821   1.419   1_455 S
C1617  H1619   1.097   .     S
C1617  C1620   1.522   .     S
C1617  H1618   1.106   .     S
C1620  H1623   1.097   .     S
C1620  H1622   1.109   .     S
C1620  H1621   1.107   .     S
O1624  C1625   1.416   .     S
C1625  H1627   1.110   .     S
C1625  C1628   1.535   .     S
C1625  H1626   1.106   .     S
C1628  H1629   1.105   .     S
C1628  H1630   1.112   .     S
C1628  C1839   1.521   1_455 S
C1631  H1634   1.111   .     S
C1631  H1633   1.106   .     S
C1631  H1632   1.111   .     S
C1631  C1732   1.521   .     S
C1636  H1638   1.117   .     S
C1636  H1637   1.111   .     S
C1636  O1011   1.418   1_565 S
C1636  C1015   1.529   1_565 S
C1639  H1641   1.109   .     S
C1639  C1642   1.526   .     S
C1639  H1640   1.112   .     S
C1642  H1644   1.111   .     S
C1642  H1645   1.110   .     S
H1643  C1018   1.111   1_565 S
O1646  C942    1.389   1_565 S
O1646  C1023   1.415   1_565 S
C1647  H1649   1.113   .     S
C1647  C1650   1.523   .     S
H1648  C1023   1.108   1_565 S
C1650  H1652   1.107   .     S
C1650  H1859   1.110   1_455 S
C1650  C1549   1.516   1_455 S
H1651  C1754   1.110   .     S
C1653  H1655   1.104   .     S
C1653  C1130   1.516   1_565 S
C1653  H1758   1.110   .     S
C1653  H1760   1.107   .     S
H1654  C1861   1.110   1_455 S
H1656  C1861   1.107   1_455 S
C1657  H1659   1.108   .     S
C1657  H1660   1.098   .     S
C1657  N1793   1.435   1_455 S
C1657  H1866   1.107   1_455 S
H1658  C1761   1.107   .     S
C1661  H1664   1.110   .     S
C1661  H1663   1.096   .     S
C1661  N1690   1.435   .     S
C1661  H1766   1.101   .     S
H1662  C1869   1.101   1_455 S
C1665  C1669   1.426   .     S
C1665  O1693   1.302   .     A
C1665  O1691   1.295   .     A
C1666  C1670   1.421   .     S
C1666  O1694   1.301   .     A
C1666  O1692   1.293   .     A
C1667  O1717   1.384   .     S
C1667  C1684   1.394   .     A
C1667  C749    1.406   1_556 S
C1668  C1683   1.401   .     A
C1668  O1728   1.385   .     S
C1669  C1046   1.351   1_565 S
C1669  O1115   1.393   1_565 S
C1671  O1697   1.301   .     A
C1671  C1676   1.436   .     S
C1671  O1695   1.303   .     A
C1672  C1675   1.429   .     S
C1672  O1696   1.299   .     A
C1672  O1698   1.301   .     A
C1673  C1683   1.378   .     A
C1673  H1687   1.083   .     S
C1673  C1675   1.376   .     A
C1674  C1684   1.383   .     A
C1674  C1676   1.388   .     A
C1674  H1688   1.085   .     S
C1675  C1677   1.407   .     A
C1676  C1678   1.410   .     A
C1677  C1701   1.514   .     S
C1677  C1679   1.423   .     A
C1678  C1705   1.520   .     S
C1678  C1680   1.414   .     A
C1679  C1681   1.427   .     A
C1679  C1685   1.432   .     A
C1680  C1686   1.409   .     A
C1680  C1682   1.415   .     A
C1681  C1683   1.410   .     A
C1682  C1684   1.398   .     A
C1682  C745    1.397   1_556 S
C1685  C1709   1.508   .     S
C1686  C1713   1.499   .     S
C1686  C732    1.398   1_556 S
N1689  Zn1700  2.050   .     S
N1689  N1794   1.306   .     S
N1689  C1865   1.435   .     S
N1690  Zn1699  2.050   .     S
O1691  Zn1699  2.017   .     S
O1692  Zn1700  2.017   .     S
O1693  Zn1700  2.013   .     S
O1694  Zn1699  2.013   .     S
O1695  Zn1699  1.985   .     S
O1696  Zn1700  1.985   .     S
O1697  Zn1700  2.020   .     S
O1698  Zn1699  2.020   .     S
C1701  H1704   1.100   .     S
C1701  H1702   1.110   .     S
C1701  H1703   1.105   .     S
C1705  H1707   1.104   .     S
C1705  H1706   1.110   .     S
C1705  H1708   1.106   .     S
C1709  H1710   1.106   .     S
C1709  H1711   1.110   .     S
C1709  H1712   1.104   .     S
C1713  H1715   1.107   .     S
C1713  H1714   1.104   .     S
H1716  C1089   1.111   1_565 S
O1717  C1822   1.419   .     S
C1718  H1720   1.121   .     S
C1718  H1719   1.111   .     S
C1718  C1721   1.521   .     S
C1721  H1723   1.097   .     S
C1721  C1724   1.522   .     S
C1721  H1722   1.106   .     S
C1724  H1727   1.097   .     S
C1724  H1726   1.109   .     S
C1724  H1725   1.107   .     S
O1728  C1729   1.416   .     S
C1729  H1731   1.110   .     S
C1729  C1732   1.535   .     S
C1729  H1730   1.106   .     S
C1732  H1733   1.105   .     S
C1732  H1734   1.112   .     S
C1735  H1738   1.111   .     S
C1735  H1737   1.106   .     S
C1735  H1736   1.111   .     S
C1735  C1836   1.521   .     S
C1740  H1742   1.117   .     S
C1740  H1741   1.111   .     S
C1740  O1115   1.418   1_565 S
C1740  C1119   1.529   1_565 S
C1743  H1745   1.109   .     S
C1743  C1746   1.526   .     S
C1743  H1744   1.112   .     S
C1746  H1748   1.111   .     S
C1746  H1749   1.110   .     S
H1747  C1122   1.111   1_565 S
O1750  C1046   1.389   1_565 S
O1750  C1127   1.415   1_565 S
C1751  H1753   1.113   .     S
C1751  C1754   1.523   .     S
H1752  C1127   1.108   1_565 S
C1754  H1756   1.107   .     S
H1755  C1858   1.110   .     S
C1757  H1759   1.104   .     S
C1757  C1234   1.516   1_565 S
C1757  H1862   1.110   .     S
C1757  H1864   1.107   .     S
C1761  H1763   1.108   .     S
C1761  H1764   1.098   .     S
H1762  C1865   1.107   .     S
C1765  H1768   1.110   .     S
C1765  H1767   1.096   .     S
C1765  N1794   1.435   .     S
C1765  H1870   1.101   .     S
C1769  C1773   1.426   .     S
C1769  O1797   1.302   .     A
C1769  O1795   1.295   .     A
C1770  C1774   1.421   .     S
C1770  O1798   1.301   .     A
C1770  O1796   1.293   .     A
C1771  O1821   1.384   .     S
C1771  C1788   1.394   .     A
C1771  C853    1.406   1_556 S
C1772  C1787   1.401   .     A
C1772  O1832   1.385   .     S
C1773  C1150   1.351   1_565 S
C1773  O1219   1.393   1_565 S
C1775  O1801   1.301   .     A
C1775  C1780   1.436   .     S
C1775  O1799   1.303   .     A
C1776  C1779   1.429   .     S
C1776  O1800   1.299   .     A
C1776  O1802   1.301   .     A
C1777  C1787   1.378   .     A
C1777  H1791   1.083   .     S
C1777  C1779   1.376   .     A
C1778  C1788   1.383   .     A
C1778  C1780   1.388   .     A
C1778  H1792   1.085   .     S
C1779  C1781   1.407   .     A
C1780  C1782   1.410   .     A
C1781  C1805   1.514   .     S
C1781  C1783   1.423   .     A
C1782  C1809   1.520   .     S
C1782  C1784   1.414   .     A
C1783  C1785   1.427   .     A
C1783  C1789   1.432   .     A
C1784  C1790   1.409   .     A
C1784  C1786   1.415   .     A
C1785  C1787   1.410   .     A
C1786  C1788   1.398   .     A
C1786  C849    1.397   1_556 S
C1789  C1813   1.508   .     S
C1790  C1817   1.499   .     S
C1790  C836    1.398   1_556 S
N1793  Zn1804  2.050   .     S
N1793  N1586   1.306   1_655 S
N1793  C1657   1.435   1_655 S
N1794  Zn1803  2.050   .     S
O1795  Zn1803  2.017   .     S
O1796  Zn1804  2.017   .     S
O1797  Zn1804  2.013   .     S
O1798  Zn1803  2.013   .     S
O1799  Zn1803  1.985   .     S
O1800  Zn1804  1.985   .     S
O1801  Zn1804  2.020   .     S
O1802  Zn1803  2.020   .     S
C1805  H1808   1.100   .     S
C1805  H1806   1.110   .     S
C1805  H1807   1.105   .     S
C1809  H1811   1.104   .     S
C1809  H1810   1.110   .     S
C1809  H1812   1.106   .     S
C1813  H1814   1.106   .     S
C1813  H1815   1.110   .     S
C1813  H1816   1.104   .     S
C1817  H1819   1.107   .     S
C1817  H1818   1.104   .     S
H1820  C1193   1.111   1_565 S
O1821  C1614   1.419   1_655 S
C1822  H1824   1.121   .     S
C1822  H1823   1.111   .     S
C1822  C1825   1.521   .     S
C1825  H1827   1.097   .     S
C1825  C1828   1.522   .     S
C1825  H1826   1.106   .     S
C1828  H1831   1.097   .     S
C1828  H1830   1.109   .     S
C1828  H1829   1.107   .     S
O1832  C1833   1.416   .     S
C1833  H1835   1.110   .     S
C1833  C1836   1.535   .     S
C1833  H1834   1.106   .     S
C1836  H1837   1.105   .     S
C1836  H1838   1.112   .     S
C1839  H1842   1.111   .     S
C1839  H1841   1.106   .     S
C1839  H1840   1.111   .     S
C1839  C1628   1.521   1_655 S
C1844  H1846   1.117   .     S
C1844  H1845   1.111   .     S
C1844  O1219   1.418   1_565 S
C1844  C1223   1.529   1_565 S
C1847  H1849   1.109   .     S
C1847  C1850   1.526   .     S
C1847  H1848   1.112   .     S
C1850  H1852   1.111   .     S
C1850  H1853   1.110   .     S
H1851  C1226   1.111   1_565 S
O1854  C1150   1.389   1_565 S
O1854  C1231   1.415   1_565 S
C1855  H1857   1.113   .     S
C1855  C1858   1.523   .     S
H1856  C1231   1.108   1_565 S
C1858  H1860   1.107   .     S
H1859  C1650   1.110   1_655 S
C1861  H1863   1.104   .     S
C1861  C1026   1.516   1_665 S
C1861  H1654   1.110   1_655 S
C1861  H1656   1.107   1_655 S
C1865  H1867   1.108   .     S
C1865  H1868   1.098   .     S
H1866  C1657   1.107   1_655 S
C1869  H1872   1.110   .     S
C1869  H1871   1.096   .     S
C1869  N1586   1.435   1_655 S
C1869  H1662   1.101   1_655 S
