data_str_m2_o1_o10_pcu_sym.129
_audit_creation_date              2020-01-03
_audit_creation_method            'Materials Studio'
_symmetry_space_group_name_H-M    'P1'
_symmetry_Int_Tables_number       1
_symmetry_cell_setting            triclinic
loop_
_symmetry_equiv_pos_as_xyz
  x,y,z
_cell_length_a                    26.4301
_cell_length_b                    32.3831
_cell_length_c                    28.5573
_cell_angle_alpha                 90.0149
_cell_angle_beta                  97.8588
_cell_angle_gamma                 90.1826
loop_
_atom_site_label
_atom_site_type_symbol
_atom_site_fract_x
_atom_site_fract_y
_atom_site_fract_z
_atom_site_U_iso_or_equiv
_atom_site_adp_type
_atom_site_occupancy
C1     C     0.16664   0.08747   0.16665   0.00000  Uiso   1.00
C2     C     0.16669   0.24586   0.16669   0.00000  Uiso   1.00
C3     C     0.06812   0.16643   0.15473   0.00000  Uiso   1.00
C4     C     0.26521   0.16690   0.17860   0.00000  Uiso   1.00
C5     C     0.01324   0.16289   0.14835   0.00000  Uiso   1.00
C6     C     0.32009   0.17044   0.18498   0.00000  Uiso   1.00
C7     C     0.20217   0.02171   0.14319   0.00000  Uiso   1.00
C8     C     0.13116   0.31162   0.19014   0.00000  Uiso   1.00
C9     C     0.20219   0.31179   0.14321   0.00000  Uiso   1.00
C10    C     0.13114   0.02154   0.19012   0.00000  Uiso   1.00
C11    C     0.16669   0.29049   0.16669   0.00000  Uiso   1.00
C12    C     0.16665   0.04284   0.16664   0.00000  Uiso   1.00
C13    C     0.13264   0.14294   0.02048   0.00000  Uiso   1.00
C14    C     0.20070   0.19040   0.31285   0.00000  Uiso   1.00
C15    C     0.13265   0.14294   0.30421   0.00000  Uiso   1.00
C16    C     0.20068   0.19039   0.02913   0.00000  Uiso   1.00
Cu17   Cu    0.16667   0.16667   0.21355   0.00000  Uiso   1.00
Cu18   Cu    0.16667   0.16666   0.11978   0.00000  Uiso   1.00
H19    H     0.10543   0.12388   0.03571   0.00000  Uiso   1.00
H20    H     0.22790   0.20946   0.29762   0.00000  Uiso   1.00
H21    H     0.10546   0.12388   0.28206   0.00000  Uiso   1.00
H22    H     0.22787   0.20945   0.05127   0.00000  Uiso   1.00
N23    N     0.16668   0.16668   0.28403   0.00000  Uiso   1.00
N24    N     0.16665   0.16666   0.04931   0.00000  Uiso   1.00
O25    O     0.16666   0.10655   0.20625   0.00000  Uiso   1.00
O26    O     0.16667   0.22678   0.12709   0.00000  Uiso   1.00
O27    O     0.16666   0.10654   0.12706   0.00000  Uiso   1.00
O28    O     0.16667   0.22679   0.20628   0.00000  Uiso   1.00
O29    O     0.09161   0.16667   0.19712   0.00000  Uiso   1.00
O30    O     0.24172   0.16666   0.13621   0.00000  Uiso   1.00
O31    O     0.09161   0.16666   0.11793   0.00000  Uiso   1.00
O32    O     0.24172   0.16667   0.21540   0.00000  Uiso   1.00
N33    N     0.32187   0.14894   0.10298   0.00000  Uiso   1.00
H34    H     0.32975   0.17013   0.07728   0.00000  Uiso   1.00
H35    H     0.00416   0.12045   0.09548   0.00000  Uiso   1.00
N36    N     0.01146   0.18439   0.23036   0.00000  Uiso   1.00
H37    H     0.00359   0.16320   0.25605   0.00000  Uiso   1.00
H38    H     0.32917   0.21288   0.23786   0.00000  Uiso   1.00
N39    N     0.23884   0.04455   0.12070   0.00000  Uiso   1.00
H40    H     0.27558   0.03654   0.13634   0.00000  Uiso   1.00
H41    H     0.23465   0.03658   0.08492   0.00000  Uiso   1.00
N42    N     0.09449   0.28878   0.21263   0.00000  Uiso   1.00
H43    H     0.05775   0.29679   0.19700   0.00000  Uiso   1.00
H44    H     0.09868   0.29676   0.24842   0.00000  Uiso   1.00
N45    N     0.23887   0.28914   0.12074   0.00000  Uiso   1.00
H46    H     0.27560   0.29740   0.13633   0.00000  Uiso   1.00
H47    H     0.23462   0.29701   0.08493   0.00000  Uiso   1.00
N48    N     0.09446   0.04419   0.21260   0.00000  Uiso   1.00
H49    H     0.05773   0.03593   0.19701   0.00000  Uiso   1.00
H50    H     0.09871   0.03632   0.24840   0.00000  Uiso   1.00
C51    C     0.49998   0.08747   0.16665   0.00000  Uiso   1.00
C52    C     0.50002   0.24586   0.16669   0.00000  Uiso   1.00
C53    C     0.40146   0.16643   0.15473   0.00000  Uiso   1.00
C54    C     0.59854   0.16690   0.17860   0.00000  Uiso   1.00
C55    C     0.34657   0.16289   0.14835   0.00000  Uiso   1.00
C56    C     0.65343   0.17044   0.18498   0.00000  Uiso   1.00
C57    C     0.53551   0.02171   0.14319   0.00000  Uiso   1.00
C58    C     0.46449   0.31162   0.19014   0.00000  Uiso   1.00
C59    C     0.53553   0.31179   0.14321   0.00000  Uiso   1.00
C60    C     0.46447   0.02154   0.19012   0.00000  Uiso   1.00
C61    C     0.50002   0.29049   0.16669   0.00000  Uiso   1.00
C62    C     0.49998   0.04284   0.16664   0.00000  Uiso   1.00
C63    C     0.46597   0.14294   0.02048   0.00000  Uiso   1.00
C64    C     0.53403   0.19040   0.31285   0.00000  Uiso   1.00
C65    C     0.46599   0.14294   0.30421   0.00000  Uiso   1.00
C66    C     0.53401   0.19039   0.02913   0.00000  Uiso   1.00
Cu67   Cu    0.50000   0.16667   0.21355   0.00000  Uiso   1.00
Cu68   Cu    0.50000   0.16666   0.11978   0.00000  Uiso   1.00
H69    H     0.43876   0.12388   0.03571   0.00000  Uiso   1.00
H70    H     0.56124   0.20946   0.29762   0.00000  Uiso   1.00
H71    H     0.43879   0.12388   0.28206   0.00000  Uiso   1.00
H72    H     0.56121   0.20945   0.05127   0.00000  Uiso   1.00
N73    N     0.50001   0.16668   0.28403   0.00000  Uiso   1.00
N74    N     0.49999   0.16666   0.04931   0.00000  Uiso   1.00
O75    O     0.50000   0.10655   0.20625   0.00000  Uiso   1.00
O76    O     0.50000   0.22678   0.12709   0.00000  Uiso   1.00
O77    O     0.50000   0.10654   0.12706   0.00000  Uiso   1.00
O78    O     0.50000   0.22679   0.20628   0.00000  Uiso   1.00
O79    O     0.42495   0.16667   0.19712   0.00000  Uiso   1.00
O80    O     0.57505   0.16666   0.13621   0.00000  Uiso   1.00
O81    O     0.42494   0.16666   0.11793   0.00000  Uiso   1.00
O82    O     0.57506   0.16667   0.21540   0.00000  Uiso   1.00
N83    N     0.65521   0.14894   0.10298   0.00000  Uiso   1.00
H84    H     0.66308   0.17013   0.07728   0.00000  Uiso   1.00
H85    H     0.33750   0.12045   0.09548   0.00000  Uiso   1.00
N86    N     0.34479   0.18439   0.23036   0.00000  Uiso   1.00
H87    H     0.33692   0.16320   0.25605   0.00000  Uiso   1.00
H88    H     0.66250   0.21288   0.23786   0.00000  Uiso   1.00
N89    N     0.57218   0.04455   0.12070   0.00000  Uiso   1.00
H90    H     0.60891   0.03654   0.13634   0.00000  Uiso   1.00
H91    H     0.56799   0.03658   0.08492   0.00000  Uiso   1.00
N92    N     0.42782   0.28878   0.21263   0.00000  Uiso   1.00
H93    H     0.39109   0.29679   0.19700   0.00000  Uiso   1.00
H94    H     0.43201   0.29676   0.24842   0.00000  Uiso   1.00
N95    N     0.57220   0.28914   0.12074   0.00000  Uiso   1.00
H96    H     0.60893   0.29740   0.13633   0.00000  Uiso   1.00
H97    H     0.56796   0.29701   0.08493   0.00000  Uiso   1.00
N98    N     0.42780   0.04419   0.21260   0.00000  Uiso   1.00
H99    H     0.39106   0.03593   0.19701   0.00000  Uiso   1.00
H100   H     0.43204   0.03632   0.24840   0.00000  Uiso   1.00
C101   C     0.83331   0.08747   0.16665   0.00000  Uiso   1.00
C102   C     0.83336   0.24586   0.16669   0.00000  Uiso   1.00
C103   C     0.73479   0.16643   0.15473   0.00000  Uiso   1.00
C104   C     0.93188   0.16690   0.17860   0.00000  Uiso   1.00
C105   C     0.67991   0.16289   0.14835   0.00000  Uiso   1.00
C106   C     0.98676   0.17044   0.18498   0.00000  Uiso   1.00
C107   C     0.86884   0.02171   0.14319   0.00000  Uiso   1.00
C108   C     0.79783   0.31162   0.19014   0.00000  Uiso   1.00
C109   C     0.86886   0.31179   0.14321   0.00000  Uiso   1.00
C110   C     0.79781   0.02154   0.19012   0.00000  Uiso   1.00
C111   C     0.83335   0.29049   0.16669   0.00000  Uiso   1.00
C112   C     0.83331   0.04284   0.16664   0.00000  Uiso   1.00
C113   C     0.79930   0.14294   0.02048   0.00000  Uiso   1.00
C114   C     0.86736   0.19040   0.31285   0.00000  Uiso   1.00
C115   C     0.79932   0.14294   0.30421   0.00000  Uiso   1.00
C116   C     0.86735   0.19039   0.02913   0.00000  Uiso   1.00
Cu117  Cu    0.83333   0.16667   0.21355   0.00000  Uiso   1.00
Cu118  Cu    0.83333   0.16666   0.11978   0.00000  Uiso   1.00
H119   H     0.77210   0.12388   0.03571   0.00000  Uiso   1.00
H120   H     0.89457   0.20946   0.29762   0.00000  Uiso   1.00
H121   H     0.77213   0.12388   0.28206   0.00000  Uiso   1.00
H122   H     0.89454   0.20945   0.05127   0.00000  Uiso   1.00
N123   N     0.83335   0.16668   0.28403   0.00000  Uiso   1.00
N124   N     0.83332   0.16666   0.04931   0.00000  Uiso   1.00
O125   O     0.83333   0.10655   0.20625   0.00000  Uiso   1.00
O126   O     0.83334   0.22678   0.12709   0.00000  Uiso   1.00
O127   O     0.83333   0.10654   0.12706   0.00000  Uiso   1.00
O128   O     0.83334   0.22679   0.20628   0.00000  Uiso   1.00
O129   O     0.75828   0.16667   0.19712   0.00000  Uiso   1.00
O130   O     0.90839   0.16666   0.13621   0.00000  Uiso   1.00
O131   O     0.75828   0.16666   0.11793   0.00000  Uiso   1.00
O132   O     0.90839   0.16667   0.21540   0.00000  Uiso   1.00
N133   N     0.98854   0.14894   0.10298   0.00000  Uiso   1.00
H134   H     0.99641   0.17013   0.07728   0.00000  Uiso   1.00
H135   H     0.67083   0.12045   0.09548   0.00000  Uiso   1.00
N136   N     0.67813   0.18439   0.23036   0.00000  Uiso   1.00
H137   H     0.67025   0.16320   0.25605   0.00000  Uiso   1.00
H138   H     0.99584   0.21288   0.23786   0.00000  Uiso   1.00
N139   N     0.90551   0.04455   0.12070   0.00000  Uiso   1.00
H140   H     0.94225   0.03654   0.13634   0.00000  Uiso   1.00
H141   H     0.90132   0.03658   0.08492   0.00000  Uiso   1.00
N142   N     0.76115   0.28878   0.21263   0.00000  Uiso   1.00
H143   H     0.72442   0.29679   0.19700   0.00000  Uiso   1.00
H144   H     0.76535   0.29676   0.24842   0.00000  Uiso   1.00
N145   N     0.90554   0.28914   0.12074   0.00000  Uiso   1.00
H146   H     0.94227   0.29740   0.13633   0.00000  Uiso   1.00
H147   H     0.90129   0.29701   0.08493   0.00000  Uiso   1.00
N148   N     0.76113   0.04419   0.21260   0.00000  Uiso   1.00
H149   H     0.72440   0.03593   0.19701   0.00000  Uiso   1.00
H150   H     0.76538   0.03632   0.24840   0.00000  Uiso   1.00
C151   C     0.16664   0.42080   0.16665   0.00000  Uiso   1.00
C152   C     0.16669   0.57920   0.16669   0.00000  Uiso   1.00
C153   C     0.06812   0.49976   0.15473   0.00000  Uiso   1.00
C154   C     0.26521   0.50024   0.17860   0.00000  Uiso   1.00
C155   C     0.01324   0.49623   0.14835   0.00000  Uiso   1.00
C156   C     0.32009   0.50377   0.18498   0.00000  Uiso   1.00
C157   C     0.20217   0.35505   0.14319   0.00000  Uiso   1.00
C158   C     0.13116   0.64495   0.19014   0.00000  Uiso   1.00
C159   C     0.20219   0.64513   0.14321   0.00000  Uiso   1.00
C160   C     0.13114   0.35487   0.19012   0.00000  Uiso   1.00
C161   C     0.16669   0.62383   0.16669   0.00000  Uiso   1.00
C162   C     0.16665   0.37617   0.16664   0.00000  Uiso   1.00
C163   C     0.13264   0.47627   0.02048   0.00000  Uiso   1.00
C164   C     0.20070   0.52373   0.31285   0.00000  Uiso   1.00
C165   C     0.13265   0.47628   0.30421   0.00000  Uiso   1.00
C166   C     0.20068   0.52372   0.02913   0.00000  Uiso   1.00
Cu167  Cu    0.16667   0.50001   0.21355   0.00000  Uiso   1.00
Cu168  Cu    0.16667   0.49999   0.11978   0.00000  Uiso   1.00
H169   H     0.10543   0.45721   0.03571   0.00000  Uiso   1.00
H170   H     0.22790   0.54279   0.29762   0.00000  Uiso   1.00
H171   H     0.10546   0.45721   0.28206   0.00000  Uiso   1.00
H172   H     0.22787   0.54279   0.05127   0.00000  Uiso   1.00
N173   N     0.16668   0.50001   0.28403   0.00000  Uiso   1.00
N174   N     0.16665   0.49999   0.04931   0.00000  Uiso   1.00
O175   O     0.16666   0.43989   0.20625   0.00000  Uiso   1.00
O176   O     0.16667   0.56011   0.12709   0.00000  Uiso   1.00
O177   O     0.16666   0.43988   0.12706   0.00000  Uiso   1.00
O178   O     0.16667   0.56012   0.20628   0.00000  Uiso   1.00
O179   O     0.09161   0.50000   0.19712   0.00000  Uiso   1.00
O180   O     0.24172   0.50000   0.13621   0.00000  Uiso   1.00
O181   O     0.09161   0.49999   0.11793   0.00000  Uiso   1.00
O182   O     0.24172   0.50001   0.21540   0.00000  Uiso   1.00
N183   N     0.32187   0.48228   0.10298   0.00000  Uiso   1.00
H184   H     0.32975   0.50347   0.07728   0.00000  Uiso   1.00
H185   H     0.00416   0.45379   0.09548   0.00000  Uiso   1.00
N186   N     0.01146   0.51772   0.23036   0.00000  Uiso   1.00
H187   H     0.00359   0.49653   0.25605   0.00000  Uiso   1.00
H188   H     0.32917   0.54621   0.23786   0.00000  Uiso   1.00
N189   N     0.23884   0.37788   0.12070   0.00000  Uiso   1.00
H190   H     0.27558   0.36988   0.13634   0.00000  Uiso   1.00
H191   H     0.23465   0.36991   0.08492   0.00000  Uiso   1.00
N192   N     0.09449   0.62212   0.21263   0.00000  Uiso   1.00
H193   H     0.05775   0.63012   0.19700   0.00000  Uiso   1.00
H194   H     0.09868   0.63009   0.24842   0.00000  Uiso   1.00
N195   N     0.23887   0.62247   0.12074   0.00000  Uiso   1.00
H196   H     0.27560   0.63073   0.13633   0.00000  Uiso   1.00
H197   H     0.23462   0.63034   0.08493   0.00000  Uiso   1.00
N198   N     0.09446   0.37753   0.21260   0.00000  Uiso   1.00
H199   H     0.05773   0.36927   0.19701   0.00000  Uiso   1.00
H200   H     0.09871   0.36966   0.24840   0.00000  Uiso   1.00
C201   C     0.49998   0.42080   0.16665   0.00000  Uiso   1.00
C202   C     0.50002   0.57920   0.16669   0.00000  Uiso   1.00
C203   C     0.40146   0.49976   0.15473   0.00000  Uiso   1.00
C204   C     0.59854   0.50024   0.17860   0.00000  Uiso   1.00
C205   C     0.34657   0.49623   0.14835   0.00000  Uiso   1.00
C206   C     0.65343   0.50377   0.18498   0.00000  Uiso   1.00
C207   C     0.53551   0.35505   0.14319   0.00000  Uiso   1.00
C208   C     0.46449   0.64495   0.19014   0.00000  Uiso   1.00
C209   C     0.53553   0.64513   0.14321   0.00000  Uiso   1.00
C210   C     0.46447   0.35487   0.19012   0.00000  Uiso   1.00
C211   C     0.50002   0.62383   0.16669   0.00000  Uiso   1.00
C212   C     0.49998   0.37617   0.16664   0.00000  Uiso   1.00
C213   C     0.46597   0.47627   0.02048   0.00000  Uiso   1.00
C214   C     0.53403   0.52373   0.31285   0.00000  Uiso   1.00
C215   C     0.46599   0.47628   0.30421   0.00000  Uiso   1.00
C216   C     0.53401   0.52372   0.02913   0.00000  Uiso   1.00
Cu217  Cu    0.50000   0.50001   0.21355   0.00000  Uiso   1.00
Cu218  Cu    0.50000   0.49999   0.11978   0.00000  Uiso   1.00
H219   H     0.43876   0.45721   0.03571   0.00000  Uiso   1.00
H220   H     0.56124   0.54279   0.29762   0.00000  Uiso   1.00
H221   H     0.43879   0.45721   0.28206   0.00000  Uiso   1.00
H222   H     0.56121   0.54279   0.05127   0.00000  Uiso   1.00
N223   N     0.50001   0.50001   0.28403   0.00000  Uiso   1.00
N224   N     0.49999   0.49999   0.04931   0.00000  Uiso   1.00
O225   O     0.50000   0.43989   0.20625   0.00000  Uiso   1.00
O226   O     0.50000   0.56011   0.12709   0.00000  Uiso   1.00
O227   O     0.50000   0.43988   0.12706   0.00000  Uiso   1.00
O228   O     0.50000   0.56012   0.20628   0.00000  Uiso   1.00
O229   O     0.42495   0.50000   0.19712   0.00000  Uiso   1.00
O230   O     0.57505   0.50000   0.13621   0.00000  Uiso   1.00
O231   O     0.42494   0.49999   0.11793   0.00000  Uiso   1.00
O232   O     0.57506   0.50001   0.21540   0.00000  Uiso   1.00
N233   N     0.65521   0.48228   0.10298   0.00000  Uiso   1.00
H234   H     0.66308   0.50347   0.07728   0.00000  Uiso   1.00
H235   H     0.33750   0.45379   0.09548   0.00000  Uiso   1.00
N236   N     0.34479   0.51772   0.23036   0.00000  Uiso   1.00
H237   H     0.33692   0.49653   0.25605   0.00000  Uiso   1.00
H238   H     0.66250   0.54621   0.23786   0.00000  Uiso   1.00
N239   N     0.57218   0.37788   0.12070   0.00000  Uiso   1.00
H240   H     0.60891   0.36988   0.13634   0.00000  Uiso   1.00
H241   H     0.56799   0.36991   0.08492   0.00000  Uiso   1.00
N242   N     0.42782   0.62212   0.21263   0.00000  Uiso   1.00
H243   H     0.39109   0.63012   0.19700   0.00000  Uiso   1.00
H244   H     0.43201   0.63009   0.24842   0.00000  Uiso   1.00
N245   N     0.57220   0.62247   0.12074   0.00000  Uiso   1.00
H246   H     0.60893   0.63073   0.13633   0.00000  Uiso   1.00
H247   H     0.56796   0.63034   0.08493   0.00000  Uiso   1.00
N248   N     0.42780   0.37753   0.21260   0.00000  Uiso   1.00
H249   H     0.39106   0.36927   0.19701   0.00000  Uiso   1.00
H250   H     0.43204   0.36966   0.24840   0.00000  Uiso   1.00
C251   C     0.83331   0.42080   0.16665   0.00000  Uiso   1.00
C252   C     0.83336   0.57920   0.16669   0.00000  Uiso   1.00
C253   C     0.73479   0.49976   0.15473   0.00000  Uiso   1.00
C254   C     0.93188   0.50024   0.17860   0.00000  Uiso   1.00
C255   C     0.67991   0.49623   0.14835   0.00000  Uiso   1.00
C256   C     0.98676   0.50377   0.18498   0.00000  Uiso   1.00
C257   C     0.86884   0.35505   0.14319   0.00000  Uiso   1.00
C258   C     0.79783   0.64495   0.19014   0.00000  Uiso   1.00
C259   C     0.86886   0.64513   0.14321   0.00000  Uiso   1.00
C260   C     0.79781   0.35487   0.19012   0.00000  Uiso   1.00
C261   C     0.83335   0.62383   0.16669   0.00000  Uiso   1.00
C262   C     0.83331   0.37617   0.16664   0.00000  Uiso   1.00
C263   C     0.79930   0.47627   0.02048   0.00000  Uiso   1.00
C264   C     0.86736   0.52373   0.31285   0.00000  Uiso   1.00
C265   C     0.79932   0.47628   0.30421   0.00000  Uiso   1.00
C266   C     0.86735   0.52372   0.02913   0.00000  Uiso   1.00
Cu267  Cu    0.83333   0.50001   0.21355   0.00000  Uiso   1.00
Cu268  Cu    0.83333   0.49999   0.11978   0.00000  Uiso   1.00
H269   H     0.77210   0.45721   0.03571   0.00000  Uiso   1.00
H270   H     0.89457   0.54279   0.29762   0.00000  Uiso   1.00
H271   H     0.77213   0.45721   0.28206   0.00000  Uiso   1.00
H272   H     0.89454   0.54279   0.05127   0.00000  Uiso   1.00
N273   N     0.83335   0.50001   0.28403   0.00000  Uiso   1.00
N274   N     0.83332   0.49999   0.04931   0.00000  Uiso   1.00
O275   O     0.83333   0.43989   0.20625   0.00000  Uiso   1.00
O276   O     0.83334   0.56011   0.12709   0.00000  Uiso   1.00
O277   O     0.83333   0.43988   0.12706   0.00000  Uiso   1.00
O278   O     0.83334   0.56012   0.20628   0.00000  Uiso   1.00
O279   O     0.75828   0.50000   0.19712   0.00000  Uiso   1.00
O280   O     0.90839   0.50000   0.13621   0.00000  Uiso   1.00
O281   O     0.75828   0.49999   0.11793   0.00000  Uiso   1.00
O282   O     0.90839   0.50001   0.21540   0.00000  Uiso   1.00
N283   N     0.98854   0.48228   0.10298   0.00000  Uiso   1.00
H284   H     0.99641   0.50347   0.07728   0.00000  Uiso   1.00
H285   H     0.67083   0.45379   0.09548   0.00000  Uiso   1.00
N286   N     0.67813   0.51772   0.23036   0.00000  Uiso   1.00
H287   H     0.67025   0.49653   0.25605   0.00000  Uiso   1.00
H288   H     0.99584   0.54621   0.23786   0.00000  Uiso   1.00
N289   N     0.90551   0.37788   0.12070   0.00000  Uiso   1.00
H290   H     0.94225   0.36988   0.13634   0.00000  Uiso   1.00
H291   H     0.90132   0.36991   0.08492   0.00000  Uiso   1.00
N292   N     0.76115   0.62212   0.21263   0.00000  Uiso   1.00
H293   H     0.72442   0.63012   0.19700   0.00000  Uiso   1.00
H294   H     0.76535   0.63009   0.24842   0.00000  Uiso   1.00
N295   N     0.90554   0.62247   0.12074   0.00000  Uiso   1.00
H296   H     0.94227   0.63073   0.13633   0.00000  Uiso   1.00
H297   H     0.90129   0.63034   0.08493   0.00000  Uiso   1.00
N298   N     0.76113   0.37753   0.21260   0.00000  Uiso   1.00
H299   H     0.72440   0.36927   0.19701   0.00000  Uiso   1.00
H300   H     0.76538   0.36966   0.24840   0.00000  Uiso   1.00
C301   C     0.16664   0.75414   0.16665   0.00000  Uiso   1.00
C302   C     0.16669   0.91253   0.16669   0.00000  Uiso   1.00
C303   C     0.06812   0.83310   0.15473   0.00000  Uiso   1.00
C304   C     0.26521   0.83357   0.17860   0.00000  Uiso   1.00
C305   C     0.01324   0.82956   0.14835   0.00000  Uiso   1.00
C306   C     0.32009   0.83711   0.18498   0.00000  Uiso   1.00
C307   C     0.20217   0.68838   0.14319   0.00000  Uiso   1.00
C308   C     0.13116   0.97829   0.19014   0.00000  Uiso   1.00
C309   C     0.20219   0.97846   0.14321   0.00000  Uiso   1.00
C310   C     0.13114   0.68821   0.19012   0.00000  Uiso   1.00
C311   C     0.16669   0.95716   0.16669   0.00000  Uiso   1.00
C312   C     0.16665   0.70951   0.16664   0.00000  Uiso   1.00
C313   C     0.13264   0.80960   0.02048   0.00000  Uiso   1.00
C314   C     0.20070   0.85706   0.31285   0.00000  Uiso   1.00
C315   C     0.13265   0.80961   0.30421   0.00000  Uiso   1.00
C316   C     0.20068   0.85706   0.02913   0.00000  Uiso   1.00
Cu317  Cu    0.16667   0.83334   0.21355   0.00000  Uiso   1.00
Cu318  Cu    0.16667   0.83333   0.11978   0.00000  Uiso   1.00
H319   H     0.10543   0.79054   0.03571   0.00000  Uiso   1.00
H320   H     0.22790   0.87612   0.29762   0.00000  Uiso   1.00
H321   H     0.10546   0.79055   0.28206   0.00000  Uiso   1.00
H322   H     0.22787   0.87612   0.05127   0.00000  Uiso   1.00
N323   N     0.16668   0.83334   0.28403   0.00000  Uiso   1.00
N324   N     0.16665   0.83332   0.04931   0.00000  Uiso   1.00
O325   O     0.16666   0.77322   0.20625   0.00000  Uiso   1.00
O326   O     0.16667   0.89345   0.12709   0.00000  Uiso   1.00
O327   O     0.16666   0.77321   0.12706   0.00000  Uiso   1.00
O328   O     0.16667   0.89346   0.20628   0.00000  Uiso   1.00
O329   O     0.09161   0.83334   0.19712   0.00000  Uiso   1.00
O330   O     0.24172   0.83333   0.13621   0.00000  Uiso   1.00
O331   O     0.09161   0.83333   0.11793   0.00000  Uiso   1.00
O332   O     0.24172   0.83334   0.21540   0.00000  Uiso   1.00
N333   N     0.32187   0.81561   0.10298   0.00000  Uiso   1.00
H334   H     0.32975   0.83680   0.07728   0.00000  Uiso   1.00
H335   H     0.00416   0.78712   0.09548   0.00000  Uiso   1.00
N336   N     0.01146   0.85106   0.23036   0.00000  Uiso   1.00
H337   H     0.00359   0.82986   0.25605   0.00000  Uiso   1.00
H338   H     0.32917   0.87955   0.23786   0.00000  Uiso   1.00
N339   N     0.23884   0.71122   0.12070   0.00000  Uiso   1.00
H340   H     0.27558   0.70321   0.13634   0.00000  Uiso   1.00
H341   H     0.23465   0.70324   0.08492   0.00000  Uiso   1.00
N342   N     0.09449   0.95545   0.21263   0.00000  Uiso   1.00
H343   H     0.05775   0.96346   0.19700   0.00000  Uiso   1.00
H344   H     0.09868   0.96342   0.24842   0.00000  Uiso   1.00
N345   N     0.23887   0.95581   0.12074   0.00000  Uiso   1.00
H346   H     0.27560   0.96407   0.13633   0.00000  Uiso   1.00
H347   H     0.23462   0.96368   0.08493   0.00000  Uiso   1.00
N348   N     0.09446   0.71086   0.21260   0.00000  Uiso   1.00
H349   H     0.05773   0.70260   0.19701   0.00000  Uiso   1.00
H350   H     0.09871   0.70299   0.24840   0.00000  Uiso   1.00
C351   C     0.49998   0.75414   0.16665   0.00000  Uiso   1.00
C352   C     0.50002   0.91253   0.16669   0.00000  Uiso   1.00
C353   C     0.40146   0.83310   0.15473   0.00000  Uiso   1.00
C354   C     0.59854   0.83357   0.17860   0.00000  Uiso   1.00
C355   C     0.34657   0.82956   0.14835   0.00000  Uiso   1.00
C356   C     0.65343   0.83711   0.18498   0.00000  Uiso   1.00
C357   C     0.53551   0.68838   0.14319   0.00000  Uiso   1.00
C358   C     0.46449   0.97829   0.19014   0.00000  Uiso   1.00
C359   C     0.53553   0.97846   0.14321   0.00000  Uiso   1.00
C360   C     0.46447   0.68821   0.19012   0.00000  Uiso   1.00
C361   C     0.50002   0.95716   0.16669   0.00000  Uiso   1.00
C362   C     0.49998   0.70951   0.16664   0.00000  Uiso   1.00
C363   C     0.46597   0.80960   0.02048   0.00000  Uiso   1.00
C364   C     0.53403   0.85706   0.31285   0.00000  Uiso   1.00
C365   C     0.46599   0.80961   0.30421   0.00000  Uiso   1.00
C366   C     0.53401   0.85706   0.02913   0.00000  Uiso   1.00
Cu367  Cu    0.50000   0.83334   0.21355   0.00000  Uiso   1.00
Cu368  Cu    0.50000   0.83333   0.11978   0.00000  Uiso   1.00
H369   H     0.43876   0.79054   0.03571   0.00000  Uiso   1.00
H370   H     0.56124   0.87612   0.29762   0.00000  Uiso   1.00
H371   H     0.43879   0.79055   0.28206   0.00000  Uiso   1.00
H372   H     0.56121   0.87612   0.05127   0.00000  Uiso   1.00
N373   N     0.50001   0.83334   0.28403   0.00000  Uiso   1.00
N374   N     0.49999   0.83332   0.04931   0.00000  Uiso   1.00
O375   O     0.50000   0.77322   0.20625   0.00000  Uiso   1.00
O376   O     0.50000   0.89345   0.12709   0.00000  Uiso   1.00
O377   O     0.50000   0.77321   0.12706   0.00000  Uiso   1.00
O378   O     0.50000   0.89346   0.20628   0.00000  Uiso   1.00
O379   O     0.42495   0.83334   0.19712   0.00000  Uiso   1.00
O380   O     0.57505   0.83333   0.13621   0.00000  Uiso   1.00
O381   O     0.42494   0.83333   0.11793   0.00000  Uiso   1.00
O382   O     0.57506   0.83334   0.21540   0.00000  Uiso   1.00
N383   N     0.65521   0.81561   0.10298   0.00000  Uiso   1.00
H384   H     0.66308   0.83680   0.07728   0.00000  Uiso   1.00
H385   H     0.33750   0.78712   0.09548   0.00000  Uiso   1.00
N386   N     0.34479   0.85106   0.23036   0.00000  Uiso   1.00
H387   H     0.33692   0.82986   0.25605   0.00000  Uiso   1.00
H388   H     0.66250   0.87955   0.23786   0.00000  Uiso   1.00
N389   N     0.57218   0.71122   0.12070   0.00000  Uiso   1.00
H390   H     0.60891   0.70321   0.13634   0.00000  Uiso   1.00
H391   H     0.56799   0.70324   0.08492   0.00000  Uiso   1.00
N392   N     0.42782   0.95545   0.21263   0.00000  Uiso   1.00
H393   H     0.39109   0.96346   0.19700   0.00000  Uiso   1.00
H394   H     0.43201   0.96342   0.24842   0.00000  Uiso   1.00
N395   N     0.57220   0.95581   0.12074   0.00000  Uiso   1.00
H396   H     0.60893   0.96407   0.13633   0.00000  Uiso   1.00
H397   H     0.56796   0.96368   0.08493   0.00000  Uiso   1.00
N398   N     0.42780   0.71086   0.21260   0.00000  Uiso   1.00
H399   H     0.39106   0.70260   0.19701   0.00000  Uiso   1.00
H400   H     0.43204   0.70299   0.24840   0.00000  Uiso   1.00
C401   C     0.83331   0.75414   0.16665   0.00000  Uiso   1.00
C402   C     0.83336   0.91253   0.16669   0.00000  Uiso   1.00
C403   C     0.73479   0.83310   0.15473   0.00000  Uiso   1.00
C404   C     0.93188   0.83357   0.17860   0.00000  Uiso   1.00
C405   C     0.67991   0.82956   0.14835   0.00000  Uiso   1.00
C406   C     0.98676   0.83711   0.18498   0.00000  Uiso   1.00
C407   C     0.86884   0.68838   0.14319   0.00000  Uiso   1.00
C408   C     0.79783   0.97829   0.19014   0.00000  Uiso   1.00
C409   C     0.86886   0.97846   0.14321   0.00000  Uiso   1.00
C410   C     0.79781   0.68821   0.19012   0.00000  Uiso   1.00
C411   C     0.83335   0.95716   0.16669   0.00000  Uiso   1.00
C412   C     0.83331   0.70951   0.16664   0.00000  Uiso   1.00
C413   C     0.79930   0.80960   0.02048   0.00000  Uiso   1.00
C414   C     0.86736   0.85706   0.31285   0.00000  Uiso   1.00
C415   C     0.79932   0.80961   0.30421   0.00000  Uiso   1.00
C416   C     0.86735   0.85706   0.02913   0.00000  Uiso   1.00
Cu417  Cu    0.83333   0.83334   0.21355   0.00000  Uiso   1.00
Cu418  Cu    0.83333   0.83333   0.11978   0.00000  Uiso   1.00
H419   H     0.77210   0.79054   0.03571   0.00000  Uiso   1.00
H420   H     0.89457   0.87612   0.29762   0.00000  Uiso   1.00
H421   H     0.77213   0.79055   0.28206   0.00000  Uiso   1.00
H422   H     0.89454   0.87612   0.05127   0.00000  Uiso   1.00
N423   N     0.83335   0.83334   0.28403   0.00000  Uiso   1.00
N424   N     0.83332   0.83332   0.04931   0.00000  Uiso   1.00
O425   O     0.83333   0.77322   0.20625   0.00000  Uiso   1.00
O426   O     0.83334   0.89345   0.12709   0.00000  Uiso   1.00
O427   O     0.83333   0.77321   0.12706   0.00000  Uiso   1.00
O428   O     0.83334   0.89346   0.20628   0.00000  Uiso   1.00
O429   O     0.75828   0.83334   0.19712   0.00000  Uiso   1.00
O430   O     0.90839   0.83333   0.13621   0.00000  Uiso   1.00
O431   O     0.75828   0.83333   0.11793   0.00000  Uiso   1.00
O432   O     0.90839   0.83334   0.21540   0.00000  Uiso   1.00
N433   N     0.98854   0.81561   0.10298   0.00000  Uiso   1.00
H434   H     0.99641   0.83680   0.07728   0.00000  Uiso   1.00
H435   H     0.67083   0.78712   0.09548   0.00000  Uiso   1.00
N436   N     0.67813   0.85106   0.23036   0.00000  Uiso   1.00
H437   H     0.67025   0.82986   0.25605   0.00000  Uiso   1.00
H438   H     0.99584   0.87955   0.23786   0.00000  Uiso   1.00
N439   N     0.90551   0.71122   0.12070   0.00000  Uiso   1.00
H440   H     0.94225   0.70321   0.13634   0.00000  Uiso   1.00
H441   H     0.90132   0.70324   0.08492   0.00000  Uiso   1.00
N442   N     0.76115   0.95545   0.21263   0.00000  Uiso   1.00
H443   H     0.72442   0.96346   0.19700   0.00000  Uiso   1.00
H444   H     0.76535   0.96342   0.24842   0.00000  Uiso   1.00
N445   N     0.90554   0.95581   0.12074   0.00000  Uiso   1.00
H446   H     0.94227   0.96407   0.13633   0.00000  Uiso   1.00
H447   H     0.90129   0.96368   0.08493   0.00000  Uiso   1.00
N448   N     0.76113   0.71086   0.21260   0.00000  Uiso   1.00
H449   H     0.72440   0.70260   0.19701   0.00000  Uiso   1.00
H450   H     0.76538   0.70299   0.24840   0.00000  Uiso   1.00
C451   C     0.16664   0.08747   0.49998   0.00000  Uiso   1.00
C452   C     0.16669   0.24586   0.50002   0.00000  Uiso   1.00
C453   C     0.06812   0.16643   0.48806   0.00000  Uiso   1.00
C454   C     0.26521   0.16690   0.51194   0.00000  Uiso   1.00
C455   C     0.01324   0.16289   0.48168   0.00000  Uiso   1.00
C456   C     0.32009   0.17044   0.51832   0.00000  Uiso   1.00
C457   C     0.20217   0.02171   0.47652   0.00000  Uiso   1.00
C458   C     0.13116   0.31162   0.52348   0.00000  Uiso   1.00
C459   C     0.20219   0.31179   0.47654   0.00000  Uiso   1.00
C460   C     0.13114   0.02154   0.52346   0.00000  Uiso   1.00
C461   C     0.16669   0.29049   0.50002   0.00000  Uiso   1.00
C462   C     0.16665   0.04284   0.49998   0.00000  Uiso   1.00
C463   C     0.13264   0.14294   0.35381   0.00000  Uiso   1.00
C464   C     0.20070   0.19040   0.64619   0.00000  Uiso   1.00
C465   C     0.13265   0.14294   0.63754   0.00000  Uiso   1.00
C466   C     0.20068   0.19039   0.36246   0.00000  Uiso   1.00
Cu467  Cu    0.16667   0.16667   0.54689   0.00000  Uiso   1.00
Cu468  Cu    0.16667   0.16666   0.45311   0.00000  Uiso   1.00
H469   H     0.10543   0.12388   0.36905   0.00000  Uiso   1.00
H470   H     0.22790   0.20946   0.63095   0.00000  Uiso   1.00
H471   H     0.10546   0.12388   0.61539   0.00000  Uiso   1.00
H472   H     0.22787   0.20945   0.38461   0.00000  Uiso   1.00
N473   N     0.16668   0.16668   0.61736   0.00000  Uiso   1.00
N474   N     0.16665   0.16666   0.38264   0.00000  Uiso   1.00
O475   O     0.16666   0.10655   0.53958   0.00000  Uiso   1.00
O476   O     0.16667   0.22678   0.46042   0.00000  Uiso   1.00
O477   O     0.16666   0.10654   0.46039   0.00000  Uiso   1.00
O478   O     0.16667   0.22679   0.53961   0.00000  Uiso   1.00
O479   O     0.09161   0.16667   0.53046   0.00000  Uiso   1.00
O480   O     0.24172   0.16666   0.46954   0.00000  Uiso   1.00
O481   O     0.09161   0.16666   0.45127   0.00000  Uiso   1.00
O482   O     0.24172   0.16667   0.54873   0.00000  Uiso   1.00
N483   N     0.32187   0.14894   0.43631   0.00000  Uiso   1.00
H484   H     0.32975   0.17013   0.41062   0.00000  Uiso   1.00
H485   H     0.00416   0.12045   0.42881   0.00000  Uiso   1.00
N486   N     0.01146   0.18439   0.56369   0.00000  Uiso   1.00
H487   H     0.00359   0.16320   0.58938   0.00000  Uiso   1.00
H488   H     0.32917   0.21288   0.57119   0.00000  Uiso   1.00
N489   N     0.23884   0.04455   0.45404   0.00000  Uiso   1.00
H490   H     0.27558   0.03654   0.46967   0.00000  Uiso   1.00
H491   H     0.23465   0.03658   0.41825   0.00000  Uiso   1.00
N492   N     0.09449   0.28878   0.54596   0.00000  Uiso   1.00
H493   H     0.05775   0.29679   0.53033   0.00000  Uiso   1.00
H494   H     0.09868   0.29676   0.58175   0.00000  Uiso   1.00
N495   N     0.23887   0.28914   0.45407   0.00000  Uiso   1.00
H496   H     0.27560   0.29740   0.46966   0.00000  Uiso   1.00
H497   H     0.23462   0.29701   0.41826   0.00000  Uiso   1.00
N498   N     0.09446   0.04419   0.54593   0.00000  Uiso   1.00
H499   H     0.05773   0.03593   0.53034   0.00000  Uiso   1.00
H500   H     0.09871   0.03632   0.58174   0.00000  Uiso   1.00
C501   C     0.49998   0.08747   0.49998   0.00000  Uiso   1.00
C502   C     0.50002   0.24586   0.50002   0.00000  Uiso   1.00
C503   C     0.40146   0.16643   0.48806   0.00000  Uiso   1.00
C504   C     0.59854   0.16690   0.51194   0.00000  Uiso   1.00
C505   C     0.34657   0.16289   0.48168   0.00000  Uiso   1.00
C506   C     0.65343   0.17044   0.51832   0.00000  Uiso   1.00
C507   C     0.53551   0.02171   0.47652   0.00000  Uiso   1.00
C508   C     0.46449   0.31162   0.52348   0.00000  Uiso   1.00
C509   C     0.53553   0.31179   0.47654   0.00000  Uiso   1.00
C510   C     0.46447   0.02154   0.52346   0.00000  Uiso   1.00
C511   C     0.50002   0.29049   0.50002   0.00000  Uiso   1.00
C512   C     0.49998   0.04284   0.49998   0.00000  Uiso   1.00
C513   C     0.46597   0.14294   0.35381   0.00000  Uiso   1.00
C514   C     0.53403   0.19040   0.64619   0.00000  Uiso   1.00
C515   C     0.46599   0.14294   0.63754   0.00000  Uiso   1.00
C516   C     0.53401   0.19039   0.36246   0.00000  Uiso   1.00
Cu517  Cu    0.50000   0.16667   0.54689   0.00000  Uiso   1.00
Cu518  Cu    0.50000   0.16666   0.45311   0.00000  Uiso   1.00
H519   H     0.43876   0.12388   0.36905   0.00000  Uiso   1.00
H520   H     0.56124   0.20946   0.63095   0.00000  Uiso   1.00
H521   H     0.43879   0.12388   0.61539   0.00000  Uiso   1.00
H522   H     0.56121   0.20945   0.38461   0.00000  Uiso   1.00
N523   N     0.50001   0.16668   0.61736   0.00000  Uiso   1.00
N524   N     0.49999   0.16666   0.38264   0.00000  Uiso   1.00
O525   O     0.50000   0.10655   0.53958   0.00000  Uiso   1.00
O526   O     0.50000   0.22678   0.46042   0.00000  Uiso   1.00
O527   O     0.50000   0.10654   0.46039   0.00000  Uiso   1.00
O528   O     0.50000   0.22679   0.53961   0.00000  Uiso   1.00
O529   O     0.42495   0.16667   0.53046   0.00000  Uiso   1.00
O530   O     0.57505   0.16666   0.46954   0.00000  Uiso   1.00
O531   O     0.42494   0.16666   0.45127   0.00000  Uiso   1.00
O532   O     0.57506   0.16667   0.54873   0.00000  Uiso   1.00
N533   N     0.65521   0.14894   0.43631   0.00000  Uiso   1.00
H534   H     0.66308   0.17013   0.41062   0.00000  Uiso   1.00
H535   H     0.33750   0.12045   0.42881   0.00000  Uiso   1.00
N536   N     0.34479   0.18439   0.56369   0.00000  Uiso   1.00
H537   H     0.33692   0.16320   0.58938   0.00000  Uiso   1.00
H538   H     0.66250   0.21288   0.57119   0.00000  Uiso   1.00
N539   N     0.57218   0.04455   0.45404   0.00000  Uiso   1.00
H540   H     0.60891   0.03654   0.46967   0.00000  Uiso   1.00
H541   H     0.56799   0.03658   0.41825   0.00000  Uiso   1.00
N542   N     0.42782   0.28878   0.54596   0.00000  Uiso   1.00
H543   H     0.39109   0.29679   0.53033   0.00000  Uiso   1.00
H544   H     0.43201   0.29676   0.58175   0.00000  Uiso   1.00
N545   N     0.57220   0.28914   0.45407   0.00000  Uiso   1.00
H546   H     0.60893   0.29740   0.46966   0.00000  Uiso   1.00
H547   H     0.56796   0.29701   0.41826   0.00000  Uiso   1.00
N548   N     0.42780   0.04419   0.54593   0.00000  Uiso   1.00
H549   H     0.39106   0.03593   0.53034   0.00000  Uiso   1.00
H550   H     0.43204   0.03632   0.58174   0.00000  Uiso   1.00
C551   C     0.83331   0.08747   0.49998   0.00000  Uiso   1.00
C552   C     0.83336   0.24586   0.50002   0.00000  Uiso   1.00
C553   C     0.73479   0.16643   0.48806   0.00000  Uiso   1.00
C554   C     0.93188   0.16690   0.51194   0.00000  Uiso   1.00
C555   C     0.67991   0.16289   0.48168   0.00000  Uiso   1.00
C556   C     0.98676   0.17044   0.51832   0.00000  Uiso   1.00
C557   C     0.86884   0.02171   0.47652   0.00000  Uiso   1.00
C558   C     0.79783   0.31162   0.52348   0.00000  Uiso   1.00
C559   C     0.86886   0.31179   0.47654   0.00000  Uiso   1.00
C560   C     0.79781   0.02154   0.52346   0.00000  Uiso   1.00
C561   C     0.83335   0.29049   0.50002   0.00000  Uiso   1.00
C562   C     0.83331   0.04284   0.49998   0.00000  Uiso   1.00
C563   C     0.79930   0.14294   0.35381   0.00000  Uiso   1.00
C564   C     0.86736   0.19040   0.64619   0.00000  Uiso   1.00
C565   C     0.79932   0.14294   0.63754   0.00000  Uiso   1.00
C566   C     0.86735   0.19039   0.36246   0.00000  Uiso   1.00
Cu567  Cu    0.83333   0.16667   0.54689   0.00000  Uiso   1.00
Cu568  Cu    0.83333   0.16666   0.45311   0.00000  Uiso   1.00
H569   H     0.77210   0.12388   0.36905   0.00000  Uiso   1.00
H570   H     0.89457   0.20946   0.63095   0.00000  Uiso   1.00
H571   H     0.77213   0.12388   0.61539   0.00000  Uiso   1.00
H572   H     0.89454   0.20945   0.38461   0.00000  Uiso   1.00
N573   N     0.83335   0.16668   0.61736   0.00000  Uiso   1.00
N574   N     0.83332   0.16666   0.38264   0.00000  Uiso   1.00
O575   O     0.83333   0.10655   0.53958   0.00000  Uiso   1.00
O576   O     0.83334   0.22678   0.46042   0.00000  Uiso   1.00
O577   O     0.83333   0.10654   0.46039   0.00000  Uiso   1.00
O578   O     0.83334   0.22679   0.53961   0.00000  Uiso   1.00
O579   O     0.75828   0.16667   0.53046   0.00000  Uiso   1.00
O580   O     0.90839   0.16666   0.46954   0.00000  Uiso   1.00
O581   O     0.75828   0.16666   0.45127   0.00000  Uiso   1.00
O582   O     0.90839   0.16667   0.54873   0.00000  Uiso   1.00
N583   N     0.98854   0.14894   0.43631   0.00000  Uiso   1.00
H584   H     0.99641   0.17013   0.41062   0.00000  Uiso   1.00
H585   H     0.67083   0.12045   0.42881   0.00000  Uiso   1.00
N586   N     0.67813   0.18439   0.56369   0.00000  Uiso   1.00
H587   H     0.67025   0.16320   0.58938   0.00000  Uiso   1.00
H588   H     0.99584   0.21288   0.57119   0.00000  Uiso   1.00
N589   N     0.90551   0.04455   0.45404   0.00000  Uiso   1.00
H590   H     0.94225   0.03654   0.46967   0.00000  Uiso   1.00
H591   H     0.90132   0.03658   0.41825   0.00000  Uiso   1.00
N592   N     0.76115   0.28878   0.54596   0.00000  Uiso   1.00
H593   H     0.72442   0.29679   0.53033   0.00000  Uiso   1.00
H594   H     0.76535   0.29676   0.58175   0.00000  Uiso   1.00
N595   N     0.90554   0.28914   0.45407   0.00000  Uiso   1.00
H596   H     0.94227   0.29740   0.46966   0.00000  Uiso   1.00
H597   H     0.90129   0.29701   0.41826   0.00000  Uiso   1.00
N598   N     0.76113   0.04419   0.54593   0.00000  Uiso   1.00
H599   H     0.72440   0.03593   0.53034   0.00000  Uiso   1.00
H600   H     0.76538   0.03632   0.58174   0.00000  Uiso   1.00
C601   C     0.16664   0.42080   0.49998   0.00000  Uiso   1.00
C602   C     0.16669   0.57920   0.50002   0.00000  Uiso   1.00
C603   C     0.06812   0.49976   0.48806   0.00000  Uiso   1.00
C604   C     0.26521   0.50024   0.51194   0.00000  Uiso   1.00
C605   C     0.01324   0.49623   0.48168   0.00000  Uiso   1.00
C606   C     0.32009   0.50377   0.51832   0.00000  Uiso   1.00
C607   C     0.20217   0.35505   0.47652   0.00000  Uiso   1.00
C608   C     0.13116   0.64495   0.52348   0.00000  Uiso   1.00
C609   C     0.20219   0.64513   0.47654   0.00000  Uiso   1.00
C610   C     0.13114   0.35487   0.52346   0.00000  Uiso   1.00
C611   C     0.16669   0.62383   0.50002   0.00000  Uiso   1.00
C612   C     0.16665   0.37617   0.49998   0.00000  Uiso   1.00
C613   C     0.13264   0.47627   0.35381   0.00000  Uiso   1.00
C614   C     0.20070   0.52373   0.64619   0.00000  Uiso   1.00
C615   C     0.13265   0.47628   0.63754   0.00000  Uiso   1.00
C616   C     0.20068   0.52372   0.36246   0.00000  Uiso   1.00
Cu617  Cu    0.16667   0.50001   0.54689   0.00000  Uiso   1.00
Cu618  Cu    0.16667   0.49999   0.45311   0.00000  Uiso   1.00
H619   H     0.10543   0.45721   0.36905   0.00000  Uiso   1.00
H620   H     0.22790   0.54279   0.63095   0.00000  Uiso   1.00
H621   H     0.10546   0.45721   0.61539   0.00000  Uiso   1.00
H622   H     0.22787   0.54279   0.38461   0.00000  Uiso   1.00
N623   N     0.16668   0.50001   0.61736   0.00000  Uiso   1.00
N624   N     0.16665   0.49999   0.38264   0.00000  Uiso   1.00
O625   O     0.16666   0.43989   0.53958   0.00000  Uiso   1.00
O626   O     0.16667   0.56011   0.46042   0.00000  Uiso   1.00
O627   O     0.16666   0.43988   0.46039   0.00000  Uiso   1.00
O628   O     0.16667   0.56012   0.53961   0.00000  Uiso   1.00
O629   O     0.09161   0.50000   0.53046   0.00000  Uiso   1.00
O630   O     0.24172   0.50000   0.46954   0.00000  Uiso   1.00
O631   O     0.09161   0.49999   0.45127   0.00000  Uiso   1.00
O632   O     0.24172   0.50001   0.54873   0.00000  Uiso   1.00
N633   N     0.32187   0.48228   0.43631   0.00000  Uiso   1.00
H634   H     0.32975   0.50347   0.41062   0.00000  Uiso   1.00
H635   H     0.00416   0.45379   0.42881   0.00000  Uiso   1.00
N636   N     0.01146   0.51772   0.56369   0.00000  Uiso   1.00
H637   H     0.00359   0.49653   0.58938   0.00000  Uiso   1.00
H638   H     0.32917   0.54621   0.57119   0.00000  Uiso   1.00
N639   N     0.23884   0.37788   0.45404   0.00000  Uiso   1.00
H640   H     0.27558   0.36988   0.46967   0.00000  Uiso   1.00
H641   H     0.23465   0.36991   0.41825   0.00000  Uiso   1.00
N642   N     0.09449   0.62212   0.54596   0.00000  Uiso   1.00
H643   H     0.05775   0.63012   0.53033   0.00000  Uiso   1.00
H644   H     0.09868   0.63009   0.58175   0.00000  Uiso   1.00
N645   N     0.23887   0.62247   0.45407   0.00000  Uiso   1.00
H646   H     0.27560   0.63073   0.46966   0.00000  Uiso   1.00
H647   H     0.23462   0.63034   0.41826   0.00000  Uiso   1.00
N648   N     0.09446   0.37753   0.54593   0.00000  Uiso   1.00
H649   H     0.05773   0.36927   0.53034   0.00000  Uiso   1.00
H650   H     0.09871   0.36966   0.58174   0.00000  Uiso   1.00
C651   C     0.49998   0.42080   0.49998   0.00000  Uiso   1.00
C652   C     0.50002   0.57920   0.50002   0.00000  Uiso   1.00
C653   C     0.40146   0.49976   0.48806   0.00000  Uiso   1.00
C654   C     0.59854   0.50024   0.51194   0.00000  Uiso   1.00
C655   C     0.34657   0.49623   0.48168   0.00000  Uiso   1.00
C656   C     0.65343   0.50377   0.51832   0.00000  Uiso   1.00
C657   C     0.53551   0.35505   0.47652   0.00000  Uiso   1.00
C658   C     0.46449   0.64495   0.52348   0.00000  Uiso   1.00
C659   C     0.53553   0.64513   0.47654   0.00000  Uiso   1.00
C660   C     0.46447   0.35487   0.52346   0.00000  Uiso   1.00
C661   C     0.50002   0.62383   0.50002   0.00000  Uiso   1.00
C662   C     0.49998   0.37617   0.49998   0.00000  Uiso   1.00
C663   C     0.46597   0.47627   0.35381   0.00000  Uiso   1.00
C664   C     0.53403   0.52373   0.64619   0.00000  Uiso   1.00
C665   C     0.46599   0.47628   0.63754   0.00000  Uiso   1.00
C666   C     0.53401   0.52372   0.36246   0.00000  Uiso   1.00
Cu667  Cu    0.50000   0.50001   0.54689   0.00000  Uiso   1.00
Cu668  Cu    0.50000   0.49999   0.45311   0.00000  Uiso   1.00
H669   H     0.43876   0.45721   0.36905   0.00000  Uiso   1.00
H670   H     0.56124   0.54279   0.63095   0.00000  Uiso   1.00
H671   H     0.43879   0.45721   0.61539   0.00000  Uiso   1.00
H672   H     0.56121   0.54279   0.38461   0.00000  Uiso   1.00
N673   N     0.50001   0.50001   0.61736   0.00000  Uiso   1.00
N674   N     0.49999   0.49999   0.38264   0.00000  Uiso   1.00
O675   O     0.50000   0.43989   0.53958   0.00000  Uiso   1.00
O676   O     0.50000   0.56011   0.46042   0.00000  Uiso   1.00
O677   O     0.50000   0.43988   0.46039   0.00000  Uiso   1.00
O678   O     0.50000   0.56012   0.53961   0.00000  Uiso   1.00
O679   O     0.42495   0.50000   0.53046   0.00000  Uiso   1.00
O680   O     0.57505   0.50000   0.46954   0.00000  Uiso   1.00
O681   O     0.42494   0.49999   0.45127   0.00000  Uiso   1.00
O682   O     0.57506   0.50001   0.54873   0.00000  Uiso   1.00
N683   N     0.65521   0.48228   0.43631   0.00000  Uiso   1.00
H684   H     0.66308   0.50347   0.41062   0.00000  Uiso   1.00
H685   H     0.33750   0.45379   0.42881   0.00000  Uiso   1.00
N686   N     0.34479   0.51772   0.56369   0.00000  Uiso   1.00
H687   H     0.33692   0.49653   0.58938   0.00000  Uiso   1.00
H688   H     0.66250   0.54621   0.57119   0.00000  Uiso   1.00
N689   N     0.57218   0.37788   0.45404   0.00000  Uiso   1.00
H690   H     0.60891   0.36988   0.46967   0.00000  Uiso   1.00
H691   H     0.56799   0.36991   0.41825   0.00000  Uiso   1.00
N692   N     0.42782   0.62212   0.54596   0.00000  Uiso   1.00
H693   H     0.39109   0.63012   0.53033   0.00000  Uiso   1.00
H694   H     0.43201   0.63009   0.58175   0.00000  Uiso   1.00
N695   N     0.57220   0.62247   0.45407   0.00000  Uiso   1.00
H696   H     0.60893   0.63073   0.46966   0.00000  Uiso   1.00
H697   H     0.56796   0.63034   0.41826   0.00000  Uiso   1.00
N698   N     0.42780   0.37753   0.54593   0.00000  Uiso   1.00
H699   H     0.39106   0.36927   0.53034   0.00000  Uiso   1.00
H700   H     0.43204   0.36966   0.58174   0.00000  Uiso   1.00
C701   C     0.83331   0.42080   0.49998   0.00000  Uiso   1.00
C702   C     0.83336   0.57920   0.50002   0.00000  Uiso   1.00
C703   C     0.73479   0.49976   0.48806   0.00000  Uiso   1.00
C704   C     0.93188   0.50024   0.51194   0.00000  Uiso   1.00
C705   C     0.67991   0.49623   0.48168   0.00000  Uiso   1.00
C706   C     0.98676   0.50377   0.51832   0.00000  Uiso   1.00
C707   C     0.86884   0.35505   0.47652   0.00000  Uiso   1.00
C708   C     0.79783   0.64495   0.52348   0.00000  Uiso   1.00
C709   C     0.86886   0.64513   0.47654   0.00000  Uiso   1.00
C710   C     0.79781   0.35487   0.52346   0.00000  Uiso   1.00
C711   C     0.83335   0.62383   0.50002   0.00000  Uiso   1.00
C712   C     0.83331   0.37617   0.49998   0.00000  Uiso   1.00
C713   C     0.79930   0.47627   0.35381   0.00000  Uiso   1.00
C714   C     0.86736   0.52373   0.64619   0.00000  Uiso   1.00
C715   C     0.79932   0.47628   0.63754   0.00000  Uiso   1.00
C716   C     0.86735   0.52372   0.36246   0.00000  Uiso   1.00
Cu717  Cu    0.83333   0.50001   0.54689   0.00000  Uiso   1.00
Cu718  Cu    0.83333   0.49999   0.45311   0.00000  Uiso   1.00
H719   H     0.77210   0.45721   0.36905   0.00000  Uiso   1.00
H720   H     0.89457   0.54279   0.63095   0.00000  Uiso   1.00
H721   H     0.77213   0.45721   0.61539   0.00000  Uiso   1.00
H722   H     0.89454   0.54279   0.38461   0.00000  Uiso   1.00
N723   N     0.83335   0.50001   0.61736   0.00000  Uiso   1.00
N724   N     0.83332   0.49999   0.38264   0.00000  Uiso   1.00
O725   O     0.83333   0.43989   0.53958   0.00000  Uiso   1.00
O726   O     0.83334   0.56011   0.46042   0.00000  Uiso   1.00
O727   O     0.83333   0.43988   0.46039   0.00000  Uiso   1.00
O728   O     0.83334   0.56012   0.53961   0.00000  Uiso   1.00
O729   O     0.75828   0.50000   0.53046   0.00000  Uiso   1.00
O730   O     0.90839   0.50000   0.46954   0.00000  Uiso   1.00
O731   O     0.75828   0.49999   0.45127   0.00000  Uiso   1.00
O732   O     0.90839   0.50001   0.54873   0.00000  Uiso   1.00
N733   N     0.98854   0.48228   0.43631   0.00000  Uiso   1.00
H734   H     0.99641   0.50347   0.41062   0.00000  Uiso   1.00
H735   H     0.67083   0.45379   0.42881   0.00000  Uiso   1.00
N736   N     0.67813   0.51772   0.56369   0.00000  Uiso   1.00
H737   H     0.67025   0.49653   0.58938   0.00000  Uiso   1.00
H738   H     0.99584   0.54621   0.57119   0.00000  Uiso   1.00
N739   N     0.90551   0.37788   0.45404   0.00000  Uiso   1.00
H740   H     0.94225   0.36988   0.46967   0.00000  Uiso   1.00
H741   H     0.90132   0.36991   0.41825   0.00000  Uiso   1.00
N742   N     0.76115   0.62212   0.54596   0.00000  Uiso   1.00
H743   H     0.72442   0.63012   0.53033   0.00000  Uiso   1.00
H744   H     0.76535   0.63009   0.58175   0.00000  Uiso   1.00
N745   N     0.90554   0.62247   0.45407   0.00000  Uiso   1.00
H746   H     0.94227   0.63073   0.46966   0.00000  Uiso   1.00
H747   H     0.90129   0.63034   0.41826   0.00000  Uiso   1.00
N748   N     0.76113   0.37753   0.54593   0.00000  Uiso   1.00
H749   H     0.72440   0.36927   0.53034   0.00000  Uiso   1.00
H750   H     0.76538   0.36966   0.58174   0.00000  Uiso   1.00
C751   C     0.16664   0.75414   0.49998   0.00000  Uiso   1.00
C752   C     0.16669   0.91253   0.50002   0.00000  Uiso   1.00
C753   C     0.06812   0.83310   0.48806   0.00000  Uiso   1.00
C754   C     0.26521   0.83357   0.51194   0.00000  Uiso   1.00
C755   C     0.01324   0.82956   0.48168   0.00000  Uiso   1.00
C756   C     0.32009   0.83711   0.51832   0.00000  Uiso   1.00
C757   C     0.20217   0.68838   0.47652   0.00000  Uiso   1.00
C758   C     0.13116   0.97829   0.52348   0.00000  Uiso   1.00
C759   C     0.20219   0.97846   0.47654   0.00000  Uiso   1.00
C760   C     0.13114   0.68821   0.52346   0.00000  Uiso   1.00
C761   C     0.16669   0.95716   0.50002   0.00000  Uiso   1.00
C762   C     0.16665   0.70951   0.49998   0.00000  Uiso   1.00
C763   C     0.13264   0.80960   0.35381   0.00000  Uiso   1.00
C764   C     0.20070   0.85706   0.64619   0.00000  Uiso   1.00
C765   C     0.13265   0.80961   0.63754   0.00000  Uiso   1.00
C766   C     0.20068   0.85706   0.36246   0.00000  Uiso   1.00
Cu767  Cu    0.16667   0.83334   0.54689   0.00000  Uiso   1.00
Cu768  Cu    0.16667   0.83333   0.45311   0.00000  Uiso   1.00
H769   H     0.10543   0.79054   0.36905   0.00000  Uiso   1.00
H770   H     0.22790   0.87612   0.63095   0.00000  Uiso   1.00
H771   H     0.10546   0.79055   0.61539   0.00000  Uiso   1.00
H772   H     0.22787   0.87612   0.38461   0.00000  Uiso   1.00
N773   N     0.16668   0.83334   0.61736   0.00000  Uiso   1.00
N774   N     0.16665   0.83332   0.38264   0.00000  Uiso   1.00
O775   O     0.16666   0.77322   0.53958   0.00000  Uiso   1.00
O776   O     0.16667   0.89345   0.46042   0.00000  Uiso   1.00
O777   O     0.16666   0.77321   0.46039   0.00000  Uiso   1.00
O778   O     0.16667   0.89346   0.53961   0.00000  Uiso   1.00
O779   O     0.09161   0.83334   0.53046   0.00000  Uiso   1.00
O780   O     0.24172   0.83333   0.46954   0.00000  Uiso   1.00
O781   O     0.09161   0.83333   0.45127   0.00000  Uiso   1.00
O782   O     0.24172   0.83334   0.54873   0.00000  Uiso   1.00
N783   N     0.32187   0.81561   0.43631   0.00000  Uiso   1.00
H784   H     0.32975   0.83680   0.41062   0.00000  Uiso   1.00
H785   H     0.00416   0.78712   0.42881   0.00000  Uiso   1.00
N786   N     0.01146   0.85106   0.56369   0.00000  Uiso   1.00
H787   H     0.00359   0.82986   0.58938   0.00000  Uiso   1.00
H788   H     0.32917   0.87955   0.57119   0.00000  Uiso   1.00
N789   N     0.23884   0.71122   0.45404   0.00000  Uiso   1.00
H790   H     0.27558   0.70321   0.46967   0.00000  Uiso   1.00
H791   H     0.23465   0.70324   0.41825   0.00000  Uiso   1.00
N792   N     0.09449   0.95545   0.54596   0.00000  Uiso   1.00
H793   H     0.05775   0.96346   0.53033   0.00000  Uiso   1.00
H794   H     0.09868   0.96342   0.58175   0.00000  Uiso   1.00
N795   N     0.23887   0.95581   0.45407   0.00000  Uiso   1.00
H796   H     0.27560   0.96407   0.46966   0.00000  Uiso   1.00
H797   H     0.23462   0.96368   0.41826   0.00000  Uiso   1.00
N798   N     0.09446   0.71086   0.54593   0.00000  Uiso   1.00
H799   H     0.05773   0.70260   0.53034   0.00000  Uiso   1.00
H800   H     0.09871   0.70299   0.58174   0.00000  Uiso   1.00
C801   C     0.49998   0.75414   0.49998   0.00000  Uiso   1.00
C802   C     0.50002   0.91253   0.50002   0.00000  Uiso   1.00
C803   C     0.40146   0.83310   0.48806   0.00000  Uiso   1.00
C804   C     0.59854   0.83357   0.51194   0.00000  Uiso   1.00
C805   C     0.34657   0.82956   0.48168   0.00000  Uiso   1.00
C806   C     0.65343   0.83711   0.51832   0.00000  Uiso   1.00
C807   C     0.53551   0.68838   0.47652   0.00000  Uiso   1.00
C808   C     0.46449   0.97829   0.52348   0.00000  Uiso   1.00
C809   C     0.53553   0.97846   0.47654   0.00000  Uiso   1.00
C810   C     0.46447   0.68821   0.52346   0.00000  Uiso   1.00
C811   C     0.50002   0.95716   0.50002   0.00000  Uiso   1.00
C812   C     0.49998   0.70951   0.49998   0.00000  Uiso   1.00
C813   C     0.46597   0.80960   0.35381   0.00000  Uiso   1.00
C814   C     0.53403   0.85706   0.64619   0.00000  Uiso   1.00
C815   C     0.46599   0.80961   0.63754   0.00000  Uiso   1.00
C816   C     0.53401   0.85706   0.36246   0.00000  Uiso   1.00
Cu817  Cu    0.50000   0.83334   0.54689   0.00000  Uiso   1.00
Cu818  Cu    0.50000   0.83333   0.45311   0.00000  Uiso   1.00
H819   H     0.43876   0.79054   0.36905   0.00000  Uiso   1.00
H820   H     0.56124   0.87612   0.63095   0.00000  Uiso   1.00
H821   H     0.43879   0.79055   0.61539   0.00000  Uiso   1.00
H822   H     0.56121   0.87612   0.38461   0.00000  Uiso   1.00
N823   N     0.50001   0.83334   0.61736   0.00000  Uiso   1.00
N824   N     0.49999   0.83332   0.38264   0.00000  Uiso   1.00
O825   O     0.50000   0.77322   0.53958   0.00000  Uiso   1.00
O826   O     0.50000   0.89345   0.46042   0.00000  Uiso   1.00
O827   O     0.50000   0.77321   0.46039   0.00000  Uiso   1.00
O828   O     0.50000   0.89346   0.53961   0.00000  Uiso   1.00
O829   O     0.42495   0.83334   0.53046   0.00000  Uiso   1.00
O830   O     0.57505   0.83333   0.46954   0.00000  Uiso   1.00
O831   O     0.42494   0.83333   0.45127   0.00000  Uiso   1.00
O832   O     0.57506   0.83334   0.54873   0.00000  Uiso   1.00
N833   N     0.65521   0.81561   0.43631   0.00000  Uiso   1.00
H834   H     0.66308   0.83680   0.41062   0.00000  Uiso   1.00
H835   H     0.33750   0.78712   0.42881   0.00000  Uiso   1.00
N836   N     0.34479   0.85106   0.56369   0.00000  Uiso   1.00
H837   H     0.33692   0.82986   0.58938   0.00000  Uiso   1.00
H838   H     0.66250   0.87955   0.57119   0.00000  Uiso   1.00
N839   N     0.57218   0.71122   0.45404   0.00000  Uiso   1.00
H840   H     0.60891   0.70321   0.46967   0.00000  Uiso   1.00
H841   H     0.56799   0.70324   0.41825   0.00000  Uiso   1.00
N842   N     0.42782   0.95545   0.54596   0.00000  Uiso   1.00
H843   H     0.39109   0.96346   0.53033   0.00000  Uiso   1.00
H844   H     0.43201   0.96342   0.58175   0.00000  Uiso   1.00
N845   N     0.57220   0.95581   0.45407   0.00000  Uiso   1.00
H846   H     0.60893   0.96407   0.46966   0.00000  Uiso   1.00
H847   H     0.56796   0.96368   0.41826   0.00000  Uiso   1.00
N848   N     0.42780   0.71086   0.54593   0.00000  Uiso   1.00
H849   H     0.39106   0.70260   0.53034   0.00000  Uiso   1.00
H850   H     0.43204   0.70299   0.58174   0.00000  Uiso   1.00
C851   C     0.83331   0.75414   0.49998   0.00000  Uiso   1.00
C852   C     0.83336   0.91253   0.50002   0.00000  Uiso   1.00
C853   C     0.73479   0.83310   0.48806   0.00000  Uiso   1.00
C854   C     0.93188   0.83357   0.51194   0.00000  Uiso   1.00
C855   C     0.67991   0.82956   0.48168   0.00000  Uiso   1.00
C856   C     0.98676   0.83711   0.51832   0.00000  Uiso   1.00
C857   C     0.86884   0.68838   0.47652   0.00000  Uiso   1.00
C858   C     0.79783   0.97829   0.52348   0.00000  Uiso   1.00
C859   C     0.86886   0.97846   0.47654   0.00000  Uiso   1.00
C860   C     0.79781   0.68821   0.52346   0.00000  Uiso   1.00
C861   C     0.83335   0.95716   0.50002   0.00000  Uiso   1.00
C862   C     0.83331   0.70951   0.49998   0.00000  Uiso   1.00
C863   C     0.79930   0.80960   0.35381   0.00000  Uiso   1.00
C864   C     0.86736   0.85706   0.64619   0.00000  Uiso   1.00
C865   C     0.79932   0.80961   0.63754   0.00000  Uiso   1.00
C866   C     0.86735   0.85706   0.36246   0.00000  Uiso   1.00
Cu867  Cu    0.83333   0.83334   0.54689   0.00000  Uiso   1.00
Cu868  Cu    0.83333   0.83333   0.45311   0.00000  Uiso   1.00
H869   H     0.77210   0.79054   0.36905   0.00000  Uiso   1.00
H870   H     0.89457   0.87612   0.63095   0.00000  Uiso   1.00
H871   H     0.77213   0.79055   0.61539   0.00000  Uiso   1.00
H872   H     0.89454   0.87612   0.38461   0.00000  Uiso   1.00
N873   N     0.83335   0.83334   0.61736   0.00000  Uiso   1.00
N874   N     0.83332   0.83332   0.38264   0.00000  Uiso   1.00
O875   O     0.83333   0.77322   0.53958   0.00000  Uiso   1.00
O876   O     0.83334   0.89345   0.46042   0.00000  Uiso   1.00
O877   O     0.83333   0.77321   0.46039   0.00000  Uiso   1.00
O878   O     0.83334   0.89346   0.53961   0.00000  Uiso   1.00
O879   O     0.75828   0.83334   0.53046   0.00000  Uiso   1.00
O880   O     0.90839   0.83333   0.46954   0.00000  Uiso   1.00
O881   O     0.75828   0.83333   0.45127   0.00000  Uiso   1.00
O882   O     0.90839   0.83334   0.54873   0.00000  Uiso   1.00
N883   N     0.98854   0.81561   0.43631   0.00000  Uiso   1.00
H884   H     0.99641   0.83680   0.41062   0.00000  Uiso   1.00
H885   H     0.67083   0.78712   0.42881   0.00000  Uiso   1.00
N886   N     0.67813   0.85106   0.56369   0.00000  Uiso   1.00
H887   H     0.67025   0.82986   0.58938   0.00000  Uiso   1.00
H888   H     0.99584   0.87955   0.57119   0.00000  Uiso   1.00
N889   N     0.90551   0.71122   0.45404   0.00000  Uiso   1.00
H890   H     0.94225   0.70321   0.46967   0.00000  Uiso   1.00
H891   H     0.90132   0.70324   0.41825   0.00000  Uiso   1.00
N892   N     0.76115   0.95545   0.54596   0.00000  Uiso   1.00
H893   H     0.72442   0.96346   0.53033   0.00000  Uiso   1.00
H894   H     0.76535   0.96342   0.58175   0.00000  Uiso   1.00
N895   N     0.90554   0.95581   0.45407   0.00000  Uiso   1.00
H896   H     0.94227   0.96407   0.46966   0.00000  Uiso   1.00
H897   H     0.90129   0.96368   0.41826   0.00000  Uiso   1.00
N898   N     0.76113   0.71086   0.54593   0.00000  Uiso   1.00
H899   H     0.72440   0.70260   0.53034   0.00000  Uiso   1.00
H900   H     0.76538   0.70299   0.58174   0.00000  Uiso   1.00
C901   C     0.16664   0.08747   0.83331   0.00000  Uiso   1.00
C902   C     0.16669   0.24586   0.83335   0.00000  Uiso   1.00
C903   C     0.06812   0.16643   0.82140   0.00000  Uiso   1.00
C904   C     0.26521   0.16690   0.84527   0.00000  Uiso   1.00
C905   C     0.01324   0.16289   0.81502   0.00000  Uiso   1.00
C906   C     0.32009   0.17044   0.85165   0.00000  Uiso   1.00
C907   C     0.20217   0.02171   0.80986   0.00000  Uiso   1.00
C908   C     0.13116   0.31162   0.85681   0.00000  Uiso   1.00
C909   C     0.20219   0.31179   0.80988   0.00000  Uiso   1.00
C910   C     0.13114   0.02154   0.85679   0.00000  Uiso   1.00
C911   C     0.16669   0.29049   0.83336   0.00000  Uiso   1.00
C912   C     0.16665   0.04284   0.83331   0.00000  Uiso   1.00
C913   C     0.13264   0.14294   0.68715   0.00000  Uiso   1.00
C914   C     0.20070   0.19040   0.97952   0.00000  Uiso   1.00
C915   C     0.13265   0.14294   0.97087   0.00000  Uiso   1.00
C916   C     0.20068   0.19039   0.69579   0.00000  Uiso   1.00
Cu917  Cu    0.16667   0.16667   0.88022   0.00000  Uiso   1.00
Cu918  Cu    0.16667   0.16666   0.78645   0.00000  Uiso   1.00
H919   H     0.10543   0.12388   0.70238   0.00000  Uiso   1.00
H920   H     0.22790   0.20946   0.96429   0.00000  Uiso   1.00
H921   H     0.10546   0.12388   0.94873   0.00000  Uiso   1.00
H922   H     0.22787   0.20945   0.71794   0.00000  Uiso   1.00
N923   N     0.16668   0.16668   0.95069   0.00000  Uiso   1.00
N924   N     0.16665   0.16666   0.71597   0.00000  Uiso   1.00
O925   O     0.16666   0.10655   0.87291   0.00000  Uiso   1.00
O926   O     0.16667   0.22678   0.79375   0.00000  Uiso   1.00
O927   O     0.16666   0.10654   0.79372   0.00000  Uiso   1.00
O928   O     0.16667   0.22679   0.87294   0.00000  Uiso   1.00
O929   O     0.09161   0.16667   0.86379   0.00000  Uiso   1.00
O930   O     0.24172   0.16666   0.80288   0.00000  Uiso   1.00
O931   O     0.09161   0.16666   0.78460   0.00000  Uiso   1.00
O932   O     0.24172   0.16667   0.88207   0.00000  Uiso   1.00
N933   N     0.32187   0.14894   0.76964   0.00000  Uiso   1.00
H934   H     0.32975   0.17013   0.74395   0.00000  Uiso   1.00
H935   H     0.00416   0.12045   0.76214   0.00000  Uiso   1.00
N936   N     0.01146   0.18439   0.89702   0.00000  Uiso   1.00
H937   H     0.00359   0.16320   0.92272   0.00000  Uiso   1.00
H938   H     0.32917   0.21288   0.90452   0.00000  Uiso   1.00
N939   N     0.23884   0.04455   0.78737   0.00000  Uiso   1.00
H940   H     0.27558   0.03654   0.80300   0.00000  Uiso   1.00
H941   H     0.23465   0.03658   0.75158   0.00000  Uiso   1.00
N942   N     0.09449   0.28878   0.87930   0.00000  Uiso   1.00
H943   H     0.05775   0.29679   0.86366   0.00000  Uiso   1.00
H944   H     0.09868   0.29676   0.91508   0.00000  Uiso   1.00
N945   N     0.23887   0.28914   0.78740   0.00000  Uiso   1.00
H946   H     0.27560   0.29740   0.80299   0.00000  Uiso   1.00
H947   H     0.23462   0.29701   0.75160   0.00000  Uiso   1.00
N948   N     0.09446   0.04419   0.87926   0.00000  Uiso   1.00
H949   H     0.05773   0.03593   0.86367   0.00000  Uiso   1.00
H950   H     0.09871   0.03632   0.91507   0.00000  Uiso   1.00
C951   C     0.49998   0.08747   0.83331   0.00000  Uiso   1.00
C952   C     0.50002   0.24586   0.83335   0.00000  Uiso   1.00
C953   C     0.40146   0.16643   0.82140   0.00000  Uiso   1.00
C954   C     0.59854   0.16690   0.84527   0.00000  Uiso   1.00
C955   C     0.34657   0.16289   0.81502   0.00000  Uiso   1.00
C956   C     0.65343   0.17044   0.85165   0.00000  Uiso   1.00
C957   C     0.53551   0.02171   0.80986   0.00000  Uiso   1.00
C958   C     0.46449   0.31162   0.85681   0.00000  Uiso   1.00
C959   C     0.53553   0.31179   0.80988   0.00000  Uiso   1.00
C960   C     0.46447   0.02154   0.85679   0.00000  Uiso   1.00
C961   C     0.50002   0.29049   0.83336   0.00000  Uiso   1.00
C962   C     0.49998   0.04284   0.83331   0.00000  Uiso   1.00
C963   C     0.46597   0.14294   0.68715   0.00000  Uiso   1.00
C964   C     0.53403   0.19040   0.97952   0.00000  Uiso   1.00
C965   C     0.46599   0.14294   0.97087   0.00000  Uiso   1.00
C966   C     0.53401   0.19039   0.69579   0.00000  Uiso   1.00
Cu967  Cu    0.50000   0.16667   0.88022   0.00000  Uiso   1.00
Cu968  Cu    0.50000   0.16666   0.78645   0.00000  Uiso   1.00
H969   H     0.43876   0.12388   0.70238   0.00000  Uiso   1.00
H970   H     0.56124   0.20946   0.96429   0.00000  Uiso   1.00
H971   H     0.43879   0.12388   0.94873   0.00000  Uiso   1.00
H972   H     0.56121   0.20945   0.71794   0.00000  Uiso   1.00
N973   N     0.50001   0.16668   0.95069   0.00000  Uiso   1.00
N974   N     0.49999   0.16666   0.71597   0.00000  Uiso   1.00
O975   O     0.50000   0.10655   0.87291   0.00000  Uiso   1.00
O976   O     0.50000   0.22678   0.79375   0.00000  Uiso   1.00
O977   O     0.50000   0.10654   0.79372   0.00000  Uiso   1.00
O978   O     0.50000   0.22679   0.87294   0.00000  Uiso   1.00
O979   O     0.42495   0.16667   0.86379   0.00000  Uiso   1.00
O980   O     0.57505   0.16666   0.80288   0.00000  Uiso   1.00
O981   O     0.42494   0.16666   0.78460   0.00000  Uiso   1.00
O982   O     0.57506   0.16667   0.88207   0.00000  Uiso   1.00
N983   N     0.65521   0.14894   0.76964   0.00000  Uiso   1.00
H984   H     0.66308   0.17013   0.74395   0.00000  Uiso   1.00
H985   H     0.33750   0.12045   0.76214   0.00000  Uiso   1.00
N986   N     0.34479   0.18439   0.89702   0.00000  Uiso   1.00
H987   H     0.33692   0.16320   0.92272   0.00000  Uiso   1.00
H988   H     0.66250   0.21288   0.90452   0.00000  Uiso   1.00
N989   N     0.57218   0.04455   0.78737   0.00000  Uiso   1.00
H990   H     0.60891   0.03654   0.80300   0.00000  Uiso   1.00
H991   H     0.56799   0.03658   0.75158   0.00000  Uiso   1.00
N992   N     0.42782   0.28878   0.87930   0.00000  Uiso   1.00
H993   H     0.39109   0.29679   0.86366   0.00000  Uiso   1.00
H994   H     0.43201   0.29676   0.91508   0.00000  Uiso   1.00
N995   N     0.57220   0.28914   0.78740   0.00000  Uiso   1.00
H996   H     0.60893   0.29740   0.80299   0.00000  Uiso   1.00
H997   H     0.56796   0.29701   0.75160   0.00000  Uiso   1.00
N998   N     0.42780   0.04419   0.87926   0.00000  Uiso   1.00
H999   H     0.39106   0.03593   0.86367   0.00000  Uiso   1.00
H1000  H     0.43204   0.03632   0.91507   0.00000  Uiso   1.00
C1001  C     0.83331   0.08747   0.83331   0.00000  Uiso   1.00
C1002  C     0.83336   0.24586   0.83335   0.00000  Uiso   1.00
C1003  C     0.73479   0.16643   0.82140   0.00000  Uiso   1.00
C1004  C     0.93188   0.16690   0.84527   0.00000  Uiso   1.00
C1005  C     0.67991   0.16289   0.81502   0.00000  Uiso   1.00
C1006  C     0.98676   0.17044   0.85165   0.00000  Uiso   1.00
C1007  C     0.86884   0.02171   0.80986   0.00000  Uiso   1.00
C1008  C     0.79783   0.31162   0.85681   0.00000  Uiso   1.00
C1009  C     0.86886   0.31179   0.80988   0.00000  Uiso   1.00
C1010  C     0.79781   0.02154   0.85679   0.00000  Uiso   1.00
C1011  C     0.83335   0.29049   0.83336   0.00000  Uiso   1.00
C1012  C     0.83331   0.04284   0.83331   0.00000  Uiso   1.00
C1013  C     0.79930   0.14294   0.68715   0.00000  Uiso   1.00
C1014  C     0.86736   0.19040   0.97952   0.00000  Uiso   1.00
C1015  C     0.79932   0.14294   0.97087   0.00000  Uiso   1.00
C1016  C     0.86735   0.19039   0.69579   0.00000  Uiso   1.00
Cu1017 Cu    0.83333   0.16667   0.88022   0.00000  Uiso   1.00
Cu1018 Cu    0.83333   0.16666   0.78645   0.00000  Uiso   1.00
H1019  H     0.77210   0.12388   0.70238   0.00000  Uiso   1.00
H1020  H     0.89457   0.20946   0.96429   0.00000  Uiso   1.00
H1021  H     0.77213   0.12388   0.94873   0.00000  Uiso   1.00
H1022  H     0.89454   0.20945   0.71794   0.00000  Uiso   1.00
N1023  N     0.83335   0.16668   0.95069   0.00000  Uiso   1.00
N1024  N     0.83332   0.16666   0.71597   0.00000  Uiso   1.00
O1025  O     0.83333   0.10655   0.87291   0.00000  Uiso   1.00
O1026  O     0.83334   0.22678   0.79375   0.00000  Uiso   1.00
O1027  O     0.83333   0.10654   0.79372   0.00000  Uiso   1.00
O1028  O     0.83334   0.22679   0.87294   0.00000  Uiso   1.00
O1029  O     0.75828   0.16667   0.86379   0.00000  Uiso   1.00
O1030  O     0.90839   0.16666   0.80288   0.00000  Uiso   1.00
O1031  O     0.75828   0.16666   0.78460   0.00000  Uiso   1.00
O1032  O     0.90839   0.16667   0.88207   0.00000  Uiso   1.00
N1033  N     0.98854   0.14894   0.76964   0.00000  Uiso   1.00
H1034  H     0.99641   0.17013   0.74395   0.00000  Uiso   1.00
H1035  H     0.67083   0.12045   0.76214   0.00000  Uiso   1.00
N1036  N     0.67813   0.18439   0.89702   0.00000  Uiso   1.00
H1037  H     0.67025   0.16320   0.92272   0.00000  Uiso   1.00
H1038  H     0.99584   0.21288   0.90452   0.00000  Uiso   1.00
N1039  N     0.90551   0.04455   0.78737   0.00000  Uiso   1.00
H1040  H     0.94225   0.03654   0.80300   0.00000  Uiso   1.00
H1041  H     0.90132   0.03658   0.75158   0.00000  Uiso   1.00
N1042  N     0.76115   0.28878   0.87930   0.00000  Uiso   1.00
H1043  H     0.72442   0.29679   0.86366   0.00000  Uiso   1.00
H1044  H     0.76535   0.29676   0.91508   0.00000  Uiso   1.00
N1045  N     0.90554   0.28914   0.78740   0.00000  Uiso   1.00
H1046  H     0.94227   0.29740   0.80299   0.00000  Uiso   1.00
H1047  H     0.90129   0.29701   0.75160   0.00000  Uiso   1.00
N1048  N     0.76113   0.04419   0.87926   0.00000  Uiso   1.00
H1049  H     0.72440   0.03593   0.86367   0.00000  Uiso   1.00
H1050  H     0.76538   0.03632   0.91507   0.00000  Uiso   1.00
C1051  C     0.16664   0.42080   0.83331   0.00000  Uiso   1.00
C1052  C     0.16669   0.57920   0.83335   0.00000  Uiso   1.00
C1053  C     0.06812   0.49976   0.82140   0.00000  Uiso   1.00
C1054  C     0.26521   0.50024   0.84527   0.00000  Uiso   1.00
C1055  C     0.01324   0.49623   0.81502   0.00000  Uiso   1.00
C1056  C     0.32009   0.50377   0.85165   0.00000  Uiso   1.00
C1057  C     0.20217   0.35505   0.80986   0.00000  Uiso   1.00
C1058  C     0.13116   0.64495   0.85681   0.00000  Uiso   1.00
C1059  C     0.20219   0.64513   0.80988   0.00000  Uiso   1.00
C1060  C     0.13114   0.35487   0.85679   0.00000  Uiso   1.00
C1061  C     0.16669   0.62383   0.83336   0.00000  Uiso   1.00
C1062  C     0.16665   0.37617   0.83331   0.00000  Uiso   1.00
C1063  C     0.13264   0.47627   0.68715   0.00000  Uiso   1.00
C1064  C     0.20070   0.52373   0.97952   0.00000  Uiso   1.00
C1065  C     0.13265   0.47628   0.97087   0.00000  Uiso   1.00
C1066  C     0.20068   0.52372   0.69579   0.00000  Uiso   1.00
Cu1067 Cu    0.16667   0.50001   0.88022   0.00000  Uiso   1.00
Cu1068 Cu    0.16667   0.49999   0.78645   0.00000  Uiso   1.00
H1069  H     0.10543   0.45721   0.70238   0.00000  Uiso   1.00
H1070  H     0.22790   0.54279   0.96429   0.00000  Uiso   1.00
H1071  H     0.10546   0.45721   0.94873   0.00000  Uiso   1.00
H1072  H     0.22787   0.54279   0.71794   0.00000  Uiso   1.00
N1073  N     0.16668   0.50001   0.95069   0.00000  Uiso   1.00
N1074  N     0.16665   0.49999   0.71597   0.00000  Uiso   1.00
O1075  O     0.16666   0.43989   0.87291   0.00000  Uiso   1.00
O1076  O     0.16667   0.56011   0.79375   0.00000  Uiso   1.00
O1077  O     0.16666   0.43988   0.79372   0.00000  Uiso   1.00
O1078  O     0.16667   0.56012   0.87294   0.00000  Uiso   1.00
O1079  O     0.09161   0.50000   0.86379   0.00000  Uiso   1.00
O1080  O     0.24172   0.50000   0.80288   0.00000  Uiso   1.00
O1081  O     0.09161   0.49999   0.78460   0.00000  Uiso   1.00
O1082  O     0.24172   0.50001   0.88207   0.00000  Uiso   1.00
N1083  N     0.32187   0.48228   0.76964   0.00000  Uiso   1.00
H1084  H     0.32975   0.50347   0.74395   0.00000  Uiso   1.00
H1085  H     0.00416   0.45379   0.76214   0.00000  Uiso   1.00
N1086  N     0.01146   0.51772   0.89702   0.00000  Uiso   1.00
H1087  H     0.00359   0.49653   0.92272   0.00000  Uiso   1.00
H1088  H     0.32917   0.54621   0.90452   0.00000  Uiso   1.00
N1089  N     0.23884   0.37788   0.78737   0.00000  Uiso   1.00
H1090  H     0.27558   0.36988   0.80300   0.00000  Uiso   1.00
H1091  H     0.23465   0.36991   0.75158   0.00000  Uiso   1.00
N1092  N     0.09449   0.62212   0.87930   0.00000  Uiso   1.00
H1093  H     0.05775   0.63012   0.86366   0.00000  Uiso   1.00
H1094  H     0.09868   0.63009   0.91508   0.00000  Uiso   1.00
N1095  N     0.23887   0.62247   0.78740   0.00000  Uiso   1.00
H1096  H     0.27560   0.63073   0.80299   0.00000  Uiso   1.00
H1097  H     0.23462   0.63034   0.75160   0.00000  Uiso   1.00
N1098  N     0.09446   0.37753   0.87926   0.00000  Uiso   1.00
H1099  H     0.05773   0.36927   0.86367   0.00000  Uiso   1.00
H1100  H     0.09871   0.36966   0.91507   0.00000  Uiso   1.00
C1101  C     0.49998   0.42080   0.83331   0.00000  Uiso   1.00
C1102  C     0.50002   0.57920   0.83335   0.00000  Uiso   1.00
C1103  C     0.40146   0.49976   0.82140   0.00000  Uiso   1.00
C1104  C     0.59854   0.50024   0.84527   0.00000  Uiso   1.00
C1105  C     0.34657   0.49623   0.81502   0.00000  Uiso   1.00
C1106  C     0.65343   0.50377   0.85165   0.00000  Uiso   1.00
C1107  C     0.53551   0.35505   0.80986   0.00000  Uiso   1.00
C1108  C     0.46449   0.64495   0.85681   0.00000  Uiso   1.00
C1109  C     0.53553   0.64513   0.80988   0.00000  Uiso   1.00
C1110  C     0.46447   0.35487   0.85679   0.00000  Uiso   1.00
C1111  C     0.50002   0.62383   0.83336   0.00000  Uiso   1.00
C1112  C     0.49998   0.37617   0.83331   0.00000  Uiso   1.00
C1113  C     0.46597   0.47627   0.68715   0.00000  Uiso   1.00
C1114  C     0.53403   0.52373   0.97952   0.00000  Uiso   1.00
C1115  C     0.46599   0.47628   0.97087   0.00000  Uiso   1.00
C1116  C     0.53401   0.52372   0.69579   0.00000  Uiso   1.00
Cu1117 Cu    0.50000   0.50001   0.88022   0.00000  Uiso   1.00
Cu1118 Cu    0.50000   0.49999   0.78645   0.00000  Uiso   1.00
H1119  H     0.43876   0.45721   0.70238   0.00000  Uiso   1.00
H1120  H     0.56124   0.54279   0.96429   0.00000  Uiso   1.00
H1121  H     0.43879   0.45721   0.94873   0.00000  Uiso   1.00
H1122  H     0.56121   0.54279   0.71794   0.00000  Uiso   1.00
N1123  N     0.50001   0.50001   0.95069   0.00000  Uiso   1.00
N1124  N     0.49999   0.49999   0.71597   0.00000  Uiso   1.00
O1125  O     0.50000   0.43989   0.87291   0.00000  Uiso   1.00
O1126  O     0.50000   0.56011   0.79375   0.00000  Uiso   1.00
O1127  O     0.50000   0.43988   0.79372   0.00000  Uiso   1.00
O1128  O     0.50000   0.56012   0.87294   0.00000  Uiso   1.00
O1129  O     0.42495   0.50000   0.86379   0.00000  Uiso   1.00
O1130  O     0.57505   0.50000   0.80288   0.00000  Uiso   1.00
O1131  O     0.42494   0.49999   0.78460   0.00000  Uiso   1.00
O1132  O     0.57506   0.50001   0.88207   0.00000  Uiso   1.00
N1133  N     0.65521   0.48228   0.76964   0.00000  Uiso   1.00
H1134  H     0.66308   0.50347   0.74395   0.00000  Uiso   1.00
H1135  H     0.33750   0.45379   0.76214   0.00000  Uiso   1.00
N1136  N     0.34479   0.51772   0.89702   0.00000  Uiso   1.00
H1137  H     0.33692   0.49653   0.92272   0.00000  Uiso   1.00
H1138  H     0.66250   0.54621   0.90452   0.00000  Uiso   1.00
N1139  N     0.57218   0.37788   0.78737   0.00000  Uiso   1.00
H1140  H     0.60891   0.36988   0.80300   0.00000  Uiso   1.00
H1141  H     0.56799   0.36991   0.75158   0.00000  Uiso   1.00
N1142  N     0.42782   0.62212   0.87930   0.00000  Uiso   1.00
H1143  H     0.39109   0.63012   0.86366   0.00000  Uiso   1.00
H1144  H     0.43201   0.63009   0.91508   0.00000  Uiso   1.00
N1145  N     0.57220   0.62247   0.78740   0.00000  Uiso   1.00
H1146  H     0.60893   0.63073   0.80299   0.00000  Uiso   1.00
H1147  H     0.56796   0.63034   0.75160   0.00000  Uiso   1.00
N1148  N     0.42780   0.37753   0.87926   0.00000  Uiso   1.00
H1149  H     0.39106   0.36927   0.86367   0.00000  Uiso   1.00
H1150  H     0.43204   0.36966   0.91507   0.00000  Uiso   1.00
C1151  C     0.83331   0.42080   0.83331   0.00000  Uiso   1.00
C1152  C     0.83336   0.57920   0.83335   0.00000  Uiso   1.00
C1153  C     0.73479   0.49976   0.82140   0.00000  Uiso   1.00
C1154  C     0.93188   0.50024   0.84527   0.00000  Uiso   1.00
C1155  C     0.67991   0.49623   0.81502   0.00000  Uiso   1.00
C1156  C     0.98676   0.50377   0.85165   0.00000  Uiso   1.00
C1157  C     0.86884   0.35505   0.80986   0.00000  Uiso   1.00
C1158  C     0.79783   0.64495   0.85681   0.00000  Uiso   1.00
C1159  C     0.86886   0.64513   0.80988   0.00000  Uiso   1.00
C1160  C     0.79781   0.35487   0.85679   0.00000  Uiso   1.00
C1161  C     0.83335   0.62383   0.83336   0.00000  Uiso   1.00
C1162  C     0.83331   0.37617   0.83331   0.00000  Uiso   1.00
C1163  C     0.79930   0.47627   0.68715   0.00000  Uiso   1.00
C1164  C     0.86736   0.52373   0.97952   0.00000  Uiso   1.00
C1165  C     0.79932   0.47628   0.97087   0.00000  Uiso   1.00
C1166  C     0.86735   0.52372   0.69579   0.00000  Uiso   1.00
Cu1167 Cu    0.83333   0.50001   0.88022   0.00000  Uiso   1.00
Cu1168 Cu    0.83333   0.49999   0.78645   0.00000  Uiso   1.00
H1169  H     0.77210   0.45721   0.70238   0.00000  Uiso   1.00
H1170  H     0.89457   0.54279   0.96429   0.00000  Uiso   1.00
H1171  H     0.77213   0.45721   0.94873   0.00000  Uiso   1.00
H1172  H     0.89454   0.54279   0.71794   0.00000  Uiso   1.00
N1173  N     0.83335   0.50001   0.95069   0.00000  Uiso   1.00
N1174  N     0.83332   0.49999   0.71597   0.00000  Uiso   1.00
O1175  O     0.83333   0.43989   0.87291   0.00000  Uiso   1.00
O1176  O     0.83334   0.56011   0.79375   0.00000  Uiso   1.00
O1177  O     0.83333   0.43988   0.79372   0.00000  Uiso   1.00
O1178  O     0.83334   0.56012   0.87294   0.00000  Uiso   1.00
O1179  O     0.75828   0.50000   0.86379   0.00000  Uiso   1.00
O1180  O     0.90839   0.50000   0.80288   0.00000  Uiso   1.00
O1181  O     0.75828   0.49999   0.78460   0.00000  Uiso   1.00
O1182  O     0.90839   0.50001   0.88207   0.00000  Uiso   1.00
N1183  N     0.98854   0.48228   0.76964   0.00000  Uiso   1.00
H1184  H     0.99641   0.50347   0.74395   0.00000  Uiso   1.00
H1185  H     0.67083   0.45379   0.76214   0.00000  Uiso   1.00
N1186  N     0.67813   0.51772   0.89702   0.00000  Uiso   1.00
H1187  H     0.67025   0.49653   0.92272   0.00000  Uiso   1.00
H1188  H     0.99584   0.54621   0.90452   0.00000  Uiso   1.00
N1189  N     0.90551   0.37788   0.78737   0.00000  Uiso   1.00
H1190  H     0.94225   0.36988   0.80300   0.00000  Uiso   1.00
H1191  H     0.90132   0.36991   0.75158   0.00000  Uiso   1.00
N1192  N     0.76115   0.62212   0.87930   0.00000  Uiso   1.00
H1193  H     0.72442   0.63012   0.86366   0.00000  Uiso   1.00
H1194  H     0.76535   0.63009   0.91508   0.00000  Uiso   1.00
N1195  N     0.90554   0.62247   0.78740   0.00000  Uiso   1.00
H1196  H     0.94227   0.63073   0.80299   0.00000  Uiso   1.00
H1197  H     0.90129   0.63034   0.75160   0.00000  Uiso   1.00
N1198  N     0.76113   0.37753   0.87926   0.00000  Uiso   1.00
H1199  H     0.72440   0.36927   0.86367   0.00000  Uiso   1.00
H1200  H     0.76538   0.36966   0.91507   0.00000  Uiso   1.00
C1201  C     0.16664   0.75414   0.83331   0.00000  Uiso   1.00
C1202  C     0.16669   0.91253   0.83335   0.00000  Uiso   1.00
C1203  C     0.06812   0.83310   0.82140   0.00000  Uiso   1.00
C1204  C     0.26521   0.83357   0.84527   0.00000  Uiso   1.00
C1205  C     0.01324   0.82956   0.81502   0.00000  Uiso   1.00
C1206  C     0.32009   0.83711   0.85165   0.00000  Uiso   1.00
C1207  C     0.20217   0.68838   0.80986   0.00000  Uiso   1.00
C1208  C     0.13116   0.97829   0.85681   0.00000  Uiso   1.00
C1209  C     0.20219   0.97846   0.80988   0.00000  Uiso   1.00
C1210  C     0.13114   0.68821   0.85679   0.00000  Uiso   1.00
C1211  C     0.16669   0.95716   0.83336   0.00000  Uiso   1.00
C1212  C     0.16665   0.70951   0.83331   0.00000  Uiso   1.00
C1213  C     0.13264   0.80960   0.68715   0.00000  Uiso   1.00
C1214  C     0.20070   0.85706   0.97952   0.00000  Uiso   1.00
C1215  C     0.13265   0.80961   0.97087   0.00000  Uiso   1.00
C1216  C     0.20068   0.85706   0.69579   0.00000  Uiso   1.00
Cu1217 Cu    0.16667   0.83334   0.88022   0.00000  Uiso   1.00
Cu1218 Cu    0.16667   0.83333   0.78645   0.00000  Uiso   1.00
H1219  H     0.10543   0.79054   0.70238   0.00000  Uiso   1.00
H1220  H     0.22790   0.87612   0.96429   0.00000  Uiso   1.00
H1221  H     0.10546   0.79055   0.94873   0.00000  Uiso   1.00
H1222  H     0.22787   0.87612   0.71794   0.00000  Uiso   1.00
N1223  N     0.16668   0.83334   0.95069   0.00000  Uiso   1.00
N1224  N     0.16665   0.83332   0.71597   0.00000  Uiso   1.00
O1225  O     0.16666   0.77322   0.87291   0.00000  Uiso   1.00
O1226  O     0.16667   0.89345   0.79375   0.00000  Uiso   1.00
O1227  O     0.16666   0.77321   0.79372   0.00000  Uiso   1.00
O1228  O     0.16667   0.89346   0.87294   0.00000  Uiso   1.00
O1229  O     0.09161   0.83334   0.86379   0.00000  Uiso   1.00
O1230  O     0.24172   0.83333   0.80288   0.00000  Uiso   1.00
O1231  O     0.09161   0.83333   0.78460   0.00000  Uiso   1.00
O1232  O     0.24172   0.83334   0.88207   0.00000  Uiso   1.00
N1233  N     0.32187   0.81561   0.76964   0.00000  Uiso   1.00
H1234  H     0.32975   0.83680   0.74395   0.00000  Uiso   1.00
H1235  H     0.00416   0.78712   0.76214   0.00000  Uiso   1.00
N1236  N     0.01146   0.85106   0.89702   0.00000  Uiso   1.00
H1237  H     0.00359   0.82986   0.92272   0.00000  Uiso   1.00
H1238  H     0.32917   0.87955   0.90452   0.00000  Uiso   1.00
N1239  N     0.23884   0.71122   0.78737   0.00000  Uiso   1.00
H1240  H     0.27558   0.70321   0.80300   0.00000  Uiso   1.00
H1241  H     0.23465   0.70324   0.75158   0.00000  Uiso   1.00
N1242  N     0.09449   0.95545   0.87930   0.00000  Uiso   1.00
H1243  H     0.05775   0.96346   0.86366   0.00000  Uiso   1.00
H1244  H     0.09868   0.96342   0.91508   0.00000  Uiso   1.00
N1245  N     0.23887   0.95581   0.78740   0.00000  Uiso   1.00
H1246  H     0.27560   0.96407   0.80299   0.00000  Uiso   1.00
H1247  H     0.23462   0.96368   0.75160   0.00000  Uiso   1.00
N1248  N     0.09446   0.71086   0.87926   0.00000  Uiso   1.00
H1249  H     0.05773   0.70260   0.86367   0.00000  Uiso   1.00
H1250  H     0.09871   0.70299   0.91507   0.00000  Uiso   1.00
C1251  C     0.49998   0.75414   0.83331   0.00000  Uiso   1.00
C1252  C     0.50002   0.91253   0.83335   0.00000  Uiso   1.00
C1253  C     0.40146   0.83310   0.82140   0.00000  Uiso   1.00
C1254  C     0.59854   0.83357   0.84527   0.00000  Uiso   1.00
C1255  C     0.34657   0.82956   0.81502   0.00000  Uiso   1.00
C1256  C     0.65343   0.83711   0.85165   0.00000  Uiso   1.00
C1257  C     0.53551   0.68838   0.80986   0.00000  Uiso   1.00
C1258  C     0.46449   0.97829   0.85681   0.00000  Uiso   1.00
C1259  C     0.53553   0.97846   0.80988   0.00000  Uiso   1.00
C1260  C     0.46447   0.68821   0.85679   0.00000  Uiso   1.00
C1261  C     0.50002   0.95716   0.83336   0.00000  Uiso   1.00
C1262  C     0.49998   0.70951   0.83331   0.00000  Uiso   1.00
C1263  C     0.46597   0.80960   0.68715   0.00000  Uiso   1.00
C1264  C     0.53403   0.85706   0.97952   0.00000  Uiso   1.00
C1265  C     0.46599   0.80961   0.97087   0.00000  Uiso   1.00
C1266  C     0.53401   0.85706   0.69579   0.00000  Uiso   1.00
Cu1267 Cu    0.50000   0.83334   0.88022   0.00000  Uiso   1.00
Cu1268 Cu    0.50000   0.83333   0.78645   0.00000  Uiso   1.00
H1269  H     0.43876   0.79054   0.70238   0.00000  Uiso   1.00
H1270  H     0.56124   0.87612   0.96429   0.00000  Uiso   1.00
H1271  H     0.43879   0.79055   0.94873   0.00000  Uiso   1.00
H1272  H     0.56121   0.87612   0.71794   0.00000  Uiso   1.00
N1273  N     0.50001   0.83334   0.95069   0.00000  Uiso   1.00
N1274  N     0.49999   0.83332   0.71597   0.00000  Uiso   1.00
O1275  O     0.50000   0.77322   0.87291   0.00000  Uiso   1.00
O1276  O     0.50000   0.89345   0.79375   0.00000  Uiso   1.00
O1277  O     0.50000   0.77321   0.79372   0.00000  Uiso   1.00
O1278  O     0.50000   0.89346   0.87294   0.00000  Uiso   1.00
O1279  O     0.42495   0.83334   0.86379   0.00000  Uiso   1.00
O1280  O     0.57505   0.83333   0.80288   0.00000  Uiso   1.00
O1281  O     0.42494   0.83333   0.78460   0.00000  Uiso   1.00
O1282  O     0.57506   0.83334   0.88207   0.00000  Uiso   1.00
N1283  N     0.65521   0.81561   0.76964   0.00000  Uiso   1.00
H1284  H     0.66308   0.83680   0.74395   0.00000  Uiso   1.00
H1285  H     0.33750   0.78712   0.76214   0.00000  Uiso   1.00
N1286  N     0.34479   0.85106   0.89702   0.00000  Uiso   1.00
H1287  H     0.33692   0.82986   0.92272   0.00000  Uiso   1.00
H1288  H     0.66250   0.87955   0.90452   0.00000  Uiso   1.00
N1289  N     0.57218   0.71122   0.78737   0.00000  Uiso   1.00
H1290  H     0.60891   0.70321   0.80300   0.00000  Uiso   1.00
H1291  H     0.56799   0.70324   0.75158   0.00000  Uiso   1.00
N1292  N     0.42782   0.95545   0.87930   0.00000  Uiso   1.00
H1293  H     0.39109   0.96346   0.86366   0.00000  Uiso   1.00
H1294  H     0.43201   0.96342   0.91508   0.00000  Uiso   1.00
N1295  N     0.57220   0.95581   0.78740   0.00000  Uiso   1.00
H1296  H     0.60893   0.96407   0.80299   0.00000  Uiso   1.00
H1297  H     0.56796   0.96368   0.75160   0.00000  Uiso   1.00
N1298  N     0.42780   0.71086   0.87926   0.00000  Uiso   1.00
H1299  H     0.39106   0.70260   0.86367   0.00000  Uiso   1.00
H1300  H     0.43204   0.70299   0.91507   0.00000  Uiso   1.00
C1301  C     0.83331   0.75414   0.83331   0.00000  Uiso   1.00
C1302  C     0.83336   0.91253   0.83335   0.00000  Uiso   1.00
C1303  C     0.73479   0.83310   0.82140   0.00000  Uiso   1.00
C1304  C     0.93188   0.83357   0.84527   0.00000  Uiso   1.00
C1305  C     0.67991   0.82956   0.81502   0.00000  Uiso   1.00
C1306  C     0.98676   0.83711   0.85165   0.00000  Uiso   1.00
C1307  C     0.86884   0.68838   0.80986   0.00000  Uiso   1.00
C1308  C     0.79783   0.97829   0.85681   0.00000  Uiso   1.00
C1309  C     0.86886   0.97846   0.80988   0.00000  Uiso   1.00
C1310  C     0.79781   0.68821   0.85679   0.00000  Uiso   1.00
C1311  C     0.83335   0.95716   0.83336   0.00000  Uiso   1.00
C1312  C     0.83331   0.70951   0.83331   0.00000  Uiso   1.00
C1313  C     0.79930   0.80960   0.68715   0.00000  Uiso   1.00
C1314  C     0.86736   0.85706   0.97952   0.00000  Uiso   1.00
C1315  C     0.79932   0.80961   0.97087   0.00000  Uiso   1.00
C1316  C     0.86735   0.85706   0.69579   0.00000  Uiso   1.00
Cu1317 Cu    0.83333   0.83334   0.88022   0.00000  Uiso   1.00
Cu1318 Cu    0.83333   0.83333   0.78645   0.00000  Uiso   1.00
H1319  H     0.77210   0.79054   0.70238   0.00000  Uiso   1.00
H1320  H     0.89457   0.87612   0.96429   0.00000  Uiso   1.00
H1321  H     0.77213   0.79055   0.94873   0.00000  Uiso   1.00
H1322  H     0.89454   0.87612   0.71794   0.00000  Uiso   1.00
N1323  N     0.83335   0.83334   0.95069   0.00000  Uiso   1.00
N1324  N     0.83332   0.83332   0.71597   0.00000  Uiso   1.00
O1325  O     0.83333   0.77322   0.87291   0.00000  Uiso   1.00
O1326  O     0.83334   0.89345   0.79375   0.00000  Uiso   1.00
O1327  O     0.83333   0.77321   0.79372   0.00000  Uiso   1.00
O1328  O     0.83334   0.89346   0.87294   0.00000  Uiso   1.00
O1329  O     0.75828   0.83334   0.86379   0.00000  Uiso   1.00
O1330  O     0.90839   0.83333   0.80288   0.00000  Uiso   1.00
O1331  O     0.75828   0.83333   0.78460   0.00000  Uiso   1.00
O1332  O     0.90839   0.83334   0.88207   0.00000  Uiso   1.00
N1333  N     0.98854   0.81561   0.76964   0.00000  Uiso   1.00
H1334  H     0.99641   0.83680   0.74395   0.00000  Uiso   1.00
H1335  H     0.67083   0.78712   0.76214   0.00000  Uiso   1.00
N1336  N     0.67813   0.85106   0.89702   0.00000  Uiso   1.00
H1337  H     0.67025   0.82986   0.92272   0.00000  Uiso   1.00
H1338  H     0.99584   0.87955   0.90452   0.00000  Uiso   1.00
N1339  N     0.90551   0.71122   0.78737   0.00000  Uiso   1.00
H1340  H     0.94225   0.70321   0.80300   0.00000  Uiso   1.00
H1341  H     0.90132   0.70324   0.75158   0.00000  Uiso   1.00
N1342  N     0.76115   0.95545   0.87930   0.00000  Uiso   1.00
H1343  H     0.72442   0.96346   0.86366   0.00000  Uiso   1.00
H1344  H     0.76535   0.96342   0.91508   0.00000  Uiso   1.00
N1345  N     0.90554   0.95581   0.78740   0.00000  Uiso   1.00
H1346  H     0.94227   0.96407   0.80299   0.00000  Uiso   1.00
H1347  H     0.90129   0.96368   0.75160   0.00000  Uiso   1.00
N1348  N     0.76113   0.71086   0.87926   0.00000  Uiso   1.00
H1349  H     0.72440   0.70260   0.86367   0.00000  Uiso   1.00
H1350  H     0.76538   0.70299   0.91507   0.00000  Uiso   1.00
loop_
_geom_bond_atom_site_label_1
_geom_bond_atom_site_label_2
_geom_bond_distance
_geom_bond_site_symmetry_2
_ccdc_geom_bond_type
C1     O25     1.289   .     A
C1     O27     1.288   .     A
C1     C12     1.445   .     S
C2     O26     1.289   .     A
C2     C11     1.445   .     S
C2     O28     1.288   .     A
C3     O31     1.292   .     A
C3     O29     1.283   .     A
C3     C5      1.441   .     S
C4     O32     1.292   .     A
C4     C6      1.441   .     S
C4     O30     1.283   .     A
C5     C106    1.358   1_455 S
C5     N133    1.441   1_455 S
C6     C55     1.358   .     S
C6     N86     1.441   .     S
C7     C12     1.405   .     A
C7     N39     1.437   .     S
C7     C309    1.401   1_545 S
C8     C11     1.405   .     A
C8     N42     1.437   .     S
C8     C160    1.401   .     S
C9     N45     1.437   .     S
C9     C11     1.405   .     A
C9     C157    1.401   .     S
C10    C12     1.405   .     A
C10    N48     1.437   .     S
C10    C308    1.401   1_545 S
C13    H19     1.082   .     S
C13    N24     1.367   .     A
C13    C915    1.417   1_554 S
C14    N23     1.367   .     A
C14    H20     1.082   .     S
C14    C466    1.417   .     S
C15    N23     1.367   .     A
C15    H21     1.082   .     S
C15    C463    1.417   .     S
C16    H22     1.082   .     S
C16    N24     1.367   .     A
C16    C914    1.417   1_554 S
Cu17   O29     1.975   .     S
Cu17   O25     1.958   .     S
Cu17   N23     2.012   .     S
Cu17   Cu18    2.678   .     S
Cu17   O32     1.977   .     S
Cu17   O28     1.958   .     S
Cu18   O30     1.975   .     S
Cu18   O26     1.958   .     S
Cu18   N24     2.012   .     S
Cu18   O31     1.977   .     S
Cu18   O27     1.958   .     S
N33    H34     1.046   .     S
N33    C55     1.441   .     S
N33    H85     1.046   .     S
H35    N133    1.046   1_455 S
N36    H37     1.046   .     S
N36    C106    1.441   1_455 S
N36    H138    1.046   1_455 S
H38    N86     1.046   .     S
N39    H41     1.045   .     S
N39    H40     1.045   .     S
N42    H44     1.045   .     S
N42    H43     1.045   .     S
N45    H46     1.045   .     S
N45    H47     1.045   .     S
N48    H50     1.045   .     S
N48    H49     1.045   .     S
C51    O75     1.289   .     A
C51    O77     1.288   .     A
C51    C62     1.445   .     S
C52    O76     1.289   .     A
C52    C61     1.445   .     S
C52    O78     1.288   .     A
C53    O81     1.292   .     A
C53    O79     1.283   .     A
C53    C55     1.441   .     S
C54    O82     1.292   .     A
C54    C56     1.441   .     S
C54    O80     1.283   .     A
C56    C105    1.358   .     S
C56    N136    1.441   .     S
C57    C62     1.405   .     A
C57    N89     1.437   .     S
C57    C359    1.401   1_545 S
C58    C61     1.405   .     A
C58    N92     1.437   .     S
C58    C210    1.401   .     S
C59    N95     1.437   .     S
C59    C61     1.405   .     A
C59    C207    1.401   .     S
C60    C62     1.405   .     A
C60    N98     1.437   .     S
C60    C358    1.401   1_545 S
C63    H69     1.082   .     S
C63    N74     1.367   .     A
C63    C965    1.417   1_554 S
C64    N73     1.367   .     A
C64    H70     1.082   .     S
C64    C516    1.417   .     S
C65    N73     1.367   .     A
C65    H71     1.082   .     S
C65    C513    1.417   .     S
C66    H72     1.082   .     S
C66    N74     1.367   .     A
C66    C964    1.417   1_554 S
Cu67   O79     1.975   .     S
Cu67   O75     1.958   .     S
Cu67   N73     2.012   .     S
Cu67   Cu68    2.678   .     S
Cu67   O82     1.977   .     S
Cu67   O78     1.958   .     S
Cu68   O80     1.975   .     S
Cu68   O76     1.958   .     S
Cu68   N74     2.012   .     S
Cu68   O81     1.977   .     S
Cu68   O77     1.958   .     S
N83    H84     1.046   .     S
N83    C105    1.441   .     S
N83    H135    1.046   .     S
N86    H87     1.046   .     S
H88    N136    1.046   .     S
N89    H91     1.045   .     S
N89    H90     1.045   .     S
N92    H94     1.045   .     S
N92    H93     1.045   .     S
N95    H96     1.045   .     S
N95    H97     1.045   .     S
N98    H100    1.045   .     S
N98    H99     1.045   .     S
C101   O125    1.289   .     A
C101   O127    1.288   .     A
C101   C112    1.445   .     S
C102   O126    1.289   .     A
C102   C111    1.445   .     S
C102   O128    1.288   .     A
C103   O131    1.292   .     A
C103   O129    1.283   .     A
C103   C105    1.441   .     S
C104   O132    1.292   .     A
C104   C106    1.441   .     S
C104   O130    1.283   .     A
C106   C5      1.358   1_655 S
C106   N36     1.441   1_655 S
C107   C112    1.405   .     A
C107   N139    1.437   .     S
C107   C409    1.401   1_545 S
C108   C111    1.405   .     A
C108   N142    1.437   .     S
C108   C260    1.401   .     S
C109   N145    1.437   .     S
C109   C111    1.405   .     A
C109   C257    1.401   .     S
C110   C112    1.405   .     A
C110   N148    1.437   .     S
C110   C408    1.401   1_545 S
C113   H119    1.082   .     S
C113   N124    1.367   .     A
C113   C1015   1.417   1_554 S
C114   N123    1.367   .     A
C114   H120    1.082   .     S
C114   C566    1.417   .     S
C115   N123    1.367   .     A
C115   H121    1.082   .     S
C115   C563    1.417   .     S
C116   H122    1.082   .     S
C116   N124    1.367   .     A
C116   C1014   1.417   1_554 S
Cu117  O129    1.975   .     S
Cu117  O125    1.958   .     S
Cu117  N123    2.012   .     S
Cu117  Cu118   2.678   .     S
Cu117  O132    1.977   .     S
Cu117  O128    1.958   .     S
Cu118  O130    1.975   .     S
Cu118  O126    1.958   .     S
Cu118  N124    2.012   .     S
Cu118  O131    1.977   .     S
Cu118  O127    1.958   .     S
N133   H134    1.046   .     S
N133   C5      1.441   1_655 S
N133   H35     1.046   1_655 S
N136   H137    1.046   .     S
H138   N36     1.046   1_655 S
N139   H141    1.045   .     S
N139   H140    1.045   .     S
N142   H144    1.045   .     S
N142   H143    1.045   .     S
N145   H146    1.045   .     S
N145   H147    1.045   .     S
N148   H150    1.045   .     S
N148   H149    1.045   .     S
C151   O175    1.289   .     A
C151   O177    1.288   .     A
C151   C162    1.445   .     S
C152   O176    1.289   .     A
C152   C161    1.445   .     S
C152   O178    1.288   .     A
C153   O181    1.292   .     A
C153   O179    1.283   .     A
C153   C155    1.441   .     S
C154   O182    1.292   .     A
C154   C156    1.441   .     S
C154   O180    1.283   .     A
C155   C256    1.358   1_455 S
C155   N283    1.441   1_455 S
C156   C205    1.358   .     S
C156   N236    1.441   .     S
C157   C162    1.405   .     A
C157   N189    1.437   .     S
C158   C161    1.405   .     A
C158   N192    1.437   .     S
C158   C310    1.401   .     S
C159   N195    1.437   .     S
C159   C161    1.405   .     A
C159   C307    1.401   .     S
C160   C162    1.405   .     A
C160   N198    1.437   .     S
C163   H169    1.082   .     S
C163   N174    1.367   .     A
C163   C1065   1.417   1_554 S
C164   N173    1.367   .     A
C164   H170    1.082   .     S
C164   C616    1.417   .     S
C165   N173    1.367   .     A
C165   H171    1.082   .     S
C165   C613    1.417   .     S
C166   H172    1.082   .     S
C166   N174    1.367   .     A
C166   C1064   1.417   1_554 S
Cu167  O179    1.975   .     S
Cu167  O175    1.958   .     S
Cu167  N173    2.012   .     S
Cu167  Cu168   2.678   .     S
Cu167  O182    1.977   .     S
Cu167  O178    1.958   .     S
Cu168  O180    1.975   .     S
Cu168  O176    1.958   .     S
Cu168  N174    2.012   .     S
Cu168  O181    1.977   .     S
Cu168  O177    1.958   .     S
N183   H184    1.046   .     S
N183   C205    1.441   .     S
N183   H235    1.046   .     S
H185   N283    1.046   1_455 S
N186   H187    1.046   .     S
N186   C256    1.441   1_455 S
N186   H288    1.046   1_455 S
H188   N236    1.046   .     S
N189   H191    1.045   .     S
N189   H190    1.045   .     S
N192   H194    1.045   .     S
N192   H193    1.045   .     S
N195   H196    1.045   .     S
N195   H197    1.045   .     S
N198   H200    1.045   .     S
N198   H199    1.045   .     S
C201   O225    1.289   .     A
C201   O227    1.288   .     A
C201   C212    1.445   .     S
C202   O226    1.289   .     A
C202   C211    1.445   .     S
C202   O228    1.288   .     A
C203   O231    1.292   .     A
C203   O229    1.283   .     A
C203   C205    1.441   .     S
C204   O232    1.292   .     A
C204   C206    1.441   .     S
C204   O230    1.283   .     A
C206   C255    1.358   .     S
C206   N286    1.441   .     S
C207   C212    1.405   .     A
C207   N239    1.437   .     S
C208   C211    1.405   .     A
C208   N242    1.437   .     S
C208   C360    1.401   .     S
C209   N245    1.437   .     S
C209   C211    1.405   .     A
C209   C357    1.401   .     S
C210   C212    1.405   .     A
C210   N248    1.437   .     S
C213   H219    1.082   .     S
C213   N224    1.367   .     A
C213   C1115   1.417   1_554 S
C214   N223    1.367   .     A
C214   H220    1.082   .     S
C214   C666    1.417   .     S
C215   N223    1.367   .     A
C215   H221    1.082   .     S
C215   C663    1.417   .     S
C216   H222    1.082   .     S
C216   N224    1.367   .     A
C216   C1114   1.417   1_554 S
Cu217  O229    1.975   .     S
Cu217  O225    1.958   .     S
Cu217  N223    2.012   .     S
Cu217  Cu218   2.678   .     S
Cu217  O232    1.977   .     S
Cu217  O228    1.958   .     S
Cu218  O230    1.975   .     S
Cu218  O226    1.958   .     S
Cu218  N224    2.012   .     S
Cu218  O231    1.977   .     S
Cu218  O227    1.958   .     S
N233   H234    1.046   .     S
N233   C255    1.441   .     S
N233   H285    1.046   .     S
N236   H237    1.046   .     S
H238   N286    1.046   .     S
N239   H241    1.045   .     S
N239   H240    1.045   .     S
N242   H244    1.045   .     S
N242   H243    1.045   .     S
N245   H246    1.045   .     S
N245   H247    1.045   .     S
N248   H250    1.045   .     S
N248   H249    1.045   .     S
C251   O275    1.289   .     A
C251   O277    1.288   .     A
C251   C262    1.445   .     S
C252   O276    1.289   .     A
C252   C261    1.445   .     S
C252   O278    1.288   .     A
C253   O281    1.292   .     A
C253   O279    1.283   .     A
C253   C255    1.441   .     S
C254   O282    1.292   .     A
C254   C256    1.441   .     S
C254   O280    1.283   .     A
C256   C155    1.358   1_655 S
C256   N186    1.441   1_655 S
C257   C262    1.405   .     A
C257   N289    1.437   .     S
C258   C261    1.405   .     A
C258   N292    1.437   .     S
C258   C410    1.401   .     S
C259   N295    1.437   .     S
C259   C261    1.405   .     A
C259   C407    1.401   .     S
C260   C262    1.405   .     A
C260   N298    1.437   .     S
C263   H269    1.082   .     S
C263   N274    1.367   .     A
C263   C1165   1.417   1_554 S
C264   N273    1.367   .     A
C264   H270    1.082   .     S
C264   C716    1.417   .     S
C265   N273    1.367   .     A
C265   H271    1.082   .     S
C265   C713    1.417   .     S
C266   H272    1.082   .     S
C266   N274    1.367   .     A
C266   C1164   1.417   1_554 S
Cu267  O279    1.975   .     S
Cu267  O275    1.958   .     S
Cu267  N273    2.012   .     S
Cu267  Cu268   2.678   .     S
Cu267  O282    1.977   .     S
Cu267  O278    1.958   .     S
Cu268  O280    1.975   .     S
Cu268  O276    1.958   .     S
Cu268  N274    2.012   .     S
Cu268  O281    1.977   .     S
Cu268  O277    1.958   .     S
N283   H284    1.046   .     S
N283   C155    1.441   1_655 S
N283   H185    1.046   1_655 S
N286   H287    1.046   .     S
H288   N186    1.046   1_655 S
N289   H291    1.045   .     S
N289   H290    1.045   .     S
N292   H294    1.045   .     S
N292   H293    1.045   .     S
N295   H296    1.045   .     S
N295   H297    1.045   .     S
N298   H300    1.045   .     S
N298   H299    1.045   .     S
C301   O325    1.289   .     A
C301   O327    1.288   .     A
C301   C312    1.445   .     S
C302   O326    1.289   .     A
C302   C311    1.445   .     S
C302   O328    1.288   .     A
C303   O331    1.292   .     A
C303   O329    1.283   .     A
C303   C305    1.441   .     S
C304   O332    1.292   .     A
C304   C306    1.441   .     S
C304   O330    1.283   .     A
C305   C406    1.358   1_455 S
C305   N433    1.441   1_455 S
C306   C355    1.358   .     S
C306   N386    1.441   .     S
C307   C312    1.405   .     A
C307   N339    1.437   .     S
C308   C311    1.405   .     A
C308   N342    1.437   .     S
C308   C10     1.401   1_565 S
C309   N345    1.437   .     S
C309   C311    1.405   .     A
C309   C7      1.401   1_565 S
C310   C312    1.405   .     A
C310   N348    1.437   .     S
C313   H319    1.082   .     S
C313   N324    1.367   .     A
C313   C1215   1.417   1_554 S
C314   N323    1.367   .     A
C314   H320    1.082   .     S
C314   C766    1.417   .     S
C315   N323    1.367   .     A
C315   H321    1.082   .     S
C315   C763    1.417   .     S
C316   H322    1.082   .     S
C316   N324    1.367   .     A
C316   C1214   1.417   1_554 S
Cu317  O329    1.975   .     S
Cu317  O325    1.958   .     S
Cu317  N323    2.012   .     S
Cu317  Cu318   2.678   .     S
Cu317  O332    1.977   .     S
Cu317  O328    1.958   .     S
Cu318  O330    1.975   .     S
Cu318  O326    1.958   .     S
Cu318  N324    2.012   .     S
Cu318  O331    1.977   .     S
Cu318  O327    1.958   .     S
N333   H334    1.046   .     S
N333   C355    1.441   .     S
N333   H385    1.046   .     S
H335   N433    1.046   1_455 S
N336   H337    1.046   .     S
N336   C406    1.441   1_455 S
N336   H438    1.046   1_455 S
H338   N386    1.046   .     S
N339   H341    1.045   .     S
N339   H340    1.045   .     S
N342   H344    1.045   .     S
N342   H343    1.045   .     S
N345   H346    1.045   .     S
N345   H347    1.045   .     S
N348   H350    1.045   .     S
N348   H349    1.045   .     S
C351   O375    1.289   .     A
C351   O377    1.288   .     A
C351   C362    1.445   .     S
C352   O376    1.289   .     A
C352   C361    1.445   .     S
C352   O378    1.288   .     A
C353   O381    1.292   .     A
C353   O379    1.283   .     A
C353   C355    1.441   .     S
C354   O382    1.292   .     A
C354   C356    1.441   .     S
C354   O380    1.283   .     A
C356   C405    1.358   .     S
C356   N436    1.441   .     S
C357   C362    1.405   .     A
C357   N389    1.437   .     S
C358   C361    1.405   .     A
C358   N392    1.437   .     S
C358   C60     1.401   1_565 S
C359   N395    1.437   .     S
C359   C361    1.405   .     A
C359   C57     1.401   1_565 S
C360   C362    1.405   .     A
C360   N398    1.437   .     S
C363   H369    1.082   .     S
C363   N374    1.367   .     A
C363   C1265   1.417   1_554 S
C364   N373    1.367   .     A
C364   H370    1.082   .     S
C364   C816    1.417   .     S
C365   N373    1.367   .     A
C365   H371    1.082   .     S
C365   C813    1.417   .     S
C366   H372    1.082   .     S
C366   N374    1.367   .     A
C366   C1264   1.417   1_554 S
Cu367  O379    1.975   .     S
Cu367  O375    1.958   .     S
Cu367  N373    2.012   .     S
Cu367  Cu368   2.678   .     S
Cu367  O382    1.977   .     S
Cu367  O378    1.958   .     S
Cu368  O380    1.975   .     S
Cu368  O376    1.958   .     S
Cu368  N374    2.012   .     S
Cu368  O381    1.977   .     S
Cu368  O377    1.958   .     S
N383   H384    1.046   .     S
N383   C405    1.441   .     S
N383   H435    1.046   .     S
N386   H387    1.046   .     S
H388   N436    1.046   .     S
N389   H391    1.045   .     S
N389   H390    1.045   .     S
N392   H394    1.045   .     S
N392   H393    1.045   .     S
N395   H396    1.045   .     S
N395   H397    1.045   .     S
N398   H400    1.045   .     S
N398   H399    1.045   .     S
C401   O425    1.289   .     A
C401   O427    1.288   .     A
C401   C412    1.445   .     S
C402   O426    1.289   .     A
C402   C411    1.445   .     S
C402   O428    1.288   .     A
C403   O431    1.292   .     A
C403   O429    1.283   .     A
C403   C405    1.441   .     S
C404   O432    1.292   .     A
C404   C406    1.441   .     S
C404   O430    1.283   .     A
C406   C305    1.358   1_655 S
C406   N336    1.441   1_655 S
C407   C412    1.405   .     A
C407   N439    1.437   .     S
C408   C411    1.405   .     A
C408   N442    1.437   .     S
C408   C110    1.401   1_565 S
C409   N445    1.437   .     S
C409   C411    1.405   .     A
C409   C107    1.401   1_565 S
C410   C412    1.405   .     A
C410   N448    1.437   .     S
C413   H419    1.082   .     S
C413   N424    1.367   .     A
C413   C1315   1.417   1_554 S
C414   N423    1.367   .     A
C414   H420    1.082   .     S
C414   C866    1.417   .     S
C415   N423    1.367   .     A
C415   H421    1.082   .     S
C415   C863    1.417   .     S
C416   H422    1.082   .     S
C416   N424    1.367   .     A
C416   C1314   1.417   1_554 S
Cu417  O429    1.975   .     S
Cu417  O425    1.958   .     S
Cu417  N423    2.012   .     S
Cu417  Cu418   2.678   .     S
Cu417  O432    1.977   .     S
Cu417  O428    1.958   .     S
Cu418  O430    1.975   .     S
Cu418  O426    1.958   .     S
Cu418  N424    2.012   .     S
Cu418  O431    1.977   .     S
Cu418  O427    1.958   .     S
N433   H434    1.046   .     S
N433   C305    1.441   1_655 S
N433   H335    1.046   1_655 S
N436   H437    1.046   .     S
H438   N336    1.046   1_655 S
N439   H441    1.045   .     S
N439   H440    1.045   .     S
N442   H444    1.045   .     S
N442   H443    1.045   .     S
N445   H446    1.045   .     S
N445   H447    1.045   .     S
N448   H450    1.045   .     S
N448   H449    1.045   .     S
C451   O475    1.289   .     A
C451   O477    1.288   .     A
C451   C462    1.445   .     S
C452   O476    1.289   .     A
C452   C461    1.445   .     S
C452   O478    1.288   .     A
C453   O481    1.292   .     A
C453   O479    1.283   .     A
C453   C455    1.441   .     S
C454   O482    1.292   .     A
C454   C456    1.441   .     S
C454   O480    1.283   .     A
C455   C556    1.358   1_455 S
C455   N583    1.441   1_455 S
C456   C505    1.358   .     S
C456   N536    1.441   .     S
C457   C462    1.405   .     A
C457   N489    1.437   .     S
C457   C759    1.401   1_545 S
C458   C461    1.405   .     A
C458   N492    1.437   .     S
C458   C610    1.401   .     S
C459   N495    1.437   .     S
C459   C461    1.405   .     A
C459   C607    1.401   .     S
C460   C462    1.405   .     A
C460   N498    1.437   .     S
C460   C758    1.401   1_545 S
C463   H469    1.082   .     S
C463   N474    1.367   .     A
C464   N473    1.367   .     A
C464   H470    1.082   .     S
C464   C916    1.417   .     S
C465   N473    1.367   .     A
C465   H471    1.082   .     S
C465   C913    1.417   .     S
C466   H472    1.082   .     S
C466   N474    1.367   .     A
Cu467  O479    1.975   .     S
Cu467  O475    1.958   .     S
Cu467  N473    2.012   .     S
Cu467  Cu468   2.678   .     S
Cu467  O482    1.977   .     S
Cu467  O478    1.958   .     S
Cu468  O480    1.975   .     S
Cu468  O476    1.958   .     S
Cu468  N474    2.012   .     S
Cu468  O481    1.977   .     S
Cu468  O477    1.958   .     S
N483   H484    1.046   .     S
N483   C505    1.441   .     S
N483   H535    1.046   .     S
H485   N583    1.046   1_455 S
N486   H487    1.046   .     S
N486   C556    1.441   1_455 S
N486   H588    1.046   1_455 S
H488   N536    1.046   .     S
N489   H491    1.045   .     S
N489   H490    1.045   .     S
N492   H494    1.045   .     S
N492   H493    1.045   .     S
N495   H496    1.045   .     S
N495   H497    1.045   .     S
N498   H500    1.045   .     S
N498   H499    1.045   .     S
C501   O525    1.289   .     A
C501   O527    1.288   .     A
C501   C512    1.445   .     S
C502   O526    1.289   .     A
C502   C511    1.445   .     S
C502   O528    1.288   .     A
C503   O531    1.292   .     A
C503   O529    1.283   .     A
C503   C505    1.441   .     S
C504   O532    1.292   .     A
C504   C506    1.441   .     S
C504   O530    1.283   .     A
C506   C555    1.358   .     S
C506   N586    1.441   .     S
C507   C512    1.405   .     A
C507   N539    1.437   .     S
C507   C809    1.401   1_545 S
C508   C511    1.405   .     A
C508   N542    1.437   .     S
C508   C660    1.401   .     S
C509   N545    1.437   .     S
C509   C511    1.405   .     A
C509   C657    1.401   .     S
C510   C512    1.405   .     A
C510   N548    1.437   .     S
C510   C808    1.401   1_545 S
C513   H519    1.082   .     S
C513   N524    1.367   .     A
C514   N523    1.367   .     A
C514   H520    1.082   .     S
C514   C966    1.417   .     S
C515   N523    1.367   .     A
C515   H521    1.082   .     S
C515   C963    1.417   .     S
C516   H522    1.082   .     S
C516   N524    1.367   .     A
Cu517  O529    1.975   .     S
Cu517  O525    1.958   .     S
Cu517  N523    2.012   .     S
Cu517  Cu518   2.678   .     S
Cu517  O532    1.977   .     S
Cu517  O528    1.958   .     S
Cu518  O530    1.975   .     S
Cu518  O526    1.958   .     S
Cu518  N524    2.012   .     S
Cu518  O531    1.977   .     S
Cu518  O527    1.958   .     S
N533   H534    1.046   .     S
N533   C555    1.441   .     S
N533   H585    1.046   .     S
N536   H537    1.046   .     S
H538   N586    1.046   .     S
N539   H541    1.045   .     S
N539   H540    1.045   .     S
N542   H544    1.045   .     S
N542   H543    1.045   .     S
N545   H546    1.045   .     S
N545   H547    1.045   .     S
N548   H550    1.045   .     S
N548   H549    1.045   .     S
C551   O575    1.289   .     A
C551   O577    1.288   .     A
C551   C562    1.445   .     S
C552   O576    1.289   .     A
C552   C561    1.445   .     S
C552   O578    1.288   .     A
C553   O581    1.292   .     A
C553   O579    1.283   .     A
C553   C555    1.441   .     S
C554   O582    1.292   .     A
C554   C556    1.441   .     S
C554   O580    1.283   .     A
C556   C455    1.358   1_655 S
C556   N486    1.441   1_655 S
C557   C562    1.405   .     A
C557   N589    1.437   .     S
C557   C859    1.401   1_545 S
C558   C561    1.405   .     A
C558   N592    1.437   .     S
C558   C710    1.401   .     S
C559   N595    1.437   .     S
C559   C561    1.405   .     A
C559   C707    1.401   .     S
C560   C562    1.405   .     A
C560   N598    1.437   .     S
C560   C858    1.401   1_545 S
C563   H569    1.082   .     S
C563   N574    1.367   .     A
C564   N573    1.367   .     A
C564   H570    1.082   .     S
C564   C1016   1.417   .     S
C565   N573    1.367   .     A
C565   H571    1.082   .     S
C565   C1013   1.417   .     S
C566   H572    1.082   .     S
C566   N574    1.367   .     A
Cu567  O579    1.975   .     S
Cu567  O575    1.958   .     S
Cu567  N573    2.012   .     S
Cu567  Cu568   2.678   .     S
Cu567  O582    1.977   .     S
Cu567  O578    1.958   .     S
Cu568  O580    1.975   .     S
Cu568  O576    1.958   .     S
Cu568  N574    2.012   .     S
Cu568  O581    1.977   .     S
Cu568  O577    1.958   .     S
N583   H584    1.046   .     S
N583   C455    1.441   1_655 S
N583   H485    1.046   1_655 S
N586   H587    1.046   .     S
H588   N486    1.046   1_655 S
N589   H591    1.045   .     S
N589   H590    1.045   .     S
N592   H594    1.045   .     S
N592   H593    1.045   .     S
N595   H596    1.045   .     S
N595   H597    1.045   .     S
N598   H600    1.045   .     S
N598   H599    1.045   .     S
C601   O625    1.289   .     A
C601   O627    1.288   .     A
C601   C612    1.445   .     S
C602   O626    1.289   .     A
C602   C611    1.445   .     S
C602   O628    1.288   .     A
C603   O631    1.292   .     A
C603   O629    1.283   .     A
C603   C605    1.441   .     S
C604   O632    1.292   .     A
C604   C606    1.441   .     S
C604   O630    1.283   .     A
C605   C706    1.358   1_455 S
C605   N733    1.441   1_455 S
C606   C655    1.358   .     S
C606   N686    1.441   .     S
C607   C612    1.405   .     A
C607   N639    1.437   .     S
C608   C611    1.405   .     A
C608   N642    1.437   .     S
C608   C760    1.401   .     S
C609   N645    1.437   .     S
C609   C611    1.405   .     A
C609   C757    1.401   .     S
C610   C612    1.405   .     A
C610   N648    1.437   .     S
C613   H619    1.082   .     S
C613   N624    1.367   .     A
C614   N623    1.367   .     A
C614   H620    1.082   .     S
C614   C1066   1.417   .     S
C615   N623    1.367   .     A
C615   H621    1.082   .     S
C615   C1063   1.417   .     S
C616   H622    1.082   .     S
C616   N624    1.367   .     A
Cu617  O629    1.975   .     S
Cu617  O625    1.958   .     S
Cu617  N623    2.012   .     S
Cu617  Cu618   2.678   .     S
Cu617  O632    1.977   .     S
Cu617  O628    1.958   .     S
Cu618  O630    1.975   .     S
Cu618  O626    1.958   .     S
Cu618  N624    2.012   .     S
Cu618  O631    1.977   .     S
Cu618  O627    1.958   .     S
N633   H634    1.046   .     S
N633   C655    1.441   .     S
N633   H685    1.046   .     S
H635   N733    1.046   1_455 S
N636   H637    1.046   .     S
N636   C706    1.441   1_455 S
N636   H738    1.046   1_455 S
H638   N686    1.046   .     S
N639   H641    1.045   .     S
N639   H640    1.045   .     S
N642   H644    1.045   .     S
N642   H643    1.045   .     S
N645   H646    1.045   .     S
N645   H647    1.045   .     S
N648   H650    1.045   .     S
N648   H649    1.045   .     S
C651   O675    1.289   .     A
C651   O677    1.288   .     A
C651   C662    1.445   .     S
C652   O676    1.289   .     A
C652   C661    1.445   .     S
C652   O678    1.288   .     A
C653   O681    1.292   .     A
C653   O679    1.283   .     A
C653   C655    1.441   .     S
C654   O682    1.292   .     A
C654   C656    1.441   .     S
C654   O680    1.283   .     A
C656   C705    1.358   .     S
C656   N736    1.441   .     S
C657   C662    1.405   .     A
C657   N689    1.437   .     S
C658   C661    1.405   .     A
C658   N692    1.437   .     S
C658   C810    1.401   .     S
C659   N695    1.437   .     S
C659   C661    1.405   .     A
C659   C807    1.401   .     S
C660   C662    1.405   .     A
C660   N698    1.437   .     S
C663   H669    1.082   .     S
C663   N674    1.367   .     A
C664   N673    1.367   .     A
C664   H670    1.082   .     S
C664   C1116   1.417   .     S
C665   N673    1.367   .     A
C665   H671    1.082   .     S
C665   C1113   1.417   .     S
C666   H672    1.082   .     S
C666   N674    1.367   .     A
Cu667  O679    1.975   .     S
Cu667  O675    1.958   .     S
Cu667  N673    2.012   .     S
Cu667  Cu668   2.678   .     S
Cu667  O682    1.977   .     S
Cu667  O678    1.958   .     S
Cu668  O680    1.975   .     S
Cu668  O676    1.958   .     S
Cu668  N674    2.012   .     S
Cu668  O681    1.977   .     S
Cu668  O677    1.958   .     S
N683   H684    1.046   .     S
N683   C705    1.441   .     S
N683   H735    1.046   .     S
N686   H687    1.046   .     S
H688   N736    1.046   .     S
N689   H691    1.045   .     S
N689   H690    1.045   .     S
N692   H694    1.045   .     S
N692   H693    1.045   .     S
N695   H696    1.045   .     S
N695   H697    1.045   .     S
N698   H700    1.045   .     S
N698   H699    1.045   .     S
C701   O725    1.289   .     A
C701   O727    1.288   .     A
C701   C712    1.445   .     S
C702   O726    1.289   .     A
C702   C711    1.445   .     S
C702   O728    1.288   .     A
C703   O731    1.292   .     A
C703   O729    1.283   .     A
C703   C705    1.441   .     S
C704   O732    1.292   .     A
C704   C706    1.441   .     S
C704   O730    1.283   .     A
C706   C605    1.358   1_655 S
C706   N636    1.441   1_655 S
C707   C712    1.405   .     A
C707   N739    1.437   .     S
C708   C711    1.405   .     A
C708   N742    1.437   .     S
C708   C860    1.401   .     S
C709   N745    1.437   .     S
C709   C711    1.405   .     A
C709   C857    1.401   .     S
C710   C712    1.405   .     A
C710   N748    1.437   .     S
C713   H719    1.082   .     S
C713   N724    1.367   .     A
C714   N723    1.367   .     A
C714   H720    1.082   .     S
C714   C1166   1.417   .     S
C715   N723    1.367   .     A
C715   H721    1.082   .     S
C715   C1163   1.417   .     S
C716   H722    1.082   .     S
C716   N724    1.367   .     A
Cu717  O729    1.975   .     S
Cu717  O725    1.958   .     S
Cu717  N723    2.012   .     S
Cu717  Cu718   2.678   .     S
Cu717  O732    1.977   .     S
Cu717  O728    1.958   .     S
Cu718  O730    1.975   .     S
Cu718  O726    1.958   .     S
Cu718  N724    2.012   .     S
Cu718  O731    1.977   .     S
Cu718  O727    1.958   .     S
N733   H734    1.046   .     S
N733   C605    1.441   1_655 S
N733   H635    1.046   1_655 S
N736   H737    1.046   .     S
H738   N636    1.046   1_655 S
N739   H741    1.045   .     S
N739   H740    1.045   .     S
N742   H744    1.045   .     S
N742   H743    1.045   .     S
N745   H746    1.045   .     S
N745   H747    1.045   .     S
N748   H750    1.045   .     S
N748   H749    1.045   .     S
C751   O775    1.289   .     A
C751   O777    1.288   .     A
C751   C762    1.445   .     S
C752   O776    1.289   .     A
C752   C761    1.445   .     S
C752   O778    1.288   .     A
C753   O781    1.292   .     A
C753   O779    1.283   .     A
C753   C755    1.441   .     S
C754   O782    1.292   .     A
C754   C756    1.441   .     S
C754   O780    1.283   .     A
C755   C856    1.358   1_455 S
C755   N883    1.441   1_455 S
C756   C805    1.358   .     S
C756   N836    1.441   .     S
C757   C762    1.405   .     A
C757   N789    1.437   .     S
C758   C761    1.405   .     A
C758   N792    1.437   .     S
C758   C460    1.401   1_565 S
C759   N795    1.437   .     S
C759   C761    1.405   .     A
C759   C457    1.401   1_565 S
C760   C762    1.405   .     A
C760   N798    1.437   .     S
C763   H769    1.082   .     S
C763   N774    1.367   .     A
C764   N773    1.367   .     A
C764   H770    1.082   .     S
C764   C1216   1.417   .     S
C765   N773    1.367   .     A
C765   H771    1.082   .     S
C765   C1213   1.417   .     S
C766   H772    1.082   .     S
C766   N774    1.367   .     A
Cu767  O779    1.975   .     S
Cu767  O775    1.958   .     S
Cu767  N773    2.012   .     S
Cu767  Cu768   2.678   .     S
Cu767  O782    1.977   .     S
Cu767  O778    1.958   .     S
Cu768  O780    1.975   .     S
Cu768  O776    1.958   .     S
Cu768  N774    2.012   .     S
Cu768  O781    1.977   .     S
Cu768  O777    1.958   .     S
N783   H784    1.046   .     S
N783   C805    1.441   .     S
N783   H835    1.046   .     S
H785   N883    1.046   1_455 S
N786   H787    1.046   .     S
N786   C856    1.441   1_455 S
N786   H888    1.046   1_455 S
H788   N836    1.046   .     S
N789   H791    1.045   .     S
N789   H790    1.045   .     S
N792   H794    1.045   .     S
N792   H793    1.045   .     S
N795   H796    1.045   .     S
N795   H797    1.045   .     S
N798   H800    1.045   .     S
N798   H799    1.045   .     S
C801   O825    1.289   .     A
C801   O827    1.288   .     A
C801   C812    1.445   .     S
C802   O826    1.289   .     A
C802   C811    1.445   .     S
C802   O828    1.288   .     A
C803   O831    1.292   .     A
C803   O829    1.283   .     A
C803   C805    1.441   .     S
C804   O832    1.292   .     A
C804   C806    1.441   .     S
C804   O830    1.283   .     A
C806   C855    1.358   .     S
C806   N886    1.441   .     S
C807   C812    1.405   .     A
C807   N839    1.437   .     S
C808   C811    1.405   .     A
C808   N842    1.437   .     S
C808   C510    1.401   1_565 S
C809   N845    1.437   .     S
C809   C811    1.405   .     A
C809   C507    1.401   1_565 S
C810   C812    1.405   .     A
C810   N848    1.437   .     S
C813   H819    1.082   .     S
C813   N824    1.367   .     A
C814   N823    1.367   .     A
C814   H820    1.082   .     S
C814   C1266   1.417   .     S
C815   N823    1.367   .     A
C815   H821    1.082   .     S
C815   C1263   1.417   .     S
C816   H822    1.082   .     S
C816   N824    1.367   .     A
Cu817  O829    1.975   .     S
Cu817  O825    1.958   .     S
Cu817  N823    2.012   .     S
Cu817  Cu818   2.678   .     S
Cu817  O832    1.977   .     S
Cu817  O828    1.958   .     S
Cu818  O830    1.975   .     S
Cu818  O826    1.958   .     S
Cu818  N824    2.012   .     S
Cu818  O831    1.977   .     S
Cu818  O827    1.958   .     S
N833   H834    1.046   .     S
N833   C855    1.441   .     S
N833   H885    1.046   .     S
N836   H837    1.046   .     S
H838   N886    1.046   .     S
N839   H841    1.045   .     S
N839   H840    1.045   .     S
N842   H844    1.045   .     S
N842   H843    1.045   .     S
N845   H846    1.045   .     S
N845   H847    1.045   .     S
N848   H850    1.045   .     S
N848   H849    1.045   .     S
C851   O875    1.289   .     A
C851   O877    1.288   .     A
C851   C862    1.445   .     S
C852   O876    1.289   .     A
C852   C861    1.445   .     S
C852   O878    1.288   .     A
C853   O881    1.292   .     A
C853   O879    1.283   .     A
C853   C855    1.441   .     S
C854   O882    1.292   .     A
C854   C856    1.441   .     S
C854   O880    1.283   .     A
C856   C755    1.358   1_655 S
C856   N786    1.441   1_655 S
C857   C862    1.405   .     A
C857   N889    1.437   .     S
C858   C861    1.405   .     A
C858   N892    1.437   .     S
C858   C560    1.401   1_565 S
C859   N895    1.437   .     S
C859   C861    1.405   .     A
C859   C557    1.401   1_565 S
C860   C862    1.405   .     A
C860   N898    1.437   .     S
C863   H869    1.082   .     S
C863   N874    1.367   .     A
C864   N873    1.367   .     A
C864   H870    1.082   .     S
C864   C1316   1.417   .     S
C865   N873    1.367   .     A
C865   H871    1.082   .     S
C865   C1313   1.417   .     S
C866   H872    1.082   .     S
C866   N874    1.367   .     A
Cu867  O879    1.975   .     S
Cu867  O875    1.958   .     S
Cu867  N873    2.012   .     S
Cu867  Cu868   2.678   .     S
Cu867  O882    1.977   .     S
Cu867  O878    1.958   .     S
Cu868  O880    1.975   .     S
Cu868  O876    1.958   .     S
Cu868  N874    2.012   .     S
Cu868  O881    1.977   .     S
Cu868  O877    1.958   .     S
N883   H884    1.046   .     S
N883   C755    1.441   1_655 S
N883   H785    1.046   1_655 S
N886   H887    1.046   .     S
H888   N786    1.046   1_655 S
N889   H891    1.045   .     S
N889   H890    1.045   .     S
N892   H894    1.045   .     S
N892   H893    1.045   .     S
N895   H896    1.045   .     S
N895   H897    1.045   .     S
N898   H900    1.045   .     S
N898   H899    1.045   .     S
C901   O925    1.289   .     A
C901   O927    1.288   .     A
C901   C912    1.445   .     S
C902   O926    1.289   .     A
C902   C911    1.445   .     S
C902   O928    1.288   .     A
C903   O931    1.292   .     A
C903   O929    1.283   .     A
C903   C905    1.441   .     S
C904   O932    1.292   .     A
C904   C906    1.441   .     S
C904   O930    1.283   .     A
C905   C1006   1.358   1_455 S
C905   N1033   1.441   1_455 S
C906   C955    1.358   .     S
C906   N986    1.441   .     S
C907   C912    1.405   .     A
C907   N939    1.437   .     S
C907   C1209   1.401   1_545 S
C908   C911    1.405   .     A
C908   N942    1.437   .     S
C908   C1060   1.401   .     S
C909   N945    1.437   .     S
C909   C911    1.405   .     A
C909   C1057   1.401   .     S
C910   C912    1.405   .     A
C910   N948    1.437   .     S
C910   C1208   1.401   1_545 S
C913   H919    1.082   .     S
C913   N924    1.367   .     A
C914   N923    1.367   .     A
C914   H920    1.082   .     S
C914   C16     1.417   1_556 S
C915   N923    1.367   .     A
C915   H921    1.082   .     S
C915   C13     1.417   1_556 S
C916   H922    1.082   .     S
C916   N924    1.367   .     A
Cu917  O929    1.975   .     S
Cu917  O925    1.958   .     S
Cu917  N923    2.012   .     S
Cu917  Cu918   2.678   .     S
Cu917  O932    1.977   .     S
Cu917  O928    1.958   .     S
Cu918  O930    1.975   .     S
Cu918  O926    1.958   .     S
Cu918  N924    2.012   .     S
Cu918  O931    1.977   .     S
Cu918  O927    1.958   .     S
N933   H934    1.046   .     S
N933   C955    1.441   .     S
N933   H985    1.046   .     S
H935   N1033   1.046   1_455 S
N936   H937    1.046   .     S
N936   C1006   1.441   1_455 S
N936   H1038   1.046   1_455 S
H938   N986    1.046   .     S
N939   H941    1.045   .     S
N939   H940    1.045   .     S
N942   H944    1.045   .     S
N942   H943    1.045   .     S
N945   H946    1.045   .     S
N945   H947    1.045   .     S
N948   H950    1.045   .     S
N948   H949    1.045   .     S
C951   O975    1.289   .     A
C951   O977    1.288   .     A
C951   C962    1.445   .     S
C952   O976    1.289   .     A
C952   C961    1.445   .     S
C952   O978    1.288   .     A
C953   O981    1.292   .     A
C953   O979    1.283   .     A
C953   C955    1.441   .     S
C954   O982    1.292   .     A
C954   C956    1.441   .     S
C954   O980    1.283   .     A
C956   C1005   1.358   .     S
C956   N1036   1.441   .     S
C957   C962    1.405   .     A
C957   N989    1.437   .     S
C957   C1259   1.401   1_545 S
C958   C961    1.405   .     A
C958   N992    1.437   .     S
C958   C1110   1.401   .     S
C959   N995    1.437   .     S
C959   C961    1.405   .     A
C959   C1107   1.401   .     S
C960   C962    1.405   .     A
C960   N998    1.437   .     S
C960   C1258   1.401   1_545 S
C963   H969    1.082   .     S
C963   N974    1.367   .     A
C964   N973    1.367   .     A
C964   H970    1.082   .     S
C964   C66     1.417   1_556 S
C965   N973    1.367   .     A
C965   H971    1.082   .     S
C965   C63     1.417   1_556 S
C966   H972    1.082   .     S
C966   N974    1.367   .     A
Cu967  O979    1.975   .     S
Cu967  O975    1.958   .     S
Cu967  N973    2.012   .     S
Cu967  Cu968   2.678   .     S
Cu967  O982    1.977   .     S
Cu967  O978    1.958   .     S
Cu968  O980    1.975   .     S
Cu968  O976    1.958   .     S
Cu968  N974    2.012   .     S
Cu968  O981    1.977   .     S
Cu968  O977    1.958   .     S
N983   H984    1.046   .     S
N983   C1005   1.441   .     S
N983   H1035   1.046   .     S
N986   H987    1.046   .     S
H988   N1036   1.046   .     S
N989   H991    1.045   .     S
N989   H990    1.045   .     S
N992   H994    1.045   .     S
N992   H993    1.045   .     S
N995   H996    1.045   .     S
N995   H997    1.045   .     S
N998   H1000   1.045   .     S
N998   H999    1.045   .     S
C1001  O1025   1.289   .     A
C1001  O1027   1.288   .     A
C1001  C1012   1.445   .     S
C1002  O1026   1.289   .     A
C1002  C1011   1.445   .     S
C1002  O1028   1.288   .     A
C1003  O1031   1.292   .     A
C1003  O1029   1.283   .     A
C1003  C1005   1.441   .     S
C1004  O1032   1.292   .     A
C1004  C1006   1.441   .     S
C1004  O1030   1.283   .     A
C1006  C905    1.358   1_655 S
C1006  N936    1.441   1_655 S
C1007  C1012   1.405   .     A
C1007  N1039   1.437   .     S
C1007  C1309   1.401   1_545 S
C1008  C1011   1.405   .     A
C1008  N1042   1.437   .     S
C1008  C1160   1.401   .     S
C1009  N1045   1.437   .     S
C1009  C1011   1.405   .     A
C1009  C1157   1.401   .     S
C1010  C1012   1.405   .     A
C1010  N1048   1.437   .     S
C1010  C1308   1.401   1_545 S
C1013  H1019   1.082   .     S
C1013  N1024   1.367   .     A
C1014  N1023   1.367   .     A
C1014  H1020   1.082   .     S
C1014  C116    1.417   1_556 S
C1015  N1023   1.367   .     A
C1015  H1021   1.082   .     S
C1015  C113    1.417   1_556 S
C1016  H1022   1.082   .     S
C1016  N1024   1.367   .     A
Cu1017 O1029   1.975   .     S
Cu1017 O1025   1.958   .     S
Cu1017 N1023   2.012   .     S
Cu1017 Cu1018  2.678   .     S
Cu1017 O1032   1.977   .     S
Cu1017 O1028   1.958   .     S
Cu1018 O1030   1.975   .     S
Cu1018 O1026   1.958   .     S
Cu1018 N1024   2.012   .     S
Cu1018 O1031   1.977   .     S
Cu1018 O1027   1.958   .     S
N1033  H1034   1.046   .     S
N1033  C905    1.441   1_655 S
N1033  H935    1.046   1_655 S
N1036  H1037   1.046   .     S
H1038  N936    1.046   1_655 S
N1039  H1041   1.045   .     S
N1039  H1040   1.045   .     S
N1042  H1044   1.045   .     S
N1042  H1043   1.045   .     S
N1045  H1046   1.045   .     S
N1045  H1047   1.045   .     S
N1048  H1050   1.045   .     S
N1048  H1049   1.045   .     S
C1051  O1075   1.289   .     A
C1051  O1077   1.288   .     A
C1051  C1062   1.445   .     S
C1052  O1076   1.289   .     A
C1052  C1061   1.445   .     S
C1052  O1078   1.288   .     A
C1053  O1081   1.292   .     A
C1053  O1079   1.283   .     A
C1053  C1055   1.441   .     S
C1054  O1082   1.292   .     A
C1054  C1056   1.441   .     S
C1054  O1080   1.283   .     A
C1055  C1156   1.358   1_455 S
C1055  N1183   1.441   1_455 S
C1056  C1105   1.358   .     S
C1056  N1136   1.441   .     S
C1057  C1062   1.405   .     A
C1057  N1089   1.437   .     S
C1058  C1061   1.405   .     A
C1058  N1092   1.437   .     S
C1058  C1210   1.401   .     S
C1059  N1095   1.437   .     S
C1059  C1061   1.405   .     A
C1059  C1207   1.401   .     S
C1060  C1062   1.405   .     A
C1060  N1098   1.437   .     S
C1063  H1069   1.082   .     S
C1063  N1074   1.367   .     A
C1064  N1073   1.367   .     A
C1064  H1070   1.082   .     S
C1064  C166    1.417   1_556 S
C1065  N1073   1.367   .     A
C1065  H1071   1.082   .     S
C1065  C163    1.417   1_556 S
C1066  H1072   1.082   .     S
C1066  N1074   1.367   .     A
Cu1067 O1079   1.975   .     S
Cu1067 O1075   1.958   .     S
Cu1067 N1073   2.012   .     S
Cu1067 Cu1068  2.678   .     S
Cu1067 O1082   1.977   .     S
Cu1067 O1078   1.958   .     S
Cu1068 O1080   1.975   .     S
Cu1068 O1076   1.958   .     S
Cu1068 N1074   2.012   .     S
Cu1068 O1081   1.977   .     S
Cu1068 O1077   1.958   .     S
N1083  H1084   1.046   .     S
N1083  C1105   1.441   .     S
N1083  H1135   1.046   .     S
H1085  N1183   1.046   1_455 S
N1086  H1087   1.046   .     S
N1086  C1156   1.441   1_455 S
N1086  H1188   1.046   1_455 S
H1088  N1136   1.046   .     S
N1089  H1091   1.045   .     S
N1089  H1090   1.045   .     S
N1092  H1094   1.045   .     S
N1092  H1093   1.045   .     S
N1095  H1096   1.045   .     S
N1095  H1097   1.045   .     S
N1098  H1100   1.045   .     S
N1098  H1099   1.045   .     S
C1101  O1125   1.289   .     A
C1101  O1127   1.288   .     A
C1101  C1112   1.445   .     S
C1102  O1126   1.289   .     A
C1102  C1111   1.445   .     S
C1102  O1128   1.288   .     A
C1103  O1131   1.292   .     A
C1103  O1129   1.283   .     A
C1103  C1105   1.441   .     S
C1104  O1132   1.292   .     A
C1104  C1106   1.441   .     S
C1104  O1130   1.283   .     A
C1106  C1155   1.358   .     S
C1106  N1186   1.441   .     S
C1107  C1112   1.405   .     A
C1107  N1139   1.437   .     S
C1108  C1111   1.405   .     A
C1108  N1142   1.437   .     S
C1108  C1260   1.401   .     S
C1109  N1145   1.437   .     S
C1109  C1111   1.405   .     A
C1109  C1257   1.401   .     S
C1110  C1112   1.405   .     A
C1110  N1148   1.437   .     S
C1113  H1119   1.082   .     S
C1113  N1124   1.367   .     A
C1114  N1123   1.367   .     A
C1114  H1120   1.082   .     S
C1114  C216    1.417   1_556 S
C1115  N1123   1.367   .     A
C1115  H1121   1.082   .     S
C1115  C213    1.417   1_556 S
C1116  H1122   1.082   .     S
C1116  N1124   1.367   .     A
Cu1117 O1129   1.975   .     S
Cu1117 O1125   1.958   .     S
Cu1117 N1123   2.012   .     S
Cu1117 Cu1118  2.678   .     S
Cu1117 O1132   1.977   .     S
Cu1117 O1128   1.958   .     S
Cu1118 O1130   1.975   .     S
Cu1118 O1126   1.958   .     S
Cu1118 N1124   2.012   .     S
Cu1118 O1131   1.977   .     S
Cu1118 O1127   1.958   .     S
N1133  H1134   1.046   .     S
N1133  C1155   1.441   .     S
N1133  H1185   1.046   .     S
N1136  H1137   1.046   .     S
H1138  N1186   1.046   .     S
N1139  H1141   1.045   .     S
N1139  H1140   1.045   .     S
N1142  H1144   1.045   .     S
N1142  H1143   1.045   .     S
N1145  H1146   1.045   .     S
N1145  H1147   1.045   .     S
N1148  H1150   1.045   .     S
N1148  H1149   1.045   .     S
C1151  O1175   1.289   .     A
C1151  O1177   1.288   .     A
C1151  C1162   1.445   .     S
C1152  O1176   1.289   .     A
C1152  C1161   1.445   .     S
C1152  O1178   1.288   .     A
C1153  O1181   1.292   .     A
C1153  O1179   1.283   .     A
C1153  C1155   1.441   .     S
C1154  O1182   1.292   .     A
C1154  C1156   1.441   .     S
C1154  O1180   1.283   .     A
C1156  C1055   1.358   1_655 S
C1156  N1086   1.441   1_655 S
C1157  C1162   1.405   .     A
C1157  N1189   1.437   .     S
C1158  C1161   1.405   .     A
C1158  N1192   1.437   .     S
C1158  C1310   1.401   .     S
C1159  N1195   1.437   .     S
C1159  C1161   1.405   .     A
C1159  C1307   1.401   .     S
C1160  C1162   1.405   .     A
C1160  N1198   1.437   .     S
C1163  H1169   1.082   .     S
C1163  N1174   1.367   .     A
C1164  N1173   1.367   .     A
C1164  H1170   1.082   .     S
C1164  C266    1.417   1_556 S
C1165  N1173   1.367   .     A
C1165  H1171   1.082   .     S
C1165  C263    1.417   1_556 S
C1166  H1172   1.082   .     S
C1166  N1174   1.367   .     A
Cu1167 O1179   1.975   .     S
Cu1167 O1175   1.958   .     S
Cu1167 N1173   2.012   .     S
Cu1167 Cu1168  2.678   .     S
Cu1167 O1182   1.977   .     S
Cu1167 O1178   1.958   .     S
Cu1168 O1180   1.975   .     S
Cu1168 O1176   1.958   .     S
Cu1168 N1174   2.012   .     S
Cu1168 O1181   1.977   .     S
Cu1168 O1177   1.958   .     S
N1183  H1184   1.046   .     S
N1183  C1055   1.441   1_655 S
N1183  H1085   1.046   1_655 S
N1186  H1187   1.046   .     S
H1188  N1086   1.046   1_655 S
N1189  H1191   1.045   .     S
N1189  H1190   1.045   .     S
N1192  H1194   1.045   .     S
N1192  H1193   1.045   .     S
N1195  H1196   1.045   .     S
N1195  H1197   1.045   .     S
N1198  H1200   1.045   .     S
N1198  H1199   1.045   .     S
C1201  O1225   1.289   .     A
C1201  O1227   1.288   .     A
C1201  C1212   1.445   .     S
C1202  O1226   1.289   .     A
C1202  C1211   1.445   .     S
C1202  O1228   1.288   .     A
C1203  O1231   1.292   .     A
C1203  O1229   1.283   .     A
C1203  C1205   1.441   .     S
C1204  O1232   1.292   .     A
C1204  C1206   1.441   .     S
C1204  O1230   1.283   .     A
C1205  C1306   1.358   1_455 S
C1205  N1333   1.441   1_455 S
C1206  C1255   1.358   .     S
C1206  N1286   1.441   .     S
C1207  C1212   1.405   .     A
C1207  N1239   1.437   .     S
C1208  C1211   1.405   .     A
C1208  N1242   1.437   .     S
C1208  C910    1.401   1_565 S
C1209  N1245   1.437   .     S
C1209  C1211   1.405   .     A
C1209  C907    1.401   1_565 S
C1210  C1212   1.405   .     A
C1210  N1248   1.437   .     S
C1213  H1219   1.082   .     S
C1213  N1224   1.367   .     A
C1214  N1223   1.367   .     A
C1214  H1220   1.082   .     S
C1214  C316    1.417   1_556 S
C1215  N1223   1.367   .     A
C1215  H1221   1.082   .     S
C1215  C313    1.417   1_556 S
C1216  H1222   1.082   .     S
C1216  N1224   1.367   .     A
Cu1217 O1229   1.975   .     S
Cu1217 O1225   1.958   .     S
Cu1217 N1223   2.012   .     S
Cu1217 Cu1218  2.678   .     S
Cu1217 O1232   1.977   .     S
Cu1217 O1228   1.958   .     S
Cu1218 O1230   1.975   .     S
Cu1218 O1226   1.958   .     S
Cu1218 N1224   2.012   .     S
Cu1218 O1231   1.977   .     S
Cu1218 O1227   1.958   .     S
N1233  H1234   1.046   .     S
N1233  C1255   1.441   .     S
N1233  H1285   1.046   .     S
H1235  N1333   1.046   1_455 S
N1236  H1237   1.046   .     S
N1236  C1306   1.441   1_455 S
N1236  H1338   1.046   1_455 S
H1238  N1286   1.046   .     S
N1239  H1241   1.045   .     S
N1239  H1240   1.045   .     S
N1242  H1244   1.045   .     S
N1242  H1243   1.045   .     S
N1245  H1246   1.045   .     S
N1245  H1247   1.045   .     S
N1248  H1250   1.045   .     S
N1248  H1249   1.045   .     S
C1251  O1275   1.289   .     A
C1251  O1277   1.288   .     A
C1251  C1262   1.445   .     S
C1252  O1276   1.289   .     A
C1252  C1261   1.445   .     S
C1252  O1278   1.288   .     A
C1253  O1281   1.292   .     A
C1253  O1279   1.283   .     A
C1253  C1255   1.441   .     S
C1254  O1282   1.292   .     A
C1254  C1256   1.441   .     S
C1254  O1280   1.283   .     A
C1256  C1305   1.358   .     S
C1256  N1336   1.441   .     S
C1257  C1262   1.405   .     A
C1257  N1289   1.437   .     S
C1258  C1261   1.405   .     A
C1258  N1292   1.437   .     S
C1258  C960    1.401   1_565 S
C1259  N1295   1.437   .     S
C1259  C1261   1.405   .     A
C1259  C957    1.401   1_565 S
C1260  C1262   1.405   .     A
C1260  N1298   1.437   .     S
C1263  H1269   1.082   .     S
C1263  N1274   1.367   .     A
C1264  N1273   1.367   .     A
C1264  H1270   1.082   .     S
C1264  C366    1.417   1_556 S
C1265  N1273   1.367   .     A
C1265  H1271   1.082   .     S
C1265  C363    1.417   1_556 S
C1266  H1272   1.082   .     S
C1266  N1274   1.367   .     A
Cu1267 O1279   1.975   .     S
Cu1267 O1275   1.958   .     S
Cu1267 N1273   2.012   .     S
Cu1267 Cu1268  2.678   .     S
Cu1267 O1282   1.977   .     S
Cu1267 O1278   1.958   .     S
Cu1268 O1280   1.975   .     S
Cu1268 O1276   1.958   .     S
Cu1268 N1274   2.012   .     S
Cu1268 O1281   1.977   .     S
Cu1268 O1277   1.958   .     S
N1283  H1284   1.046   .     S
N1283  C1305   1.441   .     S
N1283  H1335   1.046   .     S
N1286  H1287   1.046   .     S
H1288  N1336   1.046   .     S
N1289  H1291   1.045   .     S
N1289  H1290   1.045   .     S
N1292  H1294   1.045   .     S
N1292  H1293   1.045   .     S
N1295  H1296   1.045   .     S
N1295  H1297   1.045   .     S
N1298  H1300   1.045   .     S
N1298  H1299   1.045   .     S
C1301  O1325   1.289   .     A
C1301  O1327   1.288   .     A
C1301  C1312   1.445   .     S
C1302  O1326   1.289   .     A
C1302  C1311   1.445   .     S
C1302  O1328   1.288   .     A
C1303  O1331   1.292   .     A
C1303  O1329   1.283   .     A
C1303  C1305   1.441   .     S
C1304  O1332   1.292   .     A
C1304  C1306   1.441   .     S
C1304  O1330   1.283   .     A
C1306  C1205   1.358   1_655 S
C1306  N1236   1.441   1_655 S
C1307  C1312   1.405   .     A
C1307  N1339   1.437   .     S
C1308  C1311   1.405   .     A
C1308  N1342   1.437   .     S
C1308  C1010   1.401   1_565 S
C1309  N1345   1.437   .     S
C1309  C1311   1.405   .     A
C1309  C1007   1.401   1_565 S
C1310  C1312   1.405   .     A
C1310  N1348   1.437   .     S
C1313  H1319   1.082   .     S
C1313  N1324   1.367   .     A
C1314  N1323   1.367   .     A
C1314  H1320   1.082   .     S
C1314  C416    1.417   1_556 S
C1315  N1323   1.367   .     A
C1315  H1321   1.082   .     S
C1315  C413    1.417   1_556 S
C1316  H1322   1.082   .     S
C1316  N1324   1.367   .     A
Cu1317 O1329   1.975   .     S
Cu1317 O1325   1.958   .     S
Cu1317 N1323   2.012   .     S
Cu1317 Cu1318  2.678   .     S
Cu1317 O1332   1.977   .     S
Cu1317 O1328   1.958   .     S
Cu1318 O1330   1.975   .     S
Cu1318 O1326   1.958   .     S
Cu1318 N1324   2.012   .     S
Cu1318 O1331   1.977   .     S
Cu1318 O1327   1.958   .     S
N1333  H1334   1.046   .     S
N1333  C1205   1.441   1_655 S
N1333  H1235   1.046   1_655 S
N1336  H1337   1.046   .     S
H1338  N1236   1.046   1_655 S
N1339  H1341   1.045   .     S
N1339  H1340   1.045   .     S
N1342  H1344   1.045   .     S
N1342  H1343   1.045   .     S
N1345  H1346   1.045   .     S
N1345  H1347   1.045   .     S
N1348  H1350   1.045   .     S
N1348  H1349   1.045   .     S
