data_str_m2_o1_o17_pcu_sym.47
_audit_creation_date              2020-01-03
_audit_creation_method            'Materials Studio'
_symmetry_space_group_name_H-M    'P1'
_symmetry_Int_Tables_number       1
_symmetry_cell_setting            triclinic
loop_
_symmetry_equiv_pos_as_xyz
  x,y,z
_cell_length_a                    32.5017
_cell_length_b                    28.9050
_cell_length_c                    30.0166
_cell_angle_alpha                 89.8393
_cell_angle_beta                  92.5494
_cell_angle_gamma                 89.7681
loop_
_atom_site_label
_atom_site_type_symbol
_atom_site_fract_x
_atom_site_fract_y
_atom_site_fract_z
_atom_site_U_iso_or_equiv
_atom_site_adp_type
_atom_site_occupancy
Br1    Br    0.07940   0.17213   0.37076   0.00000  Uiso   1.00
Br2    Br    0.04371   0.26672   0.27700   0.00000  Uiso   1.00
Br3    Br    0.25394   0.16121   0.12923   0.00000  Uiso   1.00
Br4    Br    0.05927   0.09227   0.44093   0.00000  Uiso   1.00
Br5    Br    0.27406   0.24108   0.05907   0.00000  Uiso   1.00
Br6    Br    0.05744   0.09512   0.04891   0.00000  Uiso   1.00
Br7    Br    0.27588   0.23824   0.45109   0.00000  Uiso   1.00
Br8    Br    0.04499   0.06803   0.28150   0.00000  Uiso   1.00
Br9    Br    0.28835   0.26531   0.21850   0.00000  Uiso   1.00
Br10   Br    0.28963   0.06662   0.22300   0.00000  Uiso   1.00
C11    C     0.08768   0.16674   0.25397   0.00000  Uiso   1.00
C12    C     0.04276   0.16688   0.25745   0.00000  Uiso   1.00
C13    C     0.14531   0.02484   0.21724   0.00000  Uiso   1.00
C14    C     0.18802   0.30849   0.28276   0.00000  Uiso   1.00
C15    C     0.18788   0.02450   0.28286   0.00000  Uiso   1.00
C16    C     0.14545   0.30884   0.21714   0.00000  Uiso   1.00
C17    C     0.16637   0.16675   0.16463   0.00000  Uiso   1.00
C18    C     0.16696   0.16658   0.33537   0.00000  Uiso   1.00
C19    C     0.20499   0.17089   0.40886   0.00000  Uiso   1.00
C20    C     0.12834   0.16245   0.09114   0.00000  Uiso   1.00
C21    C     0.16757   0.16633   0.38374   0.00000  Uiso   1.00
C22    C     0.24566   0.16659   0.24603   0.00000  Uiso   1.00
C23    C     0.16576   0.16700   0.11627   0.00000  Uiso   1.00
C24    C     0.13034   0.16034   0.40482   0.00000  Uiso   1.00
C25    C     0.20299   0.17300   0.09518   0.00000  Uiso   1.00
C26    C     0.13114   0.15298   0.45122   0.00000  Uiso   1.00
C27    C     0.20220   0.18037   0.04878   0.00000  Uiso   1.00
C28    C     0.16694   0.16623   0.47661   0.00000  Uiso   1.00
C29    C     0.16639   0.16712   0.02339   0.00000  Uiso   1.00
C30    C     0.20328   0.17867   0.45515   0.00000  Uiso   1.00
C31    C     0.13005   0.15467   0.04485   0.00000  Uiso   1.00
C32    C     0.09824   0.13197   0.47300   0.00000  Uiso   1.00
C33    C     0.09771   0.13280   0.01979   0.00000  Uiso   1.00
C34    C     0.23509   0.20138   0.02701   0.00000  Uiso   1.00
C35    C     0.24517   0.16113   0.38846   0.00000  Uiso   1.00
C36    C     0.08817   0.17220   0.11154   0.00000  Uiso   1.00
C37    C     0.12120   0.04879   0.18114   0.00000  Uiso   1.00
C38    C     0.21213   0.28455   0.31887   0.00000  Uiso   1.00
C39    C     0.21068   0.04817   0.31980   0.00000  Uiso   1.00
C40    C     0.12265   0.28516   0.18020   0.00000  Uiso   1.00
C41    C     0.23562   0.20055   0.48021   0.00000  Uiso   1.00
C42    C     0.02112   0.12465   0.25698   0.00000  Uiso   1.00
C43    C     0.31221   0.20868   0.24302   0.00000  Uiso   1.00
C44    C     0.31267   0.12433   0.24501   0.00000  Uiso   1.00
C45    C     0.02066   0.20901   0.25499   0.00000  Uiso   1.00
C46    C     0.29057   0.16646   0.24255   0.00000  Uiso   1.00
Cu47   Cu    0.16667   0.21355   0.25000   0.00000  Uiso   1.00
Cu48   Cu    0.16667   0.11978   0.25000   0.00000  Uiso   1.00
H49    H     0.30207   0.13320   0.39641   0.00000  Uiso   1.00
H50    H     0.03127   0.20014   0.10360   0.00000  Uiso   1.00
H51    H     0.06577   0.07310   0.15900   0.00000  Uiso   1.00
H52    H     0.26755   0.26022   0.34101   0.00000  Uiso   1.00
H53    H     0.26426   0.07580   0.34286   0.00000  Uiso   1.00
H54    H     0.06908   0.25751   0.15714   0.00000  Uiso   1.00
N55    N     0.16667   0.28402   0.25000   0.00000  Uiso   1.00
N56    N     0.16667   0.04931   0.25000   0.00000  Uiso   1.00
O57    O     0.10655   0.20625   0.25000   0.00000  Uiso   1.00
O58    O     0.27607   0.13758   0.41342   0.00000  Uiso   1.00
O59    O     0.08207   0.16042   0.14979   0.00000  Uiso   1.00
O60    O     0.05727   0.19578   0.08660   0.00000  Uiso   1.00
O61    O     0.13566   0.05295   0.14442   0.00000  Uiso   1.00
O62    O     0.08033   0.06119   0.18732   0.00000  Uiso   1.00
O63    O     0.19766   0.28038   0.35558   0.00000  Uiso   1.00
O64    O     0.25299   0.27214   0.31269   0.00000  Uiso   1.00
O65    O     0.19562   0.05052   0.35636   0.00000  Uiso   1.00
O66    O     0.25079   0.06337   0.31431   0.00000  Uiso   1.00
O67    O     0.13771   0.28281   0.14364   0.00000  Uiso   1.00
O68    O     0.22679   0.12709   0.25001   0.00000  Uiso   1.00
O69    O     0.08254   0.26997   0.18569   0.00000  Uiso   1.00
O70    O     0.22679   0.20625   0.25001   0.00000  Uiso   1.00
O71    O     0.10655   0.12709   0.25000   0.00000  Uiso   1.00
O72    O     0.16666   0.20627   0.18513   0.00000  Uiso   1.00
O73    O     0.16668   0.12707   0.31487   0.00000  Uiso   1.00
O74    O     0.16668   0.20627   0.31487   0.00000  Uiso   1.00
O75    O     0.16666   0.12707   0.18513   0.00000  Uiso   1.00
O76    O     0.25126   0.17287   0.35020   0.00000  Uiso   1.00
Br77   Br    0.41273   0.17213   0.37076   0.00000  Uiso   1.00
Br78   Br    0.37704   0.26672   0.27700   0.00000  Uiso   1.00
Br79   Br    0.58727   0.16121   0.12923   0.00000  Uiso   1.00
Br80   Br    0.39260   0.09227   0.44093   0.00000  Uiso   1.00
Br81   Br    0.60740   0.24108   0.05907   0.00000  Uiso   1.00
Br82   Br    0.39077   0.09512   0.04891   0.00000  Uiso   1.00
Br83   Br    0.60922   0.23824   0.45109   0.00000  Uiso   1.00
Br84   Br    0.37832   0.06803   0.28150   0.00000  Uiso   1.00
Br85   Br    0.62168   0.26531   0.21850   0.00000  Uiso   1.00
Br86   Br    0.62296   0.06662   0.22300   0.00000  Uiso   1.00
C87    C     0.42101   0.16674   0.25397   0.00000  Uiso   1.00
C88    C     0.37610   0.16688   0.25745   0.00000  Uiso   1.00
C89    C     0.47864   0.02484   0.21724   0.00000  Uiso   1.00
C90    C     0.52136   0.30849   0.28276   0.00000  Uiso   1.00
C91    C     0.52121   0.02450   0.28286   0.00000  Uiso   1.00
C92    C     0.47879   0.30884   0.21714   0.00000  Uiso   1.00
C93    C     0.49971   0.16675   0.16463   0.00000  Uiso   1.00
C94    C     0.50029   0.16658   0.33537   0.00000  Uiso   1.00
C95    C     0.53833   0.17089   0.40886   0.00000  Uiso   1.00
C96    C     0.46167   0.16245   0.09114   0.00000  Uiso   1.00
C97    C     0.50090   0.16633   0.38374   0.00000  Uiso   1.00
C98    C     0.57899   0.16659   0.24603   0.00000  Uiso   1.00
C99    C     0.49909   0.16700   0.11627   0.00000  Uiso   1.00
C100   C     0.46367   0.16034   0.40482   0.00000  Uiso   1.00
C101   C     0.53632   0.17300   0.09518   0.00000  Uiso   1.00
C102   C     0.46447   0.15298   0.45122   0.00000  Uiso   1.00
C103   C     0.53553   0.18037   0.04878   0.00000  Uiso   1.00
C104   C     0.50027   0.16623   0.47661   0.00000  Uiso   1.00
C105   C     0.49973   0.16712   0.02339   0.00000  Uiso   1.00
C106   C     0.53661   0.17867   0.45515   0.00000  Uiso   1.00
C107   C     0.46339   0.15467   0.04485   0.00000  Uiso   1.00
C108   C     0.43157   0.13197   0.47300   0.00000  Uiso   1.00
C109   C     0.43104   0.13280   0.01979   0.00000  Uiso   1.00
C110   C     0.56843   0.20138   0.02701   0.00000  Uiso   1.00
C111   C     0.57850   0.16113   0.38846   0.00000  Uiso   1.00
C112   C     0.42150   0.17220   0.11154   0.00000  Uiso   1.00
C113   C     0.45453   0.04879   0.18114   0.00000  Uiso   1.00
C114   C     0.54546   0.28455   0.31887   0.00000  Uiso   1.00
C115   C     0.54401   0.04817   0.31980   0.00000  Uiso   1.00
C116   C     0.45599   0.28516   0.18020   0.00000  Uiso   1.00
C117   C     0.56896   0.20055   0.48021   0.00000  Uiso   1.00
C118   C     0.35445   0.12465   0.25698   0.00000  Uiso   1.00
C119   C     0.64554   0.20868   0.24302   0.00000  Uiso   1.00
C120   C     0.64600   0.12433   0.24501   0.00000  Uiso   1.00
C121   C     0.35400   0.20901   0.25499   0.00000  Uiso   1.00
C122   C     0.62390   0.16646   0.24255   0.00000  Uiso   1.00
Cu123  Cu    0.50000   0.21355   0.25000   0.00000  Uiso   1.00
Cu124  Cu    0.50000   0.11978   0.25000   0.00000  Uiso   1.00
H125   H     0.63540   0.13320   0.39641   0.00000  Uiso   1.00
H126   H     0.36460   0.20014   0.10360   0.00000  Uiso   1.00
H127   H     0.39910   0.07310   0.15900   0.00000  Uiso   1.00
H128   H     0.60089   0.26022   0.34101   0.00000  Uiso   1.00
H129   H     0.59759   0.07580   0.34286   0.00000  Uiso   1.00
H130   H     0.40242   0.25751   0.15714   0.00000  Uiso   1.00
N131   N     0.50000   0.28402   0.25000   0.00000  Uiso   1.00
N132   N     0.50000   0.04931   0.25000   0.00000  Uiso   1.00
O133   O     0.43988   0.20625   0.25000   0.00000  Uiso   1.00
O134   O     0.60941   0.13758   0.41342   0.00000  Uiso   1.00
O135   O     0.41541   0.16042   0.14979   0.00000  Uiso   1.00
O136   O     0.39060   0.19578   0.08660   0.00000  Uiso   1.00
O137   O     0.46900   0.05295   0.14442   0.00000  Uiso   1.00
O138   O     0.41367   0.06119   0.18732   0.00000  Uiso   1.00
O139   O     0.53100   0.28038   0.35558   0.00000  Uiso   1.00
O140   O     0.58633   0.27214   0.31269   0.00000  Uiso   1.00
O141   O     0.52895   0.05052   0.35636   0.00000  Uiso   1.00
O142   O     0.58413   0.06337   0.31431   0.00000  Uiso   1.00
O143   O     0.47105   0.28281   0.14364   0.00000  Uiso   1.00
O144   O     0.56012   0.12709   0.25001   0.00000  Uiso   1.00
O145   O     0.41588   0.26997   0.18569   0.00000  Uiso   1.00
O146   O     0.56012   0.20625   0.25001   0.00000  Uiso   1.00
O147   O     0.43988   0.12709   0.25000   0.00000  Uiso   1.00
O148   O     0.49999   0.20627   0.18513   0.00000  Uiso   1.00
O149   O     0.50001   0.12707   0.31487   0.00000  Uiso   1.00
O150   O     0.50001   0.20627   0.31487   0.00000  Uiso   1.00
O151   O     0.49999   0.12707   0.18513   0.00000  Uiso   1.00
O152   O     0.58459   0.17287   0.35020   0.00000  Uiso   1.00
Br153  Br    0.74606   0.17213   0.37076   0.00000  Uiso   1.00
Br154  Br    0.71037   0.26672   0.27700   0.00000  Uiso   1.00
Br155  Br    0.92060   0.16121   0.12923   0.00000  Uiso   1.00
Br156  Br    0.72593   0.09227   0.44093   0.00000  Uiso   1.00
Br157  Br    0.94073   0.24108   0.05907   0.00000  Uiso   1.00
Br158  Br    0.72411   0.09512   0.04891   0.00000  Uiso   1.00
Br159  Br    0.94255   0.23824   0.45109   0.00000  Uiso   1.00
Br160  Br    0.71165   0.06803   0.28150   0.00000  Uiso   1.00
Br161  Br    0.95501   0.26531   0.21850   0.00000  Uiso   1.00
Br162  Br    0.95629   0.06662   0.22300   0.00000  Uiso   1.00
C163   C     0.75434   0.16674   0.25397   0.00000  Uiso   1.00
C164   C     0.70943   0.16688   0.25745   0.00000  Uiso   1.00
C165   C     0.81197   0.02484   0.21724   0.00000  Uiso   1.00
C166   C     0.85469   0.30849   0.28276   0.00000  Uiso   1.00
C167   C     0.85455   0.02450   0.28286   0.00000  Uiso   1.00
C168   C     0.81212   0.30884   0.21714   0.00000  Uiso   1.00
C169   C     0.83304   0.16675   0.16463   0.00000  Uiso   1.00
C170   C     0.83363   0.16658   0.33537   0.00000  Uiso   1.00
C171   C     0.87166   0.17089   0.40886   0.00000  Uiso   1.00
C172   C     0.79501   0.16245   0.09114   0.00000  Uiso   1.00
C173   C     0.83424   0.16633   0.38374   0.00000  Uiso   1.00
C174   C     0.91232   0.16659   0.24603   0.00000  Uiso   1.00
C175   C     0.83243   0.16700   0.11627   0.00000  Uiso   1.00
C176   C     0.79701   0.16034   0.40482   0.00000  Uiso   1.00
C177   C     0.86966   0.17300   0.09518   0.00000  Uiso   1.00
C178   C     0.79780   0.15298   0.45122   0.00000  Uiso   1.00
C179   C     0.86886   0.18037   0.04878   0.00000  Uiso   1.00
C180   C     0.83360   0.16623   0.47661   0.00000  Uiso   1.00
C181   C     0.83306   0.16712   0.02339   0.00000  Uiso   1.00
C182   C     0.86994   0.17867   0.45515   0.00000  Uiso   1.00
C183   C     0.79672   0.15467   0.04485   0.00000  Uiso   1.00
C184   C     0.76490   0.13197   0.47300   0.00000  Uiso   1.00
C185   C     0.76437   0.13280   0.01979   0.00000  Uiso   1.00
C186   C     0.90176   0.20138   0.02701   0.00000  Uiso   1.00
C187   C     0.91183   0.16113   0.38846   0.00000  Uiso   1.00
C188   C     0.75483   0.17220   0.11154   0.00000  Uiso   1.00
C189   C     0.78786   0.04879   0.18114   0.00000  Uiso   1.00
C190   C     0.87880   0.28455   0.31887   0.00000  Uiso   1.00
C191   C     0.87735   0.04817   0.31980   0.00000  Uiso   1.00
C192   C     0.78932   0.28516   0.18020   0.00000  Uiso   1.00
C193   C     0.90229   0.20055   0.48021   0.00000  Uiso   1.00
C194   C     0.68779   0.12465   0.25698   0.00000  Uiso   1.00
C195   C     0.97888   0.20868   0.24302   0.00000  Uiso   1.00
C196   C     0.97933   0.12433   0.24501   0.00000  Uiso   1.00
C197   C     0.68733   0.20901   0.25499   0.00000  Uiso   1.00
C198   C     0.95724   0.16646   0.24255   0.00000  Uiso   1.00
Cu199  Cu    0.83333   0.21355   0.25000   0.00000  Uiso   1.00
Cu200  Cu    0.83333   0.11978   0.25000   0.00000  Uiso   1.00
H201   H     0.96874   0.13320   0.39641   0.00000  Uiso   1.00
H202   H     0.69793   0.20014   0.10360   0.00000  Uiso   1.00
H203   H     0.73243   0.07310   0.15900   0.00000  Uiso   1.00
H204   H     0.93422   0.26022   0.34101   0.00000  Uiso   1.00
H205   H     0.93093   0.07580   0.34286   0.00000  Uiso   1.00
H206   H     0.73575   0.25751   0.15714   0.00000  Uiso   1.00
N207   N     0.83333   0.28402   0.25000   0.00000  Uiso   1.00
N208   N     0.83333   0.04931   0.25000   0.00000  Uiso   1.00
O209   O     0.77321   0.20625   0.25000   0.00000  Uiso   1.00
O210   O     0.94274   0.13758   0.41342   0.00000  Uiso   1.00
O211   O     0.74874   0.16042   0.14979   0.00000  Uiso   1.00
O212   O     0.72393   0.19578   0.08660   0.00000  Uiso   1.00
O213   O     0.80233   0.05295   0.14442   0.00000  Uiso   1.00
O214   O     0.74700   0.06119   0.18732   0.00000  Uiso   1.00
O215   O     0.86433   0.28038   0.35558   0.00000  Uiso   1.00
O216   O     0.91966   0.27214   0.31269   0.00000  Uiso   1.00
O217   O     0.86229   0.05052   0.35636   0.00000  Uiso   1.00
O218   O     0.91746   0.06337   0.31431   0.00000  Uiso   1.00
O219   O     0.80438   0.28281   0.14364   0.00000  Uiso   1.00
O220   O     0.89345   0.12709   0.25001   0.00000  Uiso   1.00
O221   O     0.74921   0.26997   0.18569   0.00000  Uiso   1.00
O222   O     0.89345   0.20625   0.25001   0.00000  Uiso   1.00
O223   O     0.77321   0.12709   0.25000   0.00000  Uiso   1.00
O224   O     0.83332   0.20627   0.18513   0.00000  Uiso   1.00
O225   O     0.83334   0.12707   0.31487   0.00000  Uiso   1.00
O226   O     0.83334   0.20627   0.31487   0.00000  Uiso   1.00
O227   O     0.83332   0.12707   0.18513   0.00000  Uiso   1.00
O228   O     0.91792   0.17287   0.35020   0.00000  Uiso   1.00
Br229  Br    0.07940   0.50546   0.37076   0.00000  Uiso   1.00
Br230  Br    0.04371   0.60005   0.27700   0.00000  Uiso   1.00
Br231  Br    0.25394   0.49455   0.12923   0.00000  Uiso   1.00
Br232  Br    0.05927   0.42560   0.44093   0.00000  Uiso   1.00
Br233  Br    0.27406   0.57441   0.05907   0.00000  Uiso   1.00
Br234  Br    0.05744   0.42845   0.04891   0.00000  Uiso   1.00
Br235  Br    0.27588   0.57158   0.45109   0.00000  Uiso   1.00
Br236  Br    0.04499   0.40136   0.28150   0.00000  Uiso   1.00
Br237  Br    0.28835   0.59864   0.21850   0.00000  Uiso   1.00
Br238  Br    0.28963   0.39995   0.22300   0.00000  Uiso   1.00
C239   C     0.08768   0.50008   0.25397   0.00000  Uiso   1.00
C240   C     0.04276   0.50021   0.25745   0.00000  Uiso   1.00
C241   C     0.14531   0.35818   0.21724   0.00000  Uiso   1.00
C242   C     0.18802   0.64182   0.28276   0.00000  Uiso   1.00
C243   C     0.18788   0.35783   0.28286   0.00000  Uiso   1.00
C244   C     0.14545   0.64217   0.21714   0.00000  Uiso   1.00
C245   C     0.16637   0.50009   0.16463   0.00000  Uiso   1.00
C246   C     0.16696   0.49992   0.33537   0.00000  Uiso   1.00
C247   C     0.20499   0.50422   0.40886   0.00000  Uiso   1.00
C248   C     0.12834   0.49578   0.09114   0.00000  Uiso   1.00
C249   C     0.16757   0.49966   0.38374   0.00000  Uiso   1.00
C250   C     0.24566   0.49992   0.24603   0.00000  Uiso   1.00
C251   C     0.16576   0.50034   0.11627   0.00000  Uiso   1.00
C252   C     0.13034   0.49367   0.40482   0.00000  Uiso   1.00
C253   C     0.20299   0.50633   0.09518   0.00000  Uiso   1.00
C254   C     0.13114   0.48631   0.45122   0.00000  Uiso   1.00
C255   C     0.20220   0.51370   0.04878   0.00000  Uiso   1.00
C256   C     0.16694   0.49956   0.47661   0.00000  Uiso   1.00
C257   C     0.16639   0.50045   0.02339   0.00000  Uiso   1.00
C258   C     0.20328   0.51201   0.45515   0.00000  Uiso   1.00
C259   C     0.13005   0.48801   0.04485   0.00000  Uiso   1.00
C260   C     0.09824   0.46530   0.47300   0.00000  Uiso   1.00
C261   C     0.09771   0.46614   0.01979   0.00000  Uiso   1.00
C262   C     0.23509   0.53471   0.02701   0.00000  Uiso   1.00
C263   C     0.24517   0.49446   0.38846   0.00000  Uiso   1.00
C264   C     0.08817   0.50554   0.11154   0.00000  Uiso   1.00
C265   C     0.12120   0.38212   0.18114   0.00000  Uiso   1.00
C266   C     0.21213   0.61788   0.31887   0.00000  Uiso   1.00
C267   C     0.21068   0.38150   0.31980   0.00000  Uiso   1.00
C268   C     0.12265   0.61850   0.18020   0.00000  Uiso   1.00
C269   C     0.23562   0.53388   0.48021   0.00000  Uiso   1.00
C270   C     0.02112   0.45799   0.25698   0.00000  Uiso   1.00
C271   C     0.31221   0.54202   0.24302   0.00000  Uiso   1.00
C272   C     0.31267   0.45766   0.24501   0.00000  Uiso   1.00
C273   C     0.02066   0.54234   0.25499   0.00000  Uiso   1.00
C274   C     0.29057   0.49979   0.24255   0.00000  Uiso   1.00
Cu275  Cu    0.16667   0.54689   0.25000   0.00000  Uiso   1.00
Cu276  Cu    0.16667   0.45311   0.25000   0.00000  Uiso   1.00
H277   H     0.30207   0.46653   0.39641   0.00000  Uiso   1.00
H278   H     0.03127   0.53348   0.10360   0.00000  Uiso   1.00
H279   H     0.06577   0.40643   0.15900   0.00000  Uiso   1.00
H280   H     0.26755   0.59356   0.34101   0.00000  Uiso   1.00
H281   H     0.26426   0.40913   0.34286   0.00000  Uiso   1.00
H282   H     0.06908   0.59084   0.15714   0.00000  Uiso   1.00
N283   N     0.16667   0.61736   0.25000   0.00000  Uiso   1.00
N284   N     0.16667   0.38264   0.25000   0.00000  Uiso   1.00
O285   O     0.10655   0.53958   0.25000   0.00000  Uiso   1.00
O286   O     0.27607   0.47091   0.41342   0.00000  Uiso   1.00
O287   O     0.08207   0.49376   0.14979   0.00000  Uiso   1.00
O288   O     0.05727   0.52911   0.08660   0.00000  Uiso   1.00
O289   O     0.13566   0.38628   0.14442   0.00000  Uiso   1.00
O290   O     0.08033   0.39452   0.18732   0.00000  Uiso   1.00
O291   O     0.19766   0.61372   0.35558   0.00000  Uiso   1.00
O292   O     0.25299   0.60547   0.31269   0.00000  Uiso   1.00
O293   O     0.19562   0.38386   0.35636   0.00000  Uiso   1.00
O294   O     0.25079   0.39670   0.31431   0.00000  Uiso   1.00
O295   O     0.13771   0.61614   0.14364   0.00000  Uiso   1.00
O296   O     0.22679   0.46042   0.25001   0.00000  Uiso   1.00
O297   O     0.08254   0.60330   0.18569   0.00000  Uiso   1.00
O298   O     0.22679   0.53958   0.25001   0.00000  Uiso   1.00
O299   O     0.10655   0.46042   0.25000   0.00000  Uiso   1.00
O300   O     0.16666   0.53960   0.18513   0.00000  Uiso   1.00
O301   O     0.16668   0.46040   0.31487   0.00000  Uiso   1.00
O302   O     0.16668   0.53960   0.31487   0.00000  Uiso   1.00
O303   O     0.16666   0.46040   0.18513   0.00000  Uiso   1.00
O304   O     0.25126   0.50621   0.35020   0.00000  Uiso   1.00
Br305  Br    0.41273   0.50546   0.37076   0.00000  Uiso   1.00
Br306  Br    0.37704   0.60005   0.27700   0.00000  Uiso   1.00
Br307  Br    0.58727   0.49455   0.12923   0.00000  Uiso   1.00
Br308  Br    0.39260   0.42560   0.44093   0.00000  Uiso   1.00
Br309  Br    0.60740   0.57441   0.05907   0.00000  Uiso   1.00
Br310  Br    0.39077   0.42845   0.04891   0.00000  Uiso   1.00
Br311  Br    0.60922   0.57158   0.45109   0.00000  Uiso   1.00
Br312  Br    0.37832   0.40136   0.28150   0.00000  Uiso   1.00
Br313  Br    0.62168   0.59864   0.21850   0.00000  Uiso   1.00
Br314  Br    0.62296   0.39995   0.22300   0.00000  Uiso   1.00
C315   C     0.42101   0.50008   0.25397   0.00000  Uiso   1.00
C316   C     0.37610   0.50021   0.25745   0.00000  Uiso   1.00
C317   C     0.47864   0.35818   0.21724   0.00000  Uiso   1.00
C318   C     0.52136   0.64182   0.28276   0.00000  Uiso   1.00
C319   C     0.52121   0.35783   0.28286   0.00000  Uiso   1.00
C320   C     0.47879   0.64217   0.21714   0.00000  Uiso   1.00
C321   C     0.49971   0.50009   0.16463   0.00000  Uiso   1.00
C322   C     0.50029   0.49992   0.33537   0.00000  Uiso   1.00
C323   C     0.53833   0.50422   0.40886   0.00000  Uiso   1.00
C324   C     0.46167   0.49578   0.09114   0.00000  Uiso   1.00
C325   C     0.50090   0.49966   0.38374   0.00000  Uiso   1.00
C326   C     0.57899   0.49992   0.24603   0.00000  Uiso   1.00
C327   C     0.49909   0.50034   0.11627   0.00000  Uiso   1.00
C328   C     0.46367   0.49367   0.40482   0.00000  Uiso   1.00
C329   C     0.53632   0.50633   0.09518   0.00000  Uiso   1.00
C330   C     0.46447   0.48631   0.45122   0.00000  Uiso   1.00
C331   C     0.53553   0.51370   0.04878   0.00000  Uiso   1.00
C332   C     0.50027   0.49956   0.47661   0.00000  Uiso   1.00
C333   C     0.49973   0.50045   0.02339   0.00000  Uiso   1.00
C334   C     0.53661   0.51201   0.45515   0.00000  Uiso   1.00
C335   C     0.46339   0.48801   0.04485   0.00000  Uiso   1.00
C336   C     0.43157   0.46530   0.47300   0.00000  Uiso   1.00
C337   C     0.43104   0.46614   0.01979   0.00000  Uiso   1.00
C338   C     0.56843   0.53471   0.02701   0.00000  Uiso   1.00
C339   C     0.57850   0.49446   0.38846   0.00000  Uiso   1.00
C340   C     0.42150   0.50554   0.11154   0.00000  Uiso   1.00
C341   C     0.45453   0.38212   0.18114   0.00000  Uiso   1.00
C342   C     0.54546   0.61788   0.31887   0.00000  Uiso   1.00
C343   C     0.54401   0.38150   0.31980   0.00000  Uiso   1.00
C344   C     0.45599   0.61850   0.18020   0.00000  Uiso   1.00
C345   C     0.56896   0.53388   0.48021   0.00000  Uiso   1.00
C346   C     0.35445   0.45799   0.25698   0.00000  Uiso   1.00
C347   C     0.64554   0.54202   0.24302   0.00000  Uiso   1.00
C348   C     0.64600   0.45766   0.24501   0.00000  Uiso   1.00
C349   C     0.35400   0.54234   0.25499   0.00000  Uiso   1.00
C350   C     0.62390   0.49979   0.24255   0.00000  Uiso   1.00
Cu351  Cu    0.50000   0.54689   0.25000   0.00000  Uiso   1.00
Cu352  Cu    0.50000   0.45311   0.25000   0.00000  Uiso   1.00
H353   H     0.63540   0.46653   0.39641   0.00000  Uiso   1.00
H354   H     0.36460   0.53348   0.10360   0.00000  Uiso   1.00
H355   H     0.39910   0.40643   0.15900   0.00000  Uiso   1.00
H356   H     0.60089   0.59356   0.34101   0.00000  Uiso   1.00
H357   H     0.59759   0.40913   0.34286   0.00000  Uiso   1.00
H358   H     0.40242   0.59084   0.15714   0.00000  Uiso   1.00
N359   N     0.50000   0.61736   0.25000   0.00000  Uiso   1.00
N360   N     0.50000   0.38264   0.25000   0.00000  Uiso   1.00
O361   O     0.43988   0.53958   0.25000   0.00000  Uiso   1.00
O362   O     0.60941   0.47091   0.41342   0.00000  Uiso   1.00
O363   O     0.41541   0.49376   0.14979   0.00000  Uiso   1.00
O364   O     0.39060   0.52911   0.08660   0.00000  Uiso   1.00
O365   O     0.46900   0.38628   0.14442   0.00000  Uiso   1.00
O366   O     0.41367   0.39452   0.18732   0.00000  Uiso   1.00
O367   O     0.53100   0.61372   0.35558   0.00000  Uiso   1.00
O368   O     0.58633   0.60547   0.31269   0.00000  Uiso   1.00
O369   O     0.52895   0.38386   0.35636   0.00000  Uiso   1.00
O370   O     0.58413   0.39670   0.31431   0.00000  Uiso   1.00
O371   O     0.47105   0.61614   0.14364   0.00000  Uiso   1.00
O372   O     0.56012   0.46042   0.25001   0.00000  Uiso   1.00
O373   O     0.41588   0.60330   0.18569   0.00000  Uiso   1.00
O374   O     0.56012   0.53958   0.25001   0.00000  Uiso   1.00
O375   O     0.43988   0.46042   0.25000   0.00000  Uiso   1.00
O376   O     0.49999   0.53960   0.18513   0.00000  Uiso   1.00
O377   O     0.50001   0.46040   0.31487   0.00000  Uiso   1.00
O378   O     0.50001   0.53960   0.31487   0.00000  Uiso   1.00
O379   O     0.49999   0.46040   0.18513   0.00000  Uiso   1.00
O380   O     0.58459   0.50621   0.35020   0.00000  Uiso   1.00
Br381  Br    0.74606   0.50546   0.37076   0.00000  Uiso   1.00
Br382  Br    0.71037   0.60005   0.27700   0.00000  Uiso   1.00
Br383  Br    0.92060   0.49455   0.12923   0.00000  Uiso   1.00
Br384  Br    0.72593   0.42560   0.44093   0.00000  Uiso   1.00
Br385  Br    0.94073   0.57441   0.05907   0.00000  Uiso   1.00
Br386  Br    0.72411   0.42845   0.04891   0.00000  Uiso   1.00
Br387  Br    0.94255   0.57158   0.45109   0.00000  Uiso   1.00
Br388  Br    0.71165   0.40136   0.28150   0.00000  Uiso   1.00
Br389  Br    0.95501   0.59864   0.21850   0.00000  Uiso   1.00
Br390  Br    0.95629   0.39995   0.22300   0.00000  Uiso   1.00
C391   C     0.75434   0.50008   0.25397   0.00000  Uiso   1.00
C392   C     0.70943   0.50021   0.25745   0.00000  Uiso   1.00
C393   C     0.81197   0.35818   0.21724   0.00000  Uiso   1.00
C394   C     0.85469   0.64182   0.28276   0.00000  Uiso   1.00
C395   C     0.85455   0.35783   0.28286   0.00000  Uiso   1.00
C396   C     0.81212   0.64217   0.21714   0.00000  Uiso   1.00
C397   C     0.83304   0.50009   0.16463   0.00000  Uiso   1.00
C398   C     0.83363   0.49992   0.33537   0.00000  Uiso   1.00
C399   C     0.87166   0.50422   0.40886   0.00000  Uiso   1.00
C400   C     0.79501   0.49578   0.09114   0.00000  Uiso   1.00
C401   C     0.83424   0.49966   0.38374   0.00000  Uiso   1.00
C402   C     0.91232   0.49992   0.24603   0.00000  Uiso   1.00
C403   C     0.83243   0.50034   0.11627   0.00000  Uiso   1.00
C404   C     0.79701   0.49367   0.40482   0.00000  Uiso   1.00
C405   C     0.86966   0.50633   0.09518   0.00000  Uiso   1.00
C406   C     0.79780   0.48631   0.45122   0.00000  Uiso   1.00
C407   C     0.86886   0.51370   0.04878   0.00000  Uiso   1.00
C408   C     0.83360   0.49956   0.47661   0.00000  Uiso   1.00
C409   C     0.83306   0.50045   0.02339   0.00000  Uiso   1.00
C410   C     0.86994   0.51201   0.45515   0.00000  Uiso   1.00
C411   C     0.79672   0.48801   0.04485   0.00000  Uiso   1.00
C412   C     0.76490   0.46530   0.47300   0.00000  Uiso   1.00
C413   C     0.76437   0.46614   0.01979   0.00000  Uiso   1.00
C414   C     0.90176   0.53471   0.02701   0.00000  Uiso   1.00
C415   C     0.91183   0.49446   0.38846   0.00000  Uiso   1.00
C416   C     0.75483   0.50554   0.11154   0.00000  Uiso   1.00
C417   C     0.78786   0.38212   0.18114   0.00000  Uiso   1.00
C418   C     0.87880   0.61788   0.31887   0.00000  Uiso   1.00
C419   C     0.87735   0.38150   0.31980   0.00000  Uiso   1.00
C420   C     0.78932   0.61850   0.18020   0.00000  Uiso   1.00
C421   C     0.90229   0.53388   0.48021   0.00000  Uiso   1.00
C422   C     0.68779   0.45799   0.25698   0.00000  Uiso   1.00
C423   C     0.97888   0.54202   0.24302   0.00000  Uiso   1.00
C424   C     0.97933   0.45766   0.24501   0.00000  Uiso   1.00
C425   C     0.68733   0.54234   0.25499   0.00000  Uiso   1.00
C426   C     0.95724   0.49979   0.24255   0.00000  Uiso   1.00
Cu427  Cu    0.83333   0.54689   0.25000   0.00000  Uiso   1.00
Cu428  Cu    0.83333   0.45311   0.25000   0.00000  Uiso   1.00
H429   H     0.96874   0.46653   0.39641   0.00000  Uiso   1.00
H430   H     0.69793   0.53348   0.10360   0.00000  Uiso   1.00
H431   H     0.73243   0.40643   0.15900   0.00000  Uiso   1.00
H432   H     0.93422   0.59356   0.34101   0.00000  Uiso   1.00
H433   H     0.93093   0.40913   0.34286   0.00000  Uiso   1.00
H434   H     0.73575   0.59084   0.15714   0.00000  Uiso   1.00
N435   N     0.83333   0.61736   0.25000   0.00000  Uiso   1.00
N436   N     0.83333   0.38264   0.25000   0.00000  Uiso   1.00
O437   O     0.77321   0.53958   0.25000   0.00000  Uiso   1.00
O438   O     0.94274   0.47091   0.41342   0.00000  Uiso   1.00
O439   O     0.74874   0.49376   0.14979   0.00000  Uiso   1.00
O440   O     0.72393   0.52911   0.08660   0.00000  Uiso   1.00
O441   O     0.80233   0.38628   0.14442   0.00000  Uiso   1.00
O442   O     0.74700   0.39452   0.18732   0.00000  Uiso   1.00
O443   O     0.86433   0.61372   0.35558   0.00000  Uiso   1.00
O444   O     0.91966   0.60547   0.31269   0.00000  Uiso   1.00
O445   O     0.86229   0.38386   0.35636   0.00000  Uiso   1.00
O446   O     0.91746   0.39670   0.31431   0.00000  Uiso   1.00
O447   O     0.80438   0.61614   0.14364   0.00000  Uiso   1.00
O448   O     0.89345   0.46042   0.25001   0.00000  Uiso   1.00
O449   O     0.74921   0.60330   0.18569   0.00000  Uiso   1.00
O450   O     0.89345   0.53958   0.25001   0.00000  Uiso   1.00
O451   O     0.77321   0.46042   0.25000   0.00000  Uiso   1.00
O452   O     0.83332   0.53960   0.18513   0.00000  Uiso   1.00
O453   O     0.83334   0.46040   0.31487   0.00000  Uiso   1.00
O454   O     0.83334   0.53960   0.31487   0.00000  Uiso   1.00
O455   O     0.83332   0.46040   0.18513   0.00000  Uiso   1.00
O456   O     0.91792   0.50621   0.35020   0.00000  Uiso   1.00
Br457  Br    0.07940   0.83879   0.37076   0.00000  Uiso   1.00
Br458  Br    0.04371   0.93338   0.27700   0.00000  Uiso   1.00
Br459  Br    0.25394   0.82788   0.12923   0.00000  Uiso   1.00
Br460  Br    0.05927   0.75894   0.44093   0.00000  Uiso   1.00
Br461  Br    0.27406   0.90775   0.05907   0.00000  Uiso   1.00
Br462  Br    0.05744   0.76179   0.04891   0.00000  Uiso   1.00
Br463  Br    0.27588   0.90491   0.45109   0.00000  Uiso   1.00
Br464  Br    0.04499   0.73469   0.28150   0.00000  Uiso   1.00
Br465  Br    0.28835   0.93198   0.21850   0.00000  Uiso   1.00
Br466  Br    0.28963   0.73329   0.22300   0.00000  Uiso   1.00
C467   C     0.08768   0.83341   0.25397   0.00000  Uiso   1.00
C468   C     0.04276   0.83355   0.25745   0.00000  Uiso   1.00
C469   C     0.14531   0.69151   0.21724   0.00000  Uiso   1.00
C470   C     0.18802   0.97516   0.28276   0.00000  Uiso   1.00
C471   C     0.18788   0.69116   0.28286   0.00000  Uiso   1.00
C472   C     0.14545   0.97550   0.21714   0.00000  Uiso   1.00
C473   C     0.16637   0.83342   0.16463   0.00000  Uiso   1.00
C474   C     0.16696   0.83325   0.33537   0.00000  Uiso   1.00
C475   C     0.20499   0.83756   0.40886   0.00000  Uiso   1.00
C476   C     0.12834   0.82911   0.09114   0.00000  Uiso   1.00
C477   C     0.16757   0.83300   0.38374   0.00000  Uiso   1.00
C478   C     0.24566   0.83326   0.24603   0.00000  Uiso   1.00
C479   C     0.16576   0.83367   0.11627   0.00000  Uiso   1.00
C480   C     0.13034   0.82700   0.40482   0.00000  Uiso   1.00
C481   C     0.20299   0.83967   0.09518   0.00000  Uiso   1.00
C482   C     0.13114   0.81964   0.45122   0.00000  Uiso   1.00
C483   C     0.20220   0.84703   0.04878   0.00000  Uiso   1.00
C484   C     0.16694   0.83290   0.47661   0.00000  Uiso   1.00
C485   C     0.16639   0.83378   0.02339   0.00000  Uiso   1.00
C486   C     0.20328   0.84534   0.45515   0.00000  Uiso   1.00
C487   C     0.13005   0.82134   0.04485   0.00000  Uiso   1.00
C488   C     0.09824   0.79864   0.47300   0.00000  Uiso   1.00
C489   C     0.09771   0.79947   0.01979   0.00000  Uiso   1.00
C490   C     0.23509   0.86804   0.02701   0.00000  Uiso   1.00
C491   C     0.24517   0.82780   0.38846   0.00000  Uiso   1.00
C492   C     0.08817   0.83887   0.11154   0.00000  Uiso   1.00
C493   C     0.12120   0.71545   0.18114   0.00000  Uiso   1.00
C494   C     0.21213   0.95121   0.31887   0.00000  Uiso   1.00
C495   C     0.21068   0.71484   0.31980   0.00000  Uiso   1.00
C496   C     0.12265   0.95183   0.18020   0.00000  Uiso   1.00
C497   C     0.23562   0.86722   0.48021   0.00000  Uiso   1.00
C498   C     0.02112   0.79132   0.25698   0.00000  Uiso   1.00
C499   C     0.31221   0.87535   0.24302   0.00000  Uiso   1.00
C500   C     0.31267   0.79100   0.24501   0.00000  Uiso   1.00
C501   C     0.02066   0.87567   0.25499   0.00000  Uiso   1.00
C502   C     0.29057   0.83312   0.24255   0.00000  Uiso   1.00
Cu503  Cu    0.16667   0.88022   0.25000   0.00000  Uiso   1.00
Cu504  Cu    0.16667   0.78645   0.25000   0.00000  Uiso   1.00
H505   H     0.30207   0.79986   0.39641   0.00000  Uiso   1.00
H506   H     0.03127   0.86681   0.10360   0.00000  Uiso   1.00
H507   H     0.06577   0.73977   0.15900   0.00000  Uiso   1.00
H508   H     0.26755   0.92689   0.34101   0.00000  Uiso   1.00
H509   H     0.26426   0.74247   0.34286   0.00000  Uiso   1.00
H510   H     0.06908   0.92417   0.15714   0.00000  Uiso   1.00
N511   N     0.16667   0.95069   0.25000   0.00000  Uiso   1.00
N512   N     0.16667   0.71598   0.25000   0.00000  Uiso   1.00
O513   O     0.10655   0.87291   0.25000   0.00000  Uiso   1.00
O514   O     0.27607   0.80425   0.41342   0.00000  Uiso   1.00
O515   O     0.08207   0.82709   0.14979   0.00000  Uiso   1.00
O516   O     0.05727   0.86244   0.08660   0.00000  Uiso   1.00
O517   O     0.13566   0.71962   0.14442   0.00000  Uiso   1.00
O518   O     0.08033   0.72785   0.18732   0.00000  Uiso   1.00
O519   O     0.19766   0.94705   0.35558   0.00000  Uiso   1.00
O520   O     0.25299   0.93881   0.31269   0.00000  Uiso   1.00
O521   O     0.19562   0.71719   0.35636   0.00000  Uiso   1.00
O522   O     0.25079   0.73003   0.31431   0.00000  Uiso   1.00
O523   O     0.13771   0.94948   0.14364   0.00000  Uiso   1.00
O524   O     0.22679   0.79375   0.25001   0.00000  Uiso   1.00
O525   O     0.08254   0.93663   0.18569   0.00000  Uiso   1.00
O526   O     0.22679   0.87291   0.25001   0.00000  Uiso   1.00
O527   O     0.10655   0.79375   0.25000   0.00000  Uiso   1.00
O528   O     0.16666   0.87293   0.18513   0.00000  Uiso   1.00
O529   O     0.16668   0.79373   0.31487   0.00000  Uiso   1.00
O530   O     0.16668   0.87293   0.31487   0.00000  Uiso   1.00
O531   O     0.16666   0.79373   0.18513   0.00000  Uiso   1.00
O532   O     0.25126   0.83954   0.35020   0.00000  Uiso   1.00
Br533  Br    0.41273   0.83879   0.37076   0.00000  Uiso   1.00
Br534  Br    0.37704   0.93338   0.27700   0.00000  Uiso   1.00
Br535  Br    0.58727   0.82788   0.12923   0.00000  Uiso   1.00
Br536  Br    0.39260   0.75894   0.44093   0.00000  Uiso   1.00
Br537  Br    0.60740   0.90775   0.05907   0.00000  Uiso   1.00
Br538  Br    0.39077   0.76179   0.04891   0.00000  Uiso   1.00
Br539  Br    0.60922   0.90491   0.45109   0.00000  Uiso   1.00
Br540  Br    0.37832   0.73469   0.28150   0.00000  Uiso   1.00
Br541  Br    0.62168   0.93198   0.21850   0.00000  Uiso   1.00
Br542  Br    0.62296   0.73329   0.22300   0.00000  Uiso   1.00
C543   C     0.42101   0.83341   0.25397   0.00000  Uiso   1.00
C544   C     0.37610   0.83355   0.25745   0.00000  Uiso   1.00
C545   C     0.47864   0.69151   0.21724   0.00000  Uiso   1.00
C546   C     0.52136   0.97516   0.28276   0.00000  Uiso   1.00
C547   C     0.52121   0.69116   0.28286   0.00000  Uiso   1.00
C548   C     0.47879   0.97550   0.21714   0.00000  Uiso   1.00
C549   C     0.49971   0.83342   0.16463   0.00000  Uiso   1.00
C550   C     0.50029   0.83325   0.33537   0.00000  Uiso   1.00
C551   C     0.53833   0.83756   0.40886   0.00000  Uiso   1.00
C552   C     0.46167   0.82911   0.09114   0.00000  Uiso   1.00
C553   C     0.50090   0.83300   0.38374   0.00000  Uiso   1.00
C554   C     0.57899   0.83326   0.24603   0.00000  Uiso   1.00
C555   C     0.49909   0.83367   0.11627   0.00000  Uiso   1.00
C556   C     0.46367   0.82700   0.40482   0.00000  Uiso   1.00
C557   C     0.53632   0.83967   0.09518   0.00000  Uiso   1.00
C558   C     0.46447   0.81964   0.45122   0.00000  Uiso   1.00
C559   C     0.53553   0.84703   0.04878   0.00000  Uiso   1.00
C560   C     0.50027   0.83290   0.47661   0.00000  Uiso   1.00
C561   C     0.49973   0.83378   0.02339   0.00000  Uiso   1.00
C562   C     0.53661   0.84534   0.45515   0.00000  Uiso   1.00
C563   C     0.46339   0.82134   0.04485   0.00000  Uiso   1.00
C564   C     0.43157   0.79864   0.47300   0.00000  Uiso   1.00
C565   C     0.43104   0.79947   0.01979   0.00000  Uiso   1.00
C566   C     0.56843   0.86804   0.02701   0.00000  Uiso   1.00
C567   C     0.57850   0.82780   0.38846   0.00000  Uiso   1.00
C568   C     0.42150   0.83887   0.11154   0.00000  Uiso   1.00
C569   C     0.45453   0.71545   0.18114   0.00000  Uiso   1.00
C570   C     0.54546   0.95121   0.31887   0.00000  Uiso   1.00
C571   C     0.54401   0.71484   0.31980   0.00000  Uiso   1.00
C572   C     0.45599   0.95183   0.18020   0.00000  Uiso   1.00
C573   C     0.56896   0.86722   0.48021   0.00000  Uiso   1.00
C574   C     0.35445   0.79132   0.25698   0.00000  Uiso   1.00
C575   C     0.64554   0.87535   0.24302   0.00000  Uiso   1.00
C576   C     0.64600   0.79100   0.24501   0.00000  Uiso   1.00
C577   C     0.35400   0.87567   0.25499   0.00000  Uiso   1.00
C578   C     0.62390   0.83312   0.24255   0.00000  Uiso   1.00
Cu579  Cu    0.50000   0.88022   0.25000   0.00000  Uiso   1.00
Cu580  Cu    0.50000   0.78645   0.25000   0.00000  Uiso   1.00
H581   H     0.63540   0.79986   0.39641   0.00000  Uiso   1.00
H582   H     0.36460   0.86681   0.10360   0.00000  Uiso   1.00
H583   H     0.39910   0.73977   0.15900   0.00000  Uiso   1.00
H584   H     0.60089   0.92689   0.34101   0.00000  Uiso   1.00
H585   H     0.59759   0.74247   0.34286   0.00000  Uiso   1.00
H586   H     0.40242   0.92417   0.15714   0.00000  Uiso   1.00
N587   N     0.50000   0.95069   0.25000   0.00000  Uiso   1.00
N588   N     0.50000   0.71598   0.25000   0.00000  Uiso   1.00
O589   O     0.43988   0.87291   0.25000   0.00000  Uiso   1.00
O590   O     0.60941   0.80425   0.41342   0.00000  Uiso   1.00
O591   O     0.41541   0.82709   0.14979   0.00000  Uiso   1.00
O592   O     0.39060   0.86244   0.08660   0.00000  Uiso   1.00
O593   O     0.46900   0.71962   0.14442   0.00000  Uiso   1.00
O594   O     0.41367   0.72785   0.18732   0.00000  Uiso   1.00
O595   O     0.53100   0.94705   0.35558   0.00000  Uiso   1.00
O596   O     0.58633   0.93881   0.31269   0.00000  Uiso   1.00
O597   O     0.52895   0.71719   0.35636   0.00000  Uiso   1.00
O598   O     0.58413   0.73003   0.31431   0.00000  Uiso   1.00
O599   O     0.47105   0.94948   0.14364   0.00000  Uiso   1.00
O600   O     0.56012   0.79375   0.25001   0.00000  Uiso   1.00
O601   O     0.41588   0.93663   0.18569   0.00000  Uiso   1.00
O602   O     0.56012   0.87291   0.25001   0.00000  Uiso   1.00
O603   O     0.43988   0.79375   0.25000   0.00000  Uiso   1.00
O604   O     0.49999   0.87293   0.18513   0.00000  Uiso   1.00
O605   O     0.50001   0.79373   0.31487   0.00000  Uiso   1.00
O606   O     0.50001   0.87293   0.31487   0.00000  Uiso   1.00
O607   O     0.49999   0.79373   0.18513   0.00000  Uiso   1.00
O608   O     0.58459   0.83954   0.35020   0.00000  Uiso   1.00
Br609  Br    0.74606   0.83879   0.37076   0.00000  Uiso   1.00
Br610  Br    0.71037   0.93338   0.27700   0.00000  Uiso   1.00
Br611  Br    0.92060   0.82788   0.12923   0.00000  Uiso   1.00
Br612  Br    0.72593   0.75894   0.44093   0.00000  Uiso   1.00
Br613  Br    0.94073   0.90775   0.05907   0.00000  Uiso   1.00
Br614  Br    0.72411   0.76179   0.04891   0.00000  Uiso   1.00
Br615  Br    0.94255   0.90491   0.45109   0.00000  Uiso   1.00
Br616  Br    0.71165   0.73469   0.28150   0.00000  Uiso   1.00
Br617  Br    0.95501   0.93198   0.21850   0.00000  Uiso   1.00
Br618  Br    0.95629   0.73329   0.22300   0.00000  Uiso   1.00
C619   C     0.75434   0.83341   0.25397   0.00000  Uiso   1.00
C620   C     0.70943   0.83355   0.25745   0.00000  Uiso   1.00
C621   C     0.81197   0.69151   0.21724   0.00000  Uiso   1.00
C622   C     0.85469   0.97516   0.28276   0.00000  Uiso   1.00
C623   C     0.85455   0.69116   0.28286   0.00000  Uiso   1.00
C624   C     0.81212   0.97550   0.21714   0.00000  Uiso   1.00
C625   C     0.83304   0.83342   0.16463   0.00000  Uiso   1.00
C626   C     0.83363   0.83325   0.33537   0.00000  Uiso   1.00
C627   C     0.87166   0.83756   0.40886   0.00000  Uiso   1.00
C628   C     0.79501   0.82911   0.09114   0.00000  Uiso   1.00
C629   C     0.83424   0.83300   0.38374   0.00000  Uiso   1.00
C630   C     0.91232   0.83326   0.24603   0.00000  Uiso   1.00
C631   C     0.83243   0.83367   0.11627   0.00000  Uiso   1.00
C632   C     0.79701   0.82700   0.40482   0.00000  Uiso   1.00
C633   C     0.86966   0.83967   0.09518   0.00000  Uiso   1.00
C634   C     0.79780   0.81964   0.45122   0.00000  Uiso   1.00
C635   C     0.86886   0.84703   0.04878   0.00000  Uiso   1.00
C636   C     0.83360   0.83290   0.47661   0.00000  Uiso   1.00
C637   C     0.83306   0.83378   0.02339   0.00000  Uiso   1.00
C638   C     0.86994   0.84534   0.45515   0.00000  Uiso   1.00
C639   C     0.79672   0.82134   0.04485   0.00000  Uiso   1.00
C640   C     0.76490   0.79864   0.47300   0.00000  Uiso   1.00
C641   C     0.76437   0.79947   0.01979   0.00000  Uiso   1.00
C642   C     0.90176   0.86804   0.02701   0.00000  Uiso   1.00
C643   C     0.91183   0.82780   0.38846   0.00000  Uiso   1.00
C644   C     0.75483   0.83887   0.11154   0.00000  Uiso   1.00
C645   C     0.78786   0.71545   0.18114   0.00000  Uiso   1.00
C646   C     0.87880   0.95121   0.31887   0.00000  Uiso   1.00
C647   C     0.87735   0.71484   0.31980   0.00000  Uiso   1.00
C648   C     0.78932   0.95183   0.18020   0.00000  Uiso   1.00
C649   C     0.90229   0.86722   0.48021   0.00000  Uiso   1.00
C650   C     0.68779   0.79132   0.25698   0.00000  Uiso   1.00
C651   C     0.97888   0.87535   0.24302   0.00000  Uiso   1.00
C652   C     0.97933   0.79100   0.24501   0.00000  Uiso   1.00
C653   C     0.68733   0.87567   0.25499   0.00000  Uiso   1.00
C654   C     0.95724   0.83312   0.24255   0.00000  Uiso   1.00
Cu655  Cu    0.83333   0.88022   0.25000   0.00000  Uiso   1.00
Cu656  Cu    0.83333   0.78645   0.25000   0.00000  Uiso   1.00
H657   H     0.96874   0.79986   0.39641   0.00000  Uiso   1.00
H658   H     0.69793   0.86681   0.10360   0.00000  Uiso   1.00
H659   H     0.73243   0.73977   0.15900   0.00000  Uiso   1.00
H660   H     0.93422   0.92689   0.34101   0.00000  Uiso   1.00
H661   H     0.93093   0.74247   0.34286   0.00000  Uiso   1.00
H662   H     0.73575   0.92417   0.15714   0.00000  Uiso   1.00
N663   N     0.83333   0.95069   0.25000   0.00000  Uiso   1.00
N664   N     0.83333   0.71598   0.25000   0.00000  Uiso   1.00
O665   O     0.77321   0.87291   0.25000   0.00000  Uiso   1.00
O666   O     0.94274   0.80425   0.41342   0.00000  Uiso   1.00
O667   O     0.74874   0.82709   0.14979   0.00000  Uiso   1.00
O668   O     0.72393   0.86244   0.08660   0.00000  Uiso   1.00
O669   O     0.80233   0.71962   0.14442   0.00000  Uiso   1.00
O670   O     0.74700   0.72785   0.18732   0.00000  Uiso   1.00
O671   O     0.86433   0.94705   0.35558   0.00000  Uiso   1.00
O672   O     0.91966   0.93881   0.31269   0.00000  Uiso   1.00
O673   O     0.86229   0.71719   0.35636   0.00000  Uiso   1.00
O674   O     0.91746   0.73003   0.31431   0.00000  Uiso   1.00
O675   O     0.80438   0.94948   0.14364   0.00000  Uiso   1.00
O676   O     0.89345   0.79375   0.25001   0.00000  Uiso   1.00
O677   O     0.74921   0.93663   0.18569   0.00000  Uiso   1.00
O678   O     0.89345   0.87291   0.25001   0.00000  Uiso   1.00
O679   O     0.77321   0.79375   0.25000   0.00000  Uiso   1.00
O680   O     0.83332   0.87293   0.18513   0.00000  Uiso   1.00
O681   O     0.83334   0.79373   0.31487   0.00000  Uiso   1.00
O682   O     0.83334   0.87293   0.31487   0.00000  Uiso   1.00
O683   O     0.83332   0.79373   0.18513   0.00000  Uiso   1.00
O684   O     0.91792   0.83954   0.35020   0.00000  Uiso   1.00
Br685  Br    0.07940   0.17213   0.87076   0.00000  Uiso   1.00
Br686  Br    0.04371   0.26672   0.77700   0.00000  Uiso   1.00
Br687  Br    0.25394   0.16121   0.62923   0.00000  Uiso   1.00
Br688  Br    0.05927   0.09227   0.94093   0.00000  Uiso   1.00
Br689  Br    0.27406   0.24108   0.55907   0.00000  Uiso   1.00
Br690  Br    0.05744   0.09512   0.54891   0.00000  Uiso   1.00
Br691  Br    0.27588   0.23824   0.95109   0.00000  Uiso   1.00
Br692  Br    0.04499   0.06803   0.78150   0.00000  Uiso   1.00
Br693  Br    0.28835   0.26531   0.71850   0.00000  Uiso   1.00
Br694  Br    0.28963   0.06662   0.72300   0.00000  Uiso   1.00
C695   C     0.08768   0.16674   0.75397   0.00000  Uiso   1.00
C696   C     0.04276   0.16688   0.75745   0.00000  Uiso   1.00
C697   C     0.14531   0.02484   0.71724   0.00000  Uiso   1.00
C698   C     0.18802   0.30849   0.78276   0.00000  Uiso   1.00
C699   C     0.18788   0.02450   0.78286   0.00000  Uiso   1.00
C700   C     0.14545   0.30884   0.71714   0.00000  Uiso   1.00
C701   C     0.16637   0.16675   0.66463   0.00000  Uiso   1.00
C702   C     0.16696   0.16658   0.83537   0.00000  Uiso   1.00
C703   C     0.20499   0.17089   0.90886   0.00000  Uiso   1.00
C704   C     0.12834   0.16245   0.59114   0.00000  Uiso   1.00
C705   C     0.16757   0.16633   0.88374   0.00000  Uiso   1.00
C706   C     0.24566   0.16659   0.74603   0.00000  Uiso   1.00
C707   C     0.16576   0.16700   0.61627   0.00000  Uiso   1.00
C708   C     0.13034   0.16034   0.90482   0.00000  Uiso   1.00
C709   C     0.20299   0.17300   0.59518   0.00000  Uiso   1.00
C710   C     0.13114   0.15298   0.95122   0.00000  Uiso   1.00
C711   C     0.20220   0.18037   0.54878   0.00000  Uiso   1.00
C712   C     0.16694   0.16623   0.97661   0.00000  Uiso   1.00
C713   C     0.16639   0.16712   0.52339   0.00000  Uiso   1.00
C714   C     0.20328   0.17867   0.95515   0.00000  Uiso   1.00
C715   C     0.13005   0.15467   0.54485   0.00000  Uiso   1.00
C716   C     0.09824   0.13197   0.97300   0.00000  Uiso   1.00
C717   C     0.09771   0.13280   0.51979   0.00000  Uiso   1.00
C718   C     0.23509   0.20138   0.52701   0.00000  Uiso   1.00
C719   C     0.24517   0.16113   0.88846   0.00000  Uiso   1.00
C720   C     0.08817   0.17220   0.61154   0.00000  Uiso   1.00
C721   C     0.12120   0.04879   0.68114   0.00000  Uiso   1.00
C722   C     0.21213   0.28455   0.81887   0.00000  Uiso   1.00
C723   C     0.21068   0.04817   0.81980   0.00000  Uiso   1.00
C724   C     0.12265   0.28516   0.68020   0.00000  Uiso   1.00
C725   C     0.23562   0.20055   0.98021   0.00000  Uiso   1.00
C726   C     0.02112   0.12465   0.75698   0.00000  Uiso   1.00
C727   C     0.31221   0.20868   0.74302   0.00000  Uiso   1.00
C728   C     0.31267   0.12433   0.74501   0.00000  Uiso   1.00
C729   C     0.02066   0.20901   0.75499   0.00000  Uiso   1.00
C730   C     0.29057   0.16646   0.74255   0.00000  Uiso   1.00
Cu731  Cu    0.16667   0.21355   0.75000   0.00000  Uiso   1.00
Cu732  Cu    0.16667   0.11978   0.75000   0.00000  Uiso   1.00
H733   H     0.30207   0.13320   0.89641   0.00000  Uiso   1.00
H734   H     0.03127   0.20014   0.60360   0.00000  Uiso   1.00
H735   H     0.06577   0.07310   0.65900   0.00000  Uiso   1.00
H736   H     0.26755   0.26022   0.84101   0.00000  Uiso   1.00
H737   H     0.26426   0.07580   0.84286   0.00000  Uiso   1.00
H738   H     0.06908   0.25751   0.65714   0.00000  Uiso   1.00
N739   N     0.16667   0.28402   0.75000   0.00000  Uiso   1.00
N740   N     0.16667   0.04931   0.75000   0.00000  Uiso   1.00
O741   O     0.10655   0.20625   0.75000   0.00000  Uiso   1.00
O742   O     0.27607   0.13758   0.91342   0.00000  Uiso   1.00
O743   O     0.08207   0.16042   0.64979   0.00000  Uiso   1.00
O744   O     0.05727   0.19578   0.58660   0.00000  Uiso   1.00
O745   O     0.13566   0.05295   0.64442   0.00000  Uiso   1.00
O746   O     0.08033   0.06119   0.68732   0.00000  Uiso   1.00
O747   O     0.19766   0.28038   0.85558   0.00000  Uiso   1.00
O748   O     0.25299   0.27214   0.81269   0.00000  Uiso   1.00
O749   O     0.19562   0.05052   0.85636   0.00000  Uiso   1.00
O750   O     0.25079   0.06337   0.81431   0.00000  Uiso   1.00
O751   O     0.13771   0.28281   0.64364   0.00000  Uiso   1.00
O752   O     0.22679   0.12709   0.75001   0.00000  Uiso   1.00
O753   O     0.08254   0.26997   0.68569   0.00000  Uiso   1.00
O754   O     0.22679   0.20625   0.75001   0.00000  Uiso   1.00
O755   O     0.10655   0.12709   0.75000   0.00000  Uiso   1.00
O756   O     0.16666   0.20627   0.68513   0.00000  Uiso   1.00
O757   O     0.16668   0.12707   0.81487   0.00000  Uiso   1.00
O758   O     0.16668   0.20627   0.81487   0.00000  Uiso   1.00
O759   O     0.16666   0.12707   0.68513   0.00000  Uiso   1.00
O760   O     0.25126   0.17287   0.85020   0.00000  Uiso   1.00
Br761  Br    0.41273   0.17213   0.87076   0.00000  Uiso   1.00
Br762  Br    0.37704   0.26672   0.77700   0.00000  Uiso   1.00
Br763  Br    0.58727   0.16121   0.62923   0.00000  Uiso   1.00
Br764  Br    0.39260   0.09227   0.94093   0.00000  Uiso   1.00
Br765  Br    0.60740   0.24108   0.55907   0.00000  Uiso   1.00
Br766  Br    0.39077   0.09512   0.54891   0.00000  Uiso   1.00
Br767  Br    0.60922   0.23824   0.95109   0.00000  Uiso   1.00
Br768  Br    0.37832   0.06803   0.78150   0.00000  Uiso   1.00
Br769  Br    0.62168   0.26531   0.71850   0.00000  Uiso   1.00
Br770  Br    0.62296   0.06662   0.72300   0.00000  Uiso   1.00
C771   C     0.42101   0.16674   0.75397   0.00000  Uiso   1.00
C772   C     0.37610   0.16688   0.75745   0.00000  Uiso   1.00
C773   C     0.47864   0.02484   0.71724   0.00000  Uiso   1.00
C774   C     0.52136   0.30849   0.78276   0.00000  Uiso   1.00
C775   C     0.52121   0.02450   0.78286   0.00000  Uiso   1.00
C776   C     0.47879   0.30884   0.71714   0.00000  Uiso   1.00
C777   C     0.49971   0.16675   0.66463   0.00000  Uiso   1.00
C778   C     0.50029   0.16658   0.83537   0.00000  Uiso   1.00
C779   C     0.53833   0.17089   0.90886   0.00000  Uiso   1.00
C780   C     0.46167   0.16245   0.59114   0.00000  Uiso   1.00
C781   C     0.50090   0.16633   0.88374   0.00000  Uiso   1.00
C782   C     0.57899   0.16659   0.74603   0.00000  Uiso   1.00
C783   C     0.49909   0.16700   0.61627   0.00000  Uiso   1.00
C784   C     0.46367   0.16034   0.90482   0.00000  Uiso   1.00
C785   C     0.53632   0.17300   0.59518   0.00000  Uiso   1.00
C786   C     0.46447   0.15298   0.95122   0.00000  Uiso   1.00
C787   C     0.53553   0.18037   0.54878   0.00000  Uiso   1.00
C788   C     0.50027   0.16623   0.97661   0.00000  Uiso   1.00
C789   C     0.49973   0.16712   0.52339   0.00000  Uiso   1.00
C790   C     0.53661   0.17867   0.95515   0.00000  Uiso   1.00
C791   C     0.46339   0.15467   0.54485   0.00000  Uiso   1.00
C792   C     0.43157   0.13197   0.97300   0.00000  Uiso   1.00
C793   C     0.43104   0.13280   0.51979   0.00000  Uiso   1.00
C794   C     0.56843   0.20138   0.52701   0.00000  Uiso   1.00
C795   C     0.57850   0.16113   0.88846   0.00000  Uiso   1.00
C796   C     0.42150   0.17220   0.61154   0.00000  Uiso   1.00
C797   C     0.45453   0.04879   0.68114   0.00000  Uiso   1.00
C798   C     0.54546   0.28455   0.81887   0.00000  Uiso   1.00
C799   C     0.54401   0.04817   0.81980   0.00000  Uiso   1.00
C800   C     0.45599   0.28516   0.68020   0.00000  Uiso   1.00
C801   C     0.56896   0.20055   0.98021   0.00000  Uiso   1.00
C802   C     0.35445   0.12465   0.75698   0.00000  Uiso   1.00
C803   C     0.64554   0.20868   0.74302   0.00000  Uiso   1.00
C804   C     0.64600   0.12433   0.74501   0.00000  Uiso   1.00
C805   C     0.35400   0.20901   0.75499   0.00000  Uiso   1.00
C806   C     0.62390   0.16646   0.74255   0.00000  Uiso   1.00
Cu807  Cu    0.50000   0.21355   0.75000   0.00000  Uiso   1.00
Cu808  Cu    0.50000   0.11978   0.75000   0.00000  Uiso   1.00
H809   H     0.63540   0.13320   0.89641   0.00000  Uiso   1.00
H810   H     0.36460   0.20014   0.60360   0.00000  Uiso   1.00
H811   H     0.39910   0.07310   0.65900   0.00000  Uiso   1.00
H812   H     0.60089   0.26022   0.84101   0.00000  Uiso   1.00
H813   H     0.59759   0.07580   0.84286   0.00000  Uiso   1.00
H814   H     0.40242   0.25751   0.65714   0.00000  Uiso   1.00
N815   N     0.50000   0.28402   0.75000   0.00000  Uiso   1.00
N816   N     0.50000   0.04931   0.75000   0.00000  Uiso   1.00
O817   O     0.43988   0.20625   0.75000   0.00000  Uiso   1.00
O818   O     0.60941   0.13758   0.91342   0.00000  Uiso   1.00
O819   O     0.41541   0.16042   0.64979   0.00000  Uiso   1.00
O820   O     0.39060   0.19578   0.58660   0.00000  Uiso   1.00
O821   O     0.46900   0.05295   0.64442   0.00000  Uiso   1.00
O822   O     0.41367   0.06119   0.68732   0.00000  Uiso   1.00
O823   O     0.53100   0.28038   0.85558   0.00000  Uiso   1.00
O824   O     0.58633   0.27214   0.81269   0.00000  Uiso   1.00
O825   O     0.52895   0.05052   0.85636   0.00000  Uiso   1.00
O826   O     0.58413   0.06337   0.81431   0.00000  Uiso   1.00
O827   O     0.47105   0.28281   0.64364   0.00000  Uiso   1.00
O828   O     0.56012   0.12709   0.75001   0.00000  Uiso   1.00
O829   O     0.41588   0.26997   0.68569   0.00000  Uiso   1.00
O830   O     0.56012   0.20625   0.75001   0.00000  Uiso   1.00
O831   O     0.43988   0.12709   0.75000   0.00000  Uiso   1.00
O832   O     0.49999   0.20627   0.68513   0.00000  Uiso   1.00
O833   O     0.50001   0.12707   0.81487   0.00000  Uiso   1.00
O834   O     0.50001   0.20627   0.81487   0.00000  Uiso   1.00
O835   O     0.49999   0.12707   0.68513   0.00000  Uiso   1.00
O836   O     0.58459   0.17287   0.85020   0.00000  Uiso   1.00
Br837  Br    0.74606   0.17213   0.87076   0.00000  Uiso   1.00
Br838  Br    0.71037   0.26672   0.77700   0.00000  Uiso   1.00
Br839  Br    0.92060   0.16121   0.62923   0.00000  Uiso   1.00
Br840  Br    0.72593   0.09227   0.94093   0.00000  Uiso   1.00
Br841  Br    0.94073   0.24108   0.55907   0.00000  Uiso   1.00
Br842  Br    0.72411   0.09512   0.54891   0.00000  Uiso   1.00
Br843  Br    0.94255   0.23824   0.95109   0.00000  Uiso   1.00
Br844  Br    0.71165   0.06803   0.78150   0.00000  Uiso   1.00
Br845  Br    0.95501   0.26531   0.71850   0.00000  Uiso   1.00
Br846  Br    0.95629   0.06662   0.72300   0.00000  Uiso   1.00
C847   C     0.75434   0.16674   0.75397   0.00000  Uiso   1.00
C848   C     0.70943   0.16688   0.75745   0.00000  Uiso   1.00
C849   C     0.81197   0.02484   0.71724   0.00000  Uiso   1.00
C850   C     0.85469   0.30849   0.78276   0.00000  Uiso   1.00
C851   C     0.85455   0.02450   0.78286   0.00000  Uiso   1.00
C852   C     0.81212   0.30884   0.71714   0.00000  Uiso   1.00
C853   C     0.83304   0.16675   0.66463   0.00000  Uiso   1.00
C854   C     0.83363   0.16658   0.83537   0.00000  Uiso   1.00
C855   C     0.87166   0.17089   0.90886   0.00000  Uiso   1.00
C856   C     0.79501   0.16245   0.59114   0.00000  Uiso   1.00
C857   C     0.83424   0.16633   0.88374   0.00000  Uiso   1.00
C858   C     0.91232   0.16659   0.74603   0.00000  Uiso   1.00
C859   C     0.83243   0.16700   0.61627   0.00000  Uiso   1.00
C860   C     0.79701   0.16034   0.90482   0.00000  Uiso   1.00
C861   C     0.86966   0.17300   0.59518   0.00000  Uiso   1.00
C862   C     0.79780   0.15298   0.95122   0.00000  Uiso   1.00
C863   C     0.86886   0.18037   0.54878   0.00000  Uiso   1.00
C864   C     0.83360   0.16623   0.97661   0.00000  Uiso   1.00
C865   C     0.83306   0.16712   0.52339   0.00000  Uiso   1.00
C866   C     0.86994   0.17867   0.95515   0.00000  Uiso   1.00
C867   C     0.79672   0.15467   0.54485   0.00000  Uiso   1.00
C868   C     0.76490   0.13197   0.97300   0.00000  Uiso   1.00
C869   C     0.76437   0.13280   0.51979   0.00000  Uiso   1.00
C870   C     0.90176   0.20138   0.52701   0.00000  Uiso   1.00
C871   C     0.91183   0.16113   0.88846   0.00000  Uiso   1.00
C872   C     0.75483   0.17220   0.61154   0.00000  Uiso   1.00
C873   C     0.78786   0.04879   0.68114   0.00000  Uiso   1.00
C874   C     0.87880   0.28455   0.81887   0.00000  Uiso   1.00
C875   C     0.87735   0.04817   0.81980   0.00000  Uiso   1.00
C876   C     0.78932   0.28516   0.68020   0.00000  Uiso   1.00
C877   C     0.90229   0.20055   0.98021   0.00000  Uiso   1.00
C878   C     0.68779   0.12465   0.75698   0.00000  Uiso   1.00
C879   C     0.97888   0.20868   0.74302   0.00000  Uiso   1.00
C880   C     0.97933   0.12433   0.74501   0.00000  Uiso   1.00
C881   C     0.68733   0.20901   0.75499   0.00000  Uiso   1.00
C882   C     0.95724   0.16646   0.74255   0.00000  Uiso   1.00
Cu883  Cu    0.83333   0.21355   0.75000   0.00000  Uiso   1.00
Cu884  Cu    0.83333   0.11978   0.75000   0.00000  Uiso   1.00
H885   H     0.96874   0.13320   0.89641   0.00000  Uiso   1.00
H886   H     0.69793   0.20014   0.60360   0.00000  Uiso   1.00
H887   H     0.73243   0.07310   0.65900   0.00000  Uiso   1.00
H888   H     0.93422   0.26022   0.84101   0.00000  Uiso   1.00
H889   H     0.93093   0.07580   0.84286   0.00000  Uiso   1.00
H890   H     0.73575   0.25751   0.65714   0.00000  Uiso   1.00
N891   N     0.83333   0.28402   0.75000   0.00000  Uiso   1.00
N892   N     0.83333   0.04931   0.75000   0.00000  Uiso   1.00
O893   O     0.77321   0.20625   0.75000   0.00000  Uiso   1.00
O894   O     0.94274   0.13758   0.91342   0.00000  Uiso   1.00
O895   O     0.74874   0.16042   0.64979   0.00000  Uiso   1.00
O896   O     0.72393   0.19578   0.58660   0.00000  Uiso   1.00
O897   O     0.80233   0.05295   0.64442   0.00000  Uiso   1.00
O898   O     0.74700   0.06119   0.68732   0.00000  Uiso   1.00
O899   O     0.86433   0.28038   0.85558   0.00000  Uiso   1.00
O900   O     0.91966   0.27214   0.81269   0.00000  Uiso   1.00
O901   O     0.86229   0.05052   0.85636   0.00000  Uiso   1.00
O902   O     0.91746   0.06337   0.81431   0.00000  Uiso   1.00
O903   O     0.80438   0.28281   0.64364   0.00000  Uiso   1.00
O904   O     0.89345   0.12709   0.75001   0.00000  Uiso   1.00
O905   O     0.74921   0.26997   0.68569   0.00000  Uiso   1.00
O906   O     0.89345   0.20625   0.75001   0.00000  Uiso   1.00
O907   O     0.77321   0.12709   0.75000   0.00000  Uiso   1.00
O908   O     0.83332   0.20627   0.68513   0.00000  Uiso   1.00
O909   O     0.83334   0.12707   0.81487   0.00000  Uiso   1.00
O910   O     0.83334   0.20627   0.81487   0.00000  Uiso   1.00
O911   O     0.83332   0.12707   0.68513   0.00000  Uiso   1.00
O912   O     0.91792   0.17287   0.85020   0.00000  Uiso   1.00
Br913  Br    0.07940   0.50546   0.87076   0.00000  Uiso   1.00
Br914  Br    0.04371   0.60005   0.77700   0.00000  Uiso   1.00
Br915  Br    0.25394   0.49455   0.62923   0.00000  Uiso   1.00
Br916  Br    0.05927   0.42560   0.94093   0.00000  Uiso   1.00
Br917  Br    0.27406   0.57441   0.55907   0.00000  Uiso   1.00
Br918  Br    0.05744   0.42845   0.54891   0.00000  Uiso   1.00
Br919  Br    0.27588   0.57158   0.95109   0.00000  Uiso   1.00
Br920  Br    0.04499   0.40136   0.78150   0.00000  Uiso   1.00
Br921  Br    0.28835   0.59864   0.71850   0.00000  Uiso   1.00
Br922  Br    0.28963   0.39995   0.72300   0.00000  Uiso   1.00
C923   C     0.08768   0.50008   0.75397   0.00000  Uiso   1.00
C924   C     0.04276   0.50021   0.75745   0.00000  Uiso   1.00
C925   C     0.14531   0.35818   0.71724   0.00000  Uiso   1.00
C926   C     0.18802   0.64182   0.78276   0.00000  Uiso   1.00
C927   C     0.18788   0.35783   0.78286   0.00000  Uiso   1.00
C928   C     0.14545   0.64217   0.71714   0.00000  Uiso   1.00
C929   C     0.16637   0.50009   0.66463   0.00000  Uiso   1.00
C930   C     0.16696   0.49992   0.83537   0.00000  Uiso   1.00
C931   C     0.20499   0.50422   0.90886   0.00000  Uiso   1.00
C932   C     0.12834   0.49578   0.59114   0.00000  Uiso   1.00
C933   C     0.16757   0.49966   0.88374   0.00000  Uiso   1.00
C934   C     0.24566   0.49992   0.74603   0.00000  Uiso   1.00
C935   C     0.16576   0.50034   0.61627   0.00000  Uiso   1.00
C936   C     0.13034   0.49367   0.90482   0.00000  Uiso   1.00
C937   C     0.20299   0.50633   0.59518   0.00000  Uiso   1.00
C938   C     0.13114   0.48631   0.95122   0.00000  Uiso   1.00
C939   C     0.20220   0.51370   0.54878   0.00000  Uiso   1.00
C940   C     0.16694   0.49956   0.97661   0.00000  Uiso   1.00
C941   C     0.16639   0.50045   0.52339   0.00000  Uiso   1.00
C942   C     0.20328   0.51201   0.95515   0.00000  Uiso   1.00
C943   C     0.13005   0.48801   0.54485   0.00000  Uiso   1.00
C944   C     0.09824   0.46530   0.97300   0.00000  Uiso   1.00
C945   C     0.09771   0.46614   0.51979   0.00000  Uiso   1.00
C946   C     0.23509   0.53471   0.52701   0.00000  Uiso   1.00
C947   C     0.24517   0.49446   0.88846   0.00000  Uiso   1.00
C948   C     0.08817   0.50554   0.61154   0.00000  Uiso   1.00
C949   C     0.12120   0.38212   0.68114   0.00000  Uiso   1.00
C950   C     0.21213   0.61788   0.81887   0.00000  Uiso   1.00
C951   C     0.21068   0.38150   0.81980   0.00000  Uiso   1.00
C952   C     0.12265   0.61850   0.68020   0.00000  Uiso   1.00
C953   C     0.23562   0.53388   0.98021   0.00000  Uiso   1.00
C954   C     0.02112   0.45799   0.75698   0.00000  Uiso   1.00
C955   C     0.31221   0.54202   0.74302   0.00000  Uiso   1.00
C956   C     0.31267   0.45766   0.74501   0.00000  Uiso   1.00
C957   C     0.02066   0.54234   0.75499   0.00000  Uiso   1.00
C958   C     0.29057   0.49979   0.74255   0.00000  Uiso   1.00
Cu959  Cu    0.16667   0.54689   0.75000   0.00000  Uiso   1.00
Cu960  Cu    0.16667   0.45311   0.75000   0.00000  Uiso   1.00
H961   H     0.30207   0.46653   0.89641   0.00000  Uiso   1.00
H962   H     0.03127   0.53348   0.60360   0.00000  Uiso   1.00
H963   H     0.06577   0.40643   0.65900   0.00000  Uiso   1.00
H964   H     0.26755   0.59356   0.84101   0.00000  Uiso   1.00
H965   H     0.26426   0.40913   0.84286   0.00000  Uiso   1.00
H966   H     0.06908   0.59084   0.65714   0.00000  Uiso   1.00
N967   N     0.16667   0.61736   0.75000   0.00000  Uiso   1.00
N968   N     0.16667   0.38264   0.75000   0.00000  Uiso   1.00
O969   O     0.10655   0.53958   0.75000   0.00000  Uiso   1.00
O970   O     0.27607   0.47091   0.91342   0.00000  Uiso   1.00
O971   O     0.08207   0.49376   0.64979   0.00000  Uiso   1.00
O972   O     0.05727   0.52911   0.58660   0.00000  Uiso   1.00
O973   O     0.13566   0.38628   0.64442   0.00000  Uiso   1.00
O974   O     0.08033   0.39452   0.68732   0.00000  Uiso   1.00
O975   O     0.19766   0.61372   0.85558   0.00000  Uiso   1.00
O976   O     0.25299   0.60547   0.81269   0.00000  Uiso   1.00
O977   O     0.19562   0.38386   0.85636   0.00000  Uiso   1.00
O978   O     0.25079   0.39670   0.81431   0.00000  Uiso   1.00
O979   O     0.13771   0.61614   0.64364   0.00000  Uiso   1.00
O980   O     0.22679   0.46042   0.75001   0.00000  Uiso   1.00
O981   O     0.08254   0.60330   0.68569   0.00000  Uiso   1.00
O982   O     0.22679   0.53958   0.75001   0.00000  Uiso   1.00
O983   O     0.10655   0.46042   0.75000   0.00000  Uiso   1.00
O984   O     0.16666   0.53960   0.68513   0.00000  Uiso   1.00
O985   O     0.16668   0.46040   0.81487   0.00000  Uiso   1.00
O986   O     0.16668   0.53960   0.81487   0.00000  Uiso   1.00
O987   O     0.16666   0.46040   0.68513   0.00000  Uiso   1.00
O988   O     0.25126   0.50621   0.85020   0.00000  Uiso   1.00
Br989  Br    0.41273   0.50546   0.87076   0.00000  Uiso   1.00
Br990  Br    0.37704   0.60005   0.77700   0.00000  Uiso   1.00
Br991  Br    0.58727   0.49455   0.62923   0.00000  Uiso   1.00
Br992  Br    0.39260   0.42560   0.94093   0.00000  Uiso   1.00
Br993  Br    0.60740   0.57441   0.55907   0.00000  Uiso   1.00
Br994  Br    0.39077   0.42845   0.54891   0.00000  Uiso   1.00
Br995  Br    0.60922   0.57158   0.95109   0.00000  Uiso   1.00
Br996  Br    0.37832   0.40136   0.78150   0.00000  Uiso   1.00
Br997  Br    0.62168   0.59864   0.71850   0.00000  Uiso   1.00
Br998  Br    0.62296   0.39995   0.72300   0.00000  Uiso   1.00
C999   C     0.42101   0.50008   0.75397   0.00000  Uiso   1.00
C1000  C     0.37610   0.50021   0.75745   0.00000  Uiso   1.00
C1001  C     0.47864   0.35818   0.71724   0.00000  Uiso   1.00
C1002  C     0.52136   0.64182   0.78276   0.00000  Uiso   1.00
C1003  C     0.52121   0.35783   0.78286   0.00000  Uiso   1.00
C1004  C     0.47879   0.64217   0.71714   0.00000  Uiso   1.00
C1005  C     0.49971   0.50009   0.66463   0.00000  Uiso   1.00
C1006  C     0.50029   0.49992   0.83537   0.00000  Uiso   1.00
C1007  C     0.53833   0.50422   0.90886   0.00000  Uiso   1.00
C1008  C     0.46167   0.49578   0.59114   0.00000  Uiso   1.00
C1009  C     0.50090   0.49966   0.88374   0.00000  Uiso   1.00
C1010  C     0.57899   0.49992   0.74603   0.00000  Uiso   1.00
C1011  C     0.49909   0.50034   0.61627   0.00000  Uiso   1.00
C1012  C     0.46367   0.49367   0.90482   0.00000  Uiso   1.00
C1013  C     0.53632   0.50633   0.59518   0.00000  Uiso   1.00
C1014  C     0.46447   0.48631   0.95122   0.00000  Uiso   1.00
C1015  C     0.53553   0.51370   0.54878   0.00000  Uiso   1.00
C1016  C     0.50027   0.49956   0.97661   0.00000  Uiso   1.00
C1017  C     0.49973   0.50045   0.52339   0.00000  Uiso   1.00
C1018  C     0.53661   0.51201   0.95515   0.00000  Uiso   1.00
C1019  C     0.46339   0.48801   0.54485   0.00000  Uiso   1.00
C1020  C     0.43157   0.46530   0.97300   0.00000  Uiso   1.00
C1021  C     0.43104   0.46614   0.51979   0.00000  Uiso   1.00
C1022  C     0.56843   0.53471   0.52701   0.00000  Uiso   1.00
C1023  C     0.57850   0.49446   0.88846   0.00000  Uiso   1.00
C1024  C     0.42150   0.50554   0.61154   0.00000  Uiso   1.00
C1025  C     0.45453   0.38212   0.68114   0.00000  Uiso   1.00
C1026  C     0.54546   0.61788   0.81887   0.00000  Uiso   1.00
C1027  C     0.54401   0.38150   0.81980   0.00000  Uiso   1.00
C1028  C     0.45599   0.61850   0.68020   0.00000  Uiso   1.00
C1029  C     0.56896   0.53388   0.98021   0.00000  Uiso   1.00
C1030  C     0.35445   0.45799   0.75698   0.00000  Uiso   1.00
C1031  C     0.64554   0.54202   0.74302   0.00000  Uiso   1.00
C1032  C     0.64600   0.45766   0.74501   0.00000  Uiso   1.00
C1033  C     0.35400   0.54234   0.75499   0.00000  Uiso   1.00
C1034  C     0.62390   0.49979   0.74255   0.00000  Uiso   1.00
Cu1035 Cu    0.50000   0.54689   0.75000   0.00000  Uiso   1.00
Cu1036 Cu    0.50000   0.45311   0.75000   0.00000  Uiso   1.00
H1037  H     0.63540   0.46653   0.89641   0.00000  Uiso   1.00
H1038  H     0.36460   0.53348   0.60360   0.00000  Uiso   1.00
H1039  H     0.39910   0.40643   0.65900   0.00000  Uiso   1.00
H1040  H     0.60089   0.59356   0.84101   0.00000  Uiso   1.00
H1041  H     0.59759   0.40913   0.84286   0.00000  Uiso   1.00
H1042  H     0.40242   0.59084   0.65714   0.00000  Uiso   1.00
N1043  N     0.50000   0.61736   0.75000   0.00000  Uiso   1.00
N1044  N     0.50000   0.38264   0.75000   0.00000  Uiso   1.00
O1045  O     0.43988   0.53958   0.75000   0.00000  Uiso   1.00
O1046  O     0.60941   0.47091   0.91342   0.00000  Uiso   1.00
O1047  O     0.41541   0.49376   0.64979   0.00000  Uiso   1.00
O1048  O     0.39060   0.52911   0.58660   0.00000  Uiso   1.00
O1049  O     0.46900   0.38628   0.64442   0.00000  Uiso   1.00
O1050  O     0.41367   0.39452   0.68732   0.00000  Uiso   1.00
O1051  O     0.53100   0.61372   0.85558   0.00000  Uiso   1.00
O1052  O     0.58633   0.60547   0.81269   0.00000  Uiso   1.00
O1053  O     0.52895   0.38386   0.85636   0.00000  Uiso   1.00
O1054  O     0.58413   0.39670   0.81431   0.00000  Uiso   1.00
O1055  O     0.47105   0.61614   0.64364   0.00000  Uiso   1.00
O1056  O     0.56012   0.46042   0.75001   0.00000  Uiso   1.00
O1057  O     0.41588   0.60330   0.68569   0.00000  Uiso   1.00
O1058  O     0.56012   0.53958   0.75001   0.00000  Uiso   1.00
O1059  O     0.43988   0.46042   0.75000   0.00000  Uiso   1.00
O1060  O     0.49999   0.53960   0.68513   0.00000  Uiso   1.00
O1061  O     0.50001   0.46040   0.81487   0.00000  Uiso   1.00
O1062  O     0.50001   0.53960   0.81487   0.00000  Uiso   1.00
O1063  O     0.49999   0.46040   0.68513   0.00000  Uiso   1.00
O1064  O     0.58459   0.50621   0.85020   0.00000  Uiso   1.00
Br1065 Br    0.74606   0.50546   0.87076   0.00000  Uiso   1.00
Br1066 Br    0.71037   0.60005   0.77700   0.00000  Uiso   1.00
Br1067 Br    0.92060   0.49455   0.62923   0.00000  Uiso   1.00
Br1068 Br    0.72593   0.42560   0.94093   0.00000  Uiso   1.00
Br1069 Br    0.94073   0.57441   0.55907   0.00000  Uiso   1.00
Br1070 Br    0.72411   0.42845   0.54891   0.00000  Uiso   1.00
Br1071 Br    0.94255   0.57158   0.95109   0.00000  Uiso   1.00
Br1072 Br    0.71165   0.40136   0.78150   0.00000  Uiso   1.00
Br1073 Br    0.95501   0.59864   0.71850   0.00000  Uiso   1.00
Br1074 Br    0.95629   0.39995   0.72300   0.00000  Uiso   1.00
C1075  C     0.75434   0.50008   0.75397   0.00000  Uiso   1.00
C1076  C     0.70943   0.50021   0.75745   0.00000  Uiso   1.00
C1077  C     0.81197   0.35818   0.71724   0.00000  Uiso   1.00
C1078  C     0.85469   0.64182   0.78276   0.00000  Uiso   1.00
C1079  C     0.85455   0.35783   0.78286   0.00000  Uiso   1.00
C1080  C     0.81212   0.64217   0.71714   0.00000  Uiso   1.00
C1081  C     0.83304   0.50009   0.66463   0.00000  Uiso   1.00
C1082  C     0.83363   0.49992   0.83537   0.00000  Uiso   1.00
C1083  C     0.87166   0.50422   0.90886   0.00000  Uiso   1.00
C1084  C     0.79501   0.49578   0.59114   0.00000  Uiso   1.00
C1085  C     0.83424   0.49966   0.88374   0.00000  Uiso   1.00
C1086  C     0.91232   0.49992   0.74603   0.00000  Uiso   1.00
C1087  C     0.83243   0.50034   0.61627   0.00000  Uiso   1.00
C1088  C     0.79701   0.49367   0.90482   0.00000  Uiso   1.00
C1089  C     0.86966   0.50633   0.59518   0.00000  Uiso   1.00
C1090  C     0.79780   0.48631   0.95122   0.00000  Uiso   1.00
C1091  C     0.86886   0.51370   0.54878   0.00000  Uiso   1.00
C1092  C     0.83360   0.49956   0.97661   0.00000  Uiso   1.00
C1093  C     0.83306   0.50045   0.52339   0.00000  Uiso   1.00
C1094  C     0.86994   0.51201   0.95515   0.00000  Uiso   1.00
C1095  C     0.79672   0.48801   0.54485   0.00000  Uiso   1.00
C1096  C     0.76490   0.46530   0.97300   0.00000  Uiso   1.00
C1097  C     0.76437   0.46614   0.51979   0.00000  Uiso   1.00
C1098  C     0.90176   0.53471   0.52701   0.00000  Uiso   1.00
C1099  C     0.91183   0.49446   0.88846   0.00000  Uiso   1.00
C1100  C     0.75483   0.50554   0.61154   0.00000  Uiso   1.00
C1101  C     0.78786   0.38212   0.68114   0.00000  Uiso   1.00
C1102  C     0.87880   0.61788   0.81887   0.00000  Uiso   1.00
C1103  C     0.87735   0.38150   0.81980   0.00000  Uiso   1.00
C1104  C     0.78932   0.61850   0.68020   0.00000  Uiso   1.00
C1105  C     0.90229   0.53388   0.98021   0.00000  Uiso   1.00
C1106  C     0.68779   0.45799   0.75698   0.00000  Uiso   1.00
C1107  C     0.97888   0.54202   0.74302   0.00000  Uiso   1.00
C1108  C     0.97933   0.45766   0.74501   0.00000  Uiso   1.00
C1109  C     0.68733   0.54234   0.75499   0.00000  Uiso   1.00
C1110  C     0.95724   0.49979   0.74255   0.00000  Uiso   1.00
Cu1111 Cu    0.83333   0.54689   0.75000   0.00000  Uiso   1.00
Cu1112 Cu    0.83333   0.45311   0.75000   0.00000  Uiso   1.00
H1113  H     0.96874   0.46653   0.89641   0.00000  Uiso   1.00
H1114  H     0.69793   0.53348   0.60360   0.00000  Uiso   1.00
H1115  H     0.73243   0.40643   0.65900   0.00000  Uiso   1.00
H1116  H     0.93422   0.59356   0.84101   0.00000  Uiso   1.00
H1117  H     0.93093   0.40913   0.84286   0.00000  Uiso   1.00
H1118  H     0.73575   0.59084   0.65714   0.00000  Uiso   1.00
N1119  N     0.83333   0.61736   0.75000   0.00000  Uiso   1.00
N1120  N     0.83333   0.38264   0.75000   0.00000  Uiso   1.00
O1121  O     0.77321   0.53958   0.75000   0.00000  Uiso   1.00
O1122  O     0.94274   0.47091   0.91342   0.00000  Uiso   1.00
O1123  O     0.74874   0.49376   0.64979   0.00000  Uiso   1.00
O1124  O     0.72393   0.52911   0.58660   0.00000  Uiso   1.00
O1125  O     0.80233   0.38628   0.64442   0.00000  Uiso   1.00
O1126  O     0.74700   0.39452   0.68732   0.00000  Uiso   1.00
O1127  O     0.86433   0.61372   0.85558   0.00000  Uiso   1.00
O1128  O     0.91966   0.60547   0.81269   0.00000  Uiso   1.00
O1129  O     0.86229   0.38386   0.85636   0.00000  Uiso   1.00
O1130  O     0.91746   0.39670   0.81431   0.00000  Uiso   1.00
O1131  O     0.80438   0.61614   0.64364   0.00000  Uiso   1.00
O1132  O     0.89345   0.46042   0.75001   0.00000  Uiso   1.00
O1133  O     0.74921   0.60330   0.68569   0.00000  Uiso   1.00
O1134  O     0.89345   0.53958   0.75001   0.00000  Uiso   1.00
O1135  O     0.77321   0.46042   0.75000   0.00000  Uiso   1.00
O1136  O     0.83332   0.53960   0.68513   0.00000  Uiso   1.00
O1137  O     0.83334   0.46040   0.81487   0.00000  Uiso   1.00
O1138  O     0.83334   0.53960   0.81487   0.00000  Uiso   1.00
O1139  O     0.83332   0.46040   0.68513   0.00000  Uiso   1.00
O1140  O     0.91792   0.50621   0.85020   0.00000  Uiso   1.00
Br1141 Br    0.07940   0.83879   0.87076   0.00000  Uiso   1.00
Br1142 Br    0.04371   0.93338   0.77700   0.00000  Uiso   1.00
Br1143 Br    0.25394   0.82788   0.62923   0.00000  Uiso   1.00
Br1144 Br    0.05927   0.75894   0.94093   0.00000  Uiso   1.00
Br1145 Br    0.27406   0.90775   0.55907   0.00000  Uiso   1.00
Br1146 Br    0.05744   0.76179   0.54891   0.00000  Uiso   1.00
Br1147 Br    0.27588   0.90491   0.95109   0.00000  Uiso   1.00
Br1148 Br    0.04499   0.73469   0.78150   0.00000  Uiso   1.00
Br1149 Br    0.28835   0.93198   0.71850   0.00000  Uiso   1.00
Br1150 Br    0.28963   0.73329   0.72300   0.00000  Uiso   1.00
C1151  C     0.08768   0.83341   0.75397   0.00000  Uiso   1.00
C1152  C     0.04276   0.83355   0.75745   0.00000  Uiso   1.00
C1153  C     0.14531   0.69151   0.71724   0.00000  Uiso   1.00
C1154  C     0.18802   0.97516   0.78276   0.00000  Uiso   1.00
C1155  C     0.18788   0.69116   0.78286   0.00000  Uiso   1.00
C1156  C     0.14545   0.97550   0.71714   0.00000  Uiso   1.00
C1157  C     0.16637   0.83342   0.66463   0.00000  Uiso   1.00
C1158  C     0.16696   0.83325   0.83537   0.00000  Uiso   1.00
C1159  C     0.20499   0.83756   0.90886   0.00000  Uiso   1.00
C1160  C     0.12834   0.82911   0.59114   0.00000  Uiso   1.00
C1161  C     0.16757   0.83300   0.88374   0.00000  Uiso   1.00
C1162  C     0.24566   0.83326   0.74603   0.00000  Uiso   1.00
C1163  C     0.16576   0.83367   0.61627   0.00000  Uiso   1.00
C1164  C     0.13034   0.82700   0.90482   0.00000  Uiso   1.00
C1165  C     0.20299   0.83967   0.59518   0.00000  Uiso   1.00
C1166  C     0.13114   0.81964   0.95122   0.00000  Uiso   1.00
C1167  C     0.20220   0.84703   0.54878   0.00000  Uiso   1.00
C1168  C     0.16694   0.83290   0.97661   0.00000  Uiso   1.00
C1169  C     0.16639   0.83378   0.52339   0.00000  Uiso   1.00
C1170  C     0.20328   0.84534   0.95515   0.00000  Uiso   1.00
C1171  C     0.13005   0.82134   0.54485   0.00000  Uiso   1.00
C1172  C     0.09824   0.79864   0.97300   0.00000  Uiso   1.00
C1173  C     0.09771   0.79947   0.51979   0.00000  Uiso   1.00
C1174  C     0.23509   0.86804   0.52701   0.00000  Uiso   1.00
C1175  C     0.24517   0.82780   0.88846   0.00000  Uiso   1.00
C1176  C     0.08817   0.83887   0.61154   0.00000  Uiso   1.00
C1177  C     0.12120   0.71545   0.68114   0.00000  Uiso   1.00
C1178  C     0.21213   0.95121   0.81887   0.00000  Uiso   1.00
C1179  C     0.21068   0.71484   0.81980   0.00000  Uiso   1.00
C1180  C     0.12265   0.95183   0.68020   0.00000  Uiso   1.00
C1181  C     0.23562   0.86722   0.98021   0.00000  Uiso   1.00
C1182  C     0.02112   0.79132   0.75698   0.00000  Uiso   1.00
C1183  C     0.31221   0.87535   0.74302   0.00000  Uiso   1.00
C1184  C     0.31267   0.79100   0.74501   0.00000  Uiso   1.00
C1185  C     0.02066   0.87567   0.75499   0.00000  Uiso   1.00
C1186  C     0.29057   0.83312   0.74255   0.00000  Uiso   1.00
Cu1187 Cu    0.16667   0.88022   0.75000   0.00000  Uiso   1.00
Cu1188 Cu    0.16667   0.78645   0.75000   0.00000  Uiso   1.00
H1189  H     0.30207   0.79986   0.89641   0.00000  Uiso   1.00
H1190  H     0.03127   0.86681   0.60360   0.00000  Uiso   1.00
H1191  H     0.06577   0.73977   0.65900   0.00000  Uiso   1.00
H1192  H     0.26755   0.92689   0.84101   0.00000  Uiso   1.00
H1193  H     0.26426   0.74247   0.84286   0.00000  Uiso   1.00
H1194  H     0.06908   0.92417   0.65714   0.00000  Uiso   1.00
N1195  N     0.16667   0.95069   0.75000   0.00000  Uiso   1.00
N1196  N     0.16667   0.71598   0.75000   0.00000  Uiso   1.00
O1197  O     0.10655   0.87291   0.75000   0.00000  Uiso   1.00
O1198  O     0.27607   0.80425   0.91342   0.00000  Uiso   1.00
O1199  O     0.08207   0.82709   0.64979   0.00000  Uiso   1.00
O1200  O     0.05727   0.86244   0.58660   0.00000  Uiso   1.00
O1201  O     0.13566   0.71962   0.64442   0.00000  Uiso   1.00
O1202  O     0.08033   0.72785   0.68732   0.00000  Uiso   1.00
O1203  O     0.19766   0.94705   0.85558   0.00000  Uiso   1.00
O1204  O     0.25299   0.93881   0.81269   0.00000  Uiso   1.00
O1205  O     0.19562   0.71719   0.85636   0.00000  Uiso   1.00
O1206  O     0.25079   0.73003   0.81431   0.00000  Uiso   1.00
O1207  O     0.13771   0.94948   0.64364   0.00000  Uiso   1.00
O1208  O     0.22679   0.79375   0.75001   0.00000  Uiso   1.00
O1209  O     0.08254   0.93663   0.68569   0.00000  Uiso   1.00
O1210  O     0.22679   0.87291   0.75001   0.00000  Uiso   1.00
O1211  O     0.10655   0.79375   0.75000   0.00000  Uiso   1.00
O1212  O     0.16666   0.87293   0.68513   0.00000  Uiso   1.00
O1213  O     0.16668   0.79373   0.81487   0.00000  Uiso   1.00
O1214  O     0.16668   0.87293   0.81487   0.00000  Uiso   1.00
O1215  O     0.16666   0.79373   0.68513   0.00000  Uiso   1.00
O1216  O     0.25126   0.83954   0.85020   0.00000  Uiso   1.00
Br1217 Br    0.41273   0.83879   0.87076   0.00000  Uiso   1.00
Br1218 Br    0.37704   0.93338   0.77700   0.00000  Uiso   1.00
Br1219 Br    0.58727   0.82788   0.62923   0.00000  Uiso   1.00
Br1220 Br    0.39260   0.75894   0.94093   0.00000  Uiso   1.00
Br1221 Br    0.60740   0.90775   0.55907   0.00000  Uiso   1.00
Br1222 Br    0.39077   0.76179   0.54891   0.00000  Uiso   1.00
Br1223 Br    0.60922   0.90491   0.95109   0.00000  Uiso   1.00
Br1224 Br    0.37832   0.73469   0.78150   0.00000  Uiso   1.00
Br1225 Br    0.62168   0.93198   0.71850   0.00000  Uiso   1.00
Br1226 Br    0.62296   0.73329   0.72300   0.00000  Uiso   1.00
C1227  C     0.42101   0.83341   0.75397   0.00000  Uiso   1.00
C1228  C     0.37610   0.83355   0.75745   0.00000  Uiso   1.00
C1229  C     0.47864   0.69151   0.71724   0.00000  Uiso   1.00
C1230  C     0.52136   0.97516   0.78276   0.00000  Uiso   1.00
C1231  C     0.52121   0.69116   0.78286   0.00000  Uiso   1.00
C1232  C     0.47879   0.97550   0.71714   0.00000  Uiso   1.00
C1233  C     0.49971   0.83342   0.66463   0.00000  Uiso   1.00
C1234  C     0.50029   0.83325   0.83537   0.00000  Uiso   1.00
C1235  C     0.53833   0.83756   0.90886   0.00000  Uiso   1.00
C1236  C     0.46167   0.82911   0.59114   0.00000  Uiso   1.00
C1237  C     0.50090   0.83300   0.88374   0.00000  Uiso   1.00
C1238  C     0.57899   0.83326   0.74603   0.00000  Uiso   1.00
C1239  C     0.49909   0.83367   0.61627   0.00000  Uiso   1.00
C1240  C     0.46367   0.82700   0.90482   0.00000  Uiso   1.00
C1241  C     0.53632   0.83967   0.59518   0.00000  Uiso   1.00
C1242  C     0.46447   0.81964   0.95122   0.00000  Uiso   1.00
C1243  C     0.53553   0.84703   0.54878   0.00000  Uiso   1.00
C1244  C     0.50027   0.83290   0.97661   0.00000  Uiso   1.00
C1245  C     0.49973   0.83378   0.52339   0.00000  Uiso   1.00
C1246  C     0.53661   0.84534   0.95515   0.00000  Uiso   1.00
C1247  C     0.46339   0.82134   0.54485   0.00000  Uiso   1.00
C1248  C     0.43157   0.79864   0.97300   0.00000  Uiso   1.00
C1249  C     0.43104   0.79947   0.51979   0.00000  Uiso   1.00
C1250  C     0.56843   0.86804   0.52701   0.00000  Uiso   1.00
C1251  C     0.57850   0.82780   0.88846   0.00000  Uiso   1.00
C1252  C     0.42150   0.83887   0.61154   0.00000  Uiso   1.00
C1253  C     0.45453   0.71545   0.68114   0.00000  Uiso   1.00
C1254  C     0.54546   0.95121   0.81887   0.00000  Uiso   1.00
C1255  C     0.54401   0.71484   0.81980   0.00000  Uiso   1.00
C1256  C     0.45599   0.95183   0.68020   0.00000  Uiso   1.00
C1257  C     0.56896   0.86722   0.98021   0.00000  Uiso   1.00
C1258  C     0.35445   0.79132   0.75698   0.00000  Uiso   1.00
C1259  C     0.64554   0.87535   0.74302   0.00000  Uiso   1.00
C1260  C     0.64600   0.79100   0.74501   0.00000  Uiso   1.00
C1261  C     0.35400   0.87567   0.75499   0.00000  Uiso   1.00
C1262  C     0.62390   0.83312   0.74255   0.00000  Uiso   1.00
Cu1263 Cu    0.50000   0.88022   0.75000   0.00000  Uiso   1.00
Cu1264 Cu    0.50000   0.78645   0.75000   0.00000  Uiso   1.00
H1265  H     0.63540   0.79986   0.89641   0.00000  Uiso   1.00
H1266  H     0.36460   0.86681   0.60360   0.00000  Uiso   1.00
H1267  H     0.39910   0.73977   0.65900   0.00000  Uiso   1.00
H1268  H     0.60089   0.92689   0.84101   0.00000  Uiso   1.00
H1269  H     0.59759   0.74247   0.84286   0.00000  Uiso   1.00
H1270  H     0.40242   0.92417   0.65714   0.00000  Uiso   1.00
N1271  N     0.50000   0.95069   0.75000   0.00000  Uiso   1.00
N1272  N     0.50000   0.71598   0.75000   0.00000  Uiso   1.00
O1273  O     0.43988   0.87291   0.75000   0.00000  Uiso   1.00
O1274  O     0.60941   0.80425   0.91342   0.00000  Uiso   1.00
O1275  O     0.41541   0.82709   0.64979   0.00000  Uiso   1.00
O1276  O     0.39060   0.86244   0.58660   0.00000  Uiso   1.00
O1277  O     0.46900   0.71962   0.64442   0.00000  Uiso   1.00
O1278  O     0.41367   0.72785   0.68732   0.00000  Uiso   1.00
O1279  O     0.53100   0.94705   0.85558   0.00000  Uiso   1.00
O1280  O     0.58633   0.93881   0.81269   0.00000  Uiso   1.00
O1281  O     0.52895   0.71719   0.85636   0.00000  Uiso   1.00
O1282  O     0.58413   0.73003   0.81431   0.00000  Uiso   1.00
O1283  O     0.47105   0.94948   0.64364   0.00000  Uiso   1.00
O1284  O     0.56012   0.79375   0.75001   0.00000  Uiso   1.00
O1285  O     0.41588   0.93663   0.68569   0.00000  Uiso   1.00
O1286  O     0.56012   0.87291   0.75001   0.00000  Uiso   1.00
O1287  O     0.43988   0.79375   0.75000   0.00000  Uiso   1.00
O1288  O     0.49999   0.87293   0.68513   0.00000  Uiso   1.00
O1289  O     0.50001   0.79373   0.81487   0.00000  Uiso   1.00
O1290  O     0.50001   0.87293   0.81487   0.00000  Uiso   1.00
O1291  O     0.49999   0.79373   0.68513   0.00000  Uiso   1.00
O1292  O     0.58459   0.83954   0.85020   0.00000  Uiso   1.00
Br1293 Br    0.74606   0.83879   0.87076   0.00000  Uiso   1.00
Br1294 Br    0.71037   0.93338   0.77700   0.00000  Uiso   1.00
Br1295 Br    0.92060   0.82788   0.62923   0.00000  Uiso   1.00
Br1296 Br    0.72593   0.75894   0.94093   0.00000  Uiso   1.00
Br1297 Br    0.94073   0.90775   0.55907   0.00000  Uiso   1.00
Br1298 Br    0.72411   0.76179   0.54891   0.00000  Uiso   1.00
Br1299 Br    0.94255   0.90491   0.95109   0.00000  Uiso   1.00
Br1300 Br    0.71165   0.73469   0.78150   0.00000  Uiso   1.00
Br1301 Br    0.95501   0.93198   0.71850   0.00000  Uiso   1.00
Br1302 Br    0.95629   0.73329   0.72300   0.00000  Uiso   1.00
C1303  C     0.75434   0.83341   0.75397   0.00000  Uiso   1.00
C1304  C     0.70943   0.83355   0.75745   0.00000  Uiso   1.00
C1305  C     0.81197   0.69151   0.71724   0.00000  Uiso   1.00
C1306  C     0.85469   0.97516   0.78276   0.00000  Uiso   1.00
C1307  C     0.85455   0.69116   0.78286   0.00000  Uiso   1.00
C1308  C     0.81212   0.97550   0.71714   0.00000  Uiso   1.00
C1309  C     0.83304   0.83342   0.66463   0.00000  Uiso   1.00
C1310  C     0.83363   0.83325   0.83537   0.00000  Uiso   1.00
C1311  C     0.87166   0.83756   0.90886   0.00000  Uiso   1.00
C1312  C     0.79501   0.82911   0.59114   0.00000  Uiso   1.00
C1313  C     0.83424   0.83300   0.88374   0.00000  Uiso   1.00
C1314  C     0.91232   0.83326   0.74603   0.00000  Uiso   1.00
C1315  C     0.83243   0.83367   0.61627   0.00000  Uiso   1.00
C1316  C     0.79701   0.82700   0.90482   0.00000  Uiso   1.00
C1317  C     0.86966   0.83967   0.59518   0.00000  Uiso   1.00
C1318  C     0.79780   0.81964   0.95122   0.00000  Uiso   1.00
C1319  C     0.86886   0.84703   0.54878   0.00000  Uiso   1.00
C1320  C     0.83360   0.83290   0.97661   0.00000  Uiso   1.00
C1321  C     0.83306   0.83378   0.52339   0.00000  Uiso   1.00
C1322  C     0.86994   0.84534   0.95515   0.00000  Uiso   1.00
C1323  C     0.79672   0.82134   0.54485   0.00000  Uiso   1.00
C1324  C     0.76490   0.79864   0.97300   0.00000  Uiso   1.00
C1325  C     0.76437   0.79947   0.51979   0.00000  Uiso   1.00
C1326  C     0.90176   0.86804   0.52701   0.00000  Uiso   1.00
C1327  C     0.91183   0.82780   0.88846   0.00000  Uiso   1.00
C1328  C     0.75483   0.83887   0.61154   0.00000  Uiso   1.00
C1329  C     0.78786   0.71545   0.68114   0.00000  Uiso   1.00
C1330  C     0.87880   0.95121   0.81887   0.00000  Uiso   1.00
C1331  C     0.87735   0.71484   0.81980   0.00000  Uiso   1.00
C1332  C     0.78932   0.95183   0.68020   0.00000  Uiso   1.00
C1333  C     0.90229   0.86722   0.98021   0.00000  Uiso   1.00
C1334  C     0.68779   0.79132   0.75698   0.00000  Uiso   1.00
C1335  C     0.97888   0.87535   0.74302   0.00000  Uiso   1.00
C1336  C     0.97933   0.79100   0.74501   0.00000  Uiso   1.00
C1337  C     0.68733   0.87567   0.75499   0.00000  Uiso   1.00
C1338  C     0.95724   0.83312   0.74255   0.00000  Uiso   1.00
Cu1339 Cu    0.83333   0.88022   0.75000   0.00000  Uiso   1.00
Cu1340 Cu    0.83333   0.78645   0.75000   0.00000  Uiso   1.00
H1341  H     0.96874   0.79986   0.89641   0.00000  Uiso   1.00
H1342  H     0.69793   0.86681   0.60360   0.00000  Uiso   1.00
H1343  H     0.73243   0.73977   0.65900   0.00000  Uiso   1.00
H1344  H     0.93422   0.92689   0.84101   0.00000  Uiso   1.00
H1345  H     0.93093   0.74247   0.84286   0.00000  Uiso   1.00
H1346  H     0.73575   0.92417   0.65714   0.00000  Uiso   1.00
N1347  N     0.83333   0.95069   0.75000   0.00000  Uiso   1.00
N1348  N     0.83333   0.71598   0.75000   0.00000  Uiso   1.00
O1349  O     0.77321   0.87291   0.75000   0.00000  Uiso   1.00
O1350  O     0.94274   0.80425   0.91342   0.00000  Uiso   1.00
O1351  O     0.74874   0.82709   0.64979   0.00000  Uiso   1.00
O1352  O     0.72393   0.86244   0.58660   0.00000  Uiso   1.00
O1353  O     0.80233   0.71962   0.64442   0.00000  Uiso   1.00
O1354  O     0.74700   0.72785   0.68732   0.00000  Uiso   1.00
O1355  O     0.86433   0.94705   0.85558   0.00000  Uiso   1.00
O1356  O     0.91966   0.93881   0.81269   0.00000  Uiso   1.00
O1357  O     0.86229   0.71719   0.85636   0.00000  Uiso   1.00
O1358  O     0.91746   0.73003   0.81431   0.00000  Uiso   1.00
O1359  O     0.80438   0.94948   0.64364   0.00000  Uiso   1.00
O1360  O     0.89345   0.79375   0.75001   0.00000  Uiso   1.00
O1361  O     0.74921   0.93663   0.68569   0.00000  Uiso   1.00
O1362  O     0.89345   0.87291   0.75001   0.00000  Uiso   1.00
O1363  O     0.77321   0.79375   0.75000   0.00000  Uiso   1.00
O1364  O     0.83332   0.87293   0.68513   0.00000  Uiso   1.00
O1365  O     0.83334   0.79373   0.81487   0.00000  Uiso   1.00
O1366  O     0.83334   0.87293   0.81487   0.00000  Uiso   1.00
O1367  O     0.83332   0.79373   0.68513   0.00000  Uiso   1.00
O1368  O     0.91792   0.83954   0.85020   0.00000  Uiso   1.00
loop_
_geom_bond_atom_site_label_1
_geom_bond_atom_site_label_2
_geom_bond_distance
_geom_bond_site_symmetry_2
_ccdc_geom_bond_type
Br1    C24     1.935   .     S
Br2    C45     1.937   .     S
Br3    C25     1.935   .     S
Br4    C32     1.938   .     S
Br5    C34     1.938   .     S
Br6    C33     1.942   .     S
Br7    C41     1.942   .     S
Br8    C42     1.938   .     S
Br9    C43     1.938   .     S
Br10   C44     1.937   .     S
C11    O71     1.306   .     A
C11    C12     1.468   .     S
C11    O57     1.306   .     A
C12    C42     1.411   .     A
C12    C45     1.411   .     A
C13    C37     1.478   .     S
C13    N56     1.377   .     A
C13    C472    1.426   1_545 S
C14    N55     1.377   .     A
C14    C38     1.478   .     S
C14    C243    1.426   .     S
C15    C39     1.477   .     S
C15    N56     1.376   .     A
C15    C470    1.426   1_545 S
C16    C40     1.477   .     S
C16    N55     1.376   .     A
C16    C241    1.426   .     S
C17    C23     1.451   .     S
C17    O72     1.299   .     A
C17    O75     1.300   .     A
C18    C21     1.451   .     S
C18    O74     1.300   .     A
C18    O73     1.299   .     A
C19    C21     1.409   .     A
C19    C35     1.493   .     S
C19    C30     1.411   .     A
C20    C23     1.409   .     A
C20    C36     1.493   .     S
C20    C31     1.411   .     A
C21    C24     1.401   .     A
C22    O68     1.306   .     A
C22    C46     1.468   .     S
C22    O70     1.306   .     A
C23    C25     1.401   .     A
C24    C26     1.407   .     A
C25    C27     1.407   .     A
C26    C32     1.416   .     A
C26    C28     1.417   .     A
C27    C29     1.417   .     A
C27    C34     1.416   .     A
C28    C30     1.417   .     A
C28    C713    1.405   .     S
C29    C31     1.417   .     A
C29    C712    1.405   1_554 S
C30    C41     1.417   .     A
C31    C33     1.417   .     A
C32    C717    1.406   .     S
C33    C716    1.406   1_554 S
C34    C725    1.406   1_554 S
C35    O58     1.399   .     S
C35    O76     1.221   .     D
C36    O59     1.221   .     D
C36    O60     1.399   .     S
C37    O62     1.395   .     S
C37    O61     1.223   .     D
C38    O64     1.395   .     S
C38    O63     1.223   .     D
C39    O65     1.223   .     D
C39    O66     1.394   .     S
C40    O67     1.223   .     D
C40    O69     1.394   .     S
C41    C718    1.406   .     S
C42    C196    1.389   1_455 S
C43    C46     1.411   .     A
C43    C121    1.389   .     S
C44    C46     1.411   .     A
C44    C118    1.389   .     S
C45    C195    1.389   1_455 S
Cu47   O57     1.966   .     S
Cu47   O70     1.965   .     S
Cu47   Cu48    2.711   .     S
Cu47   N55     2.037   .     S
Cu47   O74     1.958   .     S
Cu47   O72     1.959   .     S
Cu48   O75     1.958   .     S
Cu48   O68     1.966   .     S
Cu48   O71     1.965   .     S
Cu48   N56     2.037   .     S
Cu48   O73     1.959   .     S
H49    O58     1.014   .     S
H50    O60     1.014   .     S
H51    O62     1.013   .     S
H52    O64     1.013   .     S
H53    O66     1.012   .     S
H54    O69     1.012   .     S
Br77   C100    1.935   .     S
Br78   C121    1.937   .     S
Br79   C101    1.935   .     S
Br80   C108    1.938   .     S
Br81   C110    1.938   .     S
Br82   C109    1.942   .     S
Br83   C117    1.942   .     S
Br84   C118    1.938   .     S
Br85   C119    1.938   .     S
Br86   C120    1.937   .     S
C87    O147    1.306   .     A
C87    C88     1.468   .     S
C87    O133    1.306   .     A
C88    C118    1.411   .     A
C88    C121    1.411   .     A
C89    C113    1.478   .     S
C89    N132    1.377   .     A
C89    C548    1.426   1_545 S
C90    N131    1.377   .     A
C90    C114    1.478   .     S
C90    C319    1.426   .     S
C91    C115    1.477   .     S
C91    N132    1.376   .     A
C91    C546    1.426   1_545 S
C92    C116    1.477   .     S
C92    N131    1.376   .     A
C92    C317    1.426   .     S
C93    C99     1.451   .     S
C93    O148    1.299   .     A
C93    O151    1.300   .     A
C94    C97     1.451   .     S
C94    O150    1.300   .     A
C94    O149    1.299   .     A
C95    C97     1.409   .     A
C95    C111    1.493   .     S
C95    C106    1.411   .     A
C96    C99     1.409   .     A
C96    C112    1.493   .     S
C96    C107    1.411   .     A
C97    C100    1.401   .     A
C98    O144    1.306   .     A
C98    C122    1.468   .     S
C98    O146    1.306   .     A
C99    C101    1.401   .     A
C100   C102    1.407   .     A
C101   C103    1.407   .     A
C102   C108    1.416   .     A
C102   C104    1.417   .     A
C103   C105    1.417   .     A
C103   C110    1.416   .     A
C104   C106    1.417   .     A
C104   C789    1.405   .     S
C105   C107    1.417   .     A
C105   C788    1.405   1_554 S
C106   C117    1.417   .     A
C107   C109    1.417   .     A
C108   C793    1.406   .     S
C109   C792    1.406   1_554 S
C110   C801    1.406   1_554 S
C111   O134    1.399   .     S
C111   O152    1.221   .     D
C112   O135    1.221   .     D
C112   O136    1.399   .     S
C113   O138    1.395   .     S
C113   O137    1.223   .     D
C114   O140    1.395   .     S
C114   O139    1.223   .     D
C115   O141    1.223   .     D
C115   O142    1.394   .     S
C116   O143    1.223   .     D
C116   O145    1.394   .     S
C117   C794    1.406   .     S
C119   C122    1.411   .     A
C119   C197    1.389   .     S
C120   C122    1.411   .     A
C120   C194    1.389   .     S
Cu123  O133    1.966   .     S
Cu123  O146    1.965   .     S
Cu123  Cu124   2.711   .     S
Cu123  N131    2.037   .     S
Cu123  O150    1.958   .     S
Cu123  O148    1.959   .     S
Cu124  O151    1.958   .     S
Cu124  O144    1.966   .     S
Cu124  O147    1.965   .     S
Cu124  N132    2.037   .     S
Cu124  O149    1.959   .     S
H125   O134    1.014   .     S
H126   O136    1.014   .     S
H127   O138    1.013   .     S
H128   O140    1.013   .     S
H129   O142    1.012   .     S
H130   O145    1.012   .     S
Br153  C176    1.935   .     S
Br154  C197    1.937   .     S
Br155  C177    1.935   .     S
Br156  C184    1.938   .     S
Br157  C186    1.938   .     S
Br158  C185    1.942   .     S
Br159  C193    1.942   .     S
Br160  C194    1.938   .     S
Br161  C195    1.938   .     S
Br162  C196    1.937   .     S
C163   O223    1.306   .     A
C163   C164    1.468   .     S
C163   O209    1.306   .     A
C164   C194    1.411   .     A
C164   C197    1.411   .     A
C165   C189    1.478   .     S
C165   N208    1.377   .     A
C165   C624    1.426   1_545 S
C166   N207    1.377   .     A
C166   C190    1.478   .     S
C166   C395    1.426   .     S
C167   C191    1.477   .     S
C167   N208    1.376   .     A
C167   C622    1.426   1_545 S
C168   C192    1.477   .     S
C168   N207    1.376   .     A
C168   C393    1.426   .     S
C169   C175    1.451   .     S
C169   O224    1.299   .     A
C169   O227    1.300   .     A
C170   C173    1.451   .     S
C170   O226    1.300   .     A
C170   O225    1.299   .     A
C171   C173    1.409   .     A
C171   C187    1.493   .     S
C171   C182    1.411   .     A
C172   C175    1.409   .     A
C172   C188    1.493   .     S
C172   C183    1.411   .     A
C173   C176    1.401   .     A
C174   O220    1.306   .     A
C174   C198    1.468   .     S
C174   O222    1.306   .     A
C175   C177    1.401   .     A
C176   C178    1.407   .     A
C177   C179    1.407   .     A
C178   C184    1.416   .     A
C178   C180    1.417   .     A
C179   C181    1.417   .     A
C179   C186    1.416   .     A
C180   C182    1.417   .     A
C180   C865    1.405   .     S
C181   C183    1.417   .     A
C181   C864    1.405   1_554 S
C182   C193    1.417   .     A
C183   C185    1.417   .     A
C184   C869    1.406   .     S
C185   C868    1.406   1_554 S
C186   C877    1.406   1_554 S
C187   O210    1.399   .     S
C187   O228    1.221   .     D
C188   O211    1.221   .     D
C188   O212    1.399   .     S
C189   O214    1.395   .     S
C189   O213    1.223   .     D
C190   O216    1.395   .     S
C190   O215    1.223   .     D
C191   O217    1.223   .     D
C191   O218    1.394   .     S
C192   O219    1.223   .     D
C192   O221    1.394   .     S
C193   C870    1.406   .     S
C195   C198    1.411   .     A
C195   C45     1.389   1_655 S
C196   C198    1.411   .     A
C196   C42     1.389   1_655 S
Cu199  O209    1.966   .     S
Cu199  O222    1.965   .     S
Cu199  Cu200   2.711   .     S
Cu199  N207    2.037   .     S
Cu199  O226    1.958   .     S
Cu199  O224    1.959   .     S
Cu200  O227    1.958   .     S
Cu200  O220    1.966   .     S
Cu200  O223    1.965   .     S
Cu200  N208    2.037   .     S
Cu200  O225    1.959   .     S
H201   O210    1.014   .     S
H202   O212    1.014   .     S
H203   O214    1.013   .     S
H204   O216    1.013   .     S
H205   O218    1.012   .     S
H206   O221    1.012   .     S
Br229  C252    1.935   .     S
Br230  C273    1.937   .     S
Br231  C253    1.935   .     S
Br232  C260    1.938   .     S
Br233  C262    1.938   .     S
Br234  C261    1.942   .     S
Br235  C269    1.942   .     S
Br236  C270    1.938   .     S
Br237  C271    1.938   .     S
Br238  C272    1.937   .     S
C239   O299    1.306   .     A
C239   C240    1.468   .     S
C239   O285    1.306   .     A
C240   C270    1.411   .     A
C240   C273    1.411   .     A
C241   C265    1.478   .     S
C241   N284    1.377   .     A
C242   N283    1.377   .     A
C242   C266    1.478   .     S
C242   C471    1.426   .     S
C243   C267    1.477   .     S
C243   N284    1.376   .     A
C244   C268    1.477   .     S
C244   N283    1.376   .     A
C244   C469    1.426   .     S
C245   C251    1.451   .     S
C245   O300    1.299   .     A
C245   O303    1.300   .     A
C246   C249    1.451   .     S
C246   O302    1.300   .     A
C246   O301    1.299   .     A
C247   C249    1.409   .     A
C247   C263    1.493   .     S
C247   C258    1.411   .     A
C248   C251    1.409   .     A
C248   C264    1.493   .     S
C248   C259    1.411   .     A
C249   C252    1.401   .     A
C250   O296    1.306   .     A
C250   C274    1.468   .     S
C250   O298    1.306   .     A
C251   C253    1.401   .     A
C252   C254    1.407   .     A
C253   C255    1.407   .     A
C254   C260    1.416   .     A
C254   C256    1.417   .     A
C255   C257    1.417   .     A
C255   C262    1.416   .     A
C256   C258    1.417   .     A
C256   C941    1.405   .     S
C257   C259    1.417   .     A
C257   C940    1.405   1_554 S
C258   C269    1.417   .     A
C259   C261    1.417   .     A
C260   C945    1.406   .     S
C261   C944    1.406   1_554 S
C262   C953    1.406   1_554 S
C263   O286    1.399   .     S
C263   O304    1.221   .     D
C264   O287    1.221   .     D
C264   O288    1.399   .     S
C265   O290    1.395   .     S
C265   O289    1.223   .     D
C266   O292    1.395   .     S
C266   O291    1.223   .     D
C267   O293    1.223   .     D
C267   O294    1.394   .     S
C268   O295    1.223   .     D
C268   O297    1.394   .     S
C269   C946    1.406   .     S
C270   C424    1.389   1_455 S
C271   C274    1.411   .     A
C271   C349    1.389   .     S
C272   C274    1.411   .     A
C272   C346    1.389   .     S
C273   C423    1.389   1_455 S
Cu275  O285    1.966   .     S
Cu275  O298    1.965   .     S
Cu275  Cu276   2.711   .     S
Cu275  N283    2.037   .     S
Cu275  O302    1.958   .     S
Cu275  O300    1.959   .     S
Cu276  O303    1.958   .     S
Cu276  O296    1.966   .     S
Cu276  O299    1.965   .     S
Cu276  N284    2.037   .     S
Cu276  O301    1.959   .     S
H277   O286    1.014   .     S
H278   O288    1.014   .     S
H279   O290    1.013   .     S
H280   O292    1.013   .     S
H281   O294    1.012   .     S
H282   O297    1.012   .     S
Br305  C328    1.935   .     S
Br306  C349    1.937   .     S
Br307  C329    1.935   .     S
Br308  C336    1.938   .     S
Br309  C338    1.938   .     S
Br310  C337    1.942   .     S
Br311  C345    1.942   .     S
Br312  C346    1.938   .     S
Br313  C347    1.938   .     S
Br314  C348    1.937   .     S
C315   O375    1.306   .     A
C315   C316    1.468   .     S
C315   O361    1.306   .     A
C316   C346    1.411   .     A
C316   C349    1.411   .     A
C317   C341    1.478   .     S
C317   N360    1.377   .     A
C318   N359    1.377   .     A
C318   C342    1.478   .     S
C318   C547    1.426   .     S
C319   C343    1.477   .     S
C319   N360    1.376   .     A
C320   C344    1.477   .     S
C320   N359    1.376   .     A
C320   C545    1.426   .     S
C321   C327    1.451   .     S
C321   O376    1.299   .     A
C321   O379    1.300   .     A
C322   C325    1.451   .     S
C322   O378    1.300   .     A
C322   O377    1.299   .     A
C323   C325    1.409   .     A
C323   C339    1.493   .     S
C323   C334    1.411   .     A
C324   C327    1.409   .     A
C324   C340    1.493   .     S
C324   C335    1.411   .     A
C325   C328    1.401   .     A
C326   O372    1.306   .     A
C326   C350    1.468   .     S
C326   O374    1.306   .     A
C327   C329    1.401   .     A
C328   C330    1.407   .     A
C329   C331    1.407   .     A
C330   C336    1.416   .     A
C330   C332    1.417   .     A
C331   C333    1.417   .     A
C331   C338    1.416   .     A
C332   C334    1.417   .     A
C332   C1017   1.405   .     S
C333   C335    1.417   .     A
C333   C1016   1.405   1_554 S
C334   C345    1.417   .     A
C335   C337    1.417   .     A
C336   C1021   1.406   .     S
C337   C1020   1.406   1_554 S
C338   C1029   1.406   1_554 S
C339   O362    1.399   .     S
C339   O380    1.221   .     D
C340   O363    1.221   .     D
C340   O364    1.399   .     S
C341   O366    1.395   .     S
C341   O365    1.223   .     D
C342   O368    1.395   .     S
C342   O367    1.223   .     D
C343   O369    1.223   .     D
C343   O370    1.394   .     S
C344   O371    1.223   .     D
C344   O373    1.394   .     S
C345   C1022   1.406   .     S
C347   C350    1.411   .     A
C347   C425    1.389   .     S
C348   C350    1.411   .     A
C348   C422    1.389   .     S
Cu351  O361    1.966   .     S
Cu351  O374    1.965   .     S
Cu351  Cu352   2.711   .     S
Cu351  N359    2.037   .     S
Cu351  O378    1.958   .     S
Cu351  O376    1.959   .     S
Cu352  O379    1.958   .     S
Cu352  O372    1.966   .     S
Cu352  O375    1.965   .     S
Cu352  N360    2.037   .     S
Cu352  O377    1.959   .     S
H353   O362    1.014   .     S
H354   O364    1.014   .     S
H355   O366    1.013   .     S
H356   O368    1.013   .     S
H357   O370    1.012   .     S
H358   O373    1.012   .     S
Br381  C404    1.935   .     S
Br382  C425    1.937   .     S
Br383  C405    1.935   .     S
Br384  C412    1.938   .     S
Br385  C414    1.938   .     S
Br386  C413    1.942   .     S
Br387  C421    1.942   .     S
Br388  C422    1.938   .     S
Br389  C423    1.938   .     S
Br390  C424    1.937   .     S
C391   O451    1.306   .     A
C391   C392    1.468   .     S
C391   O437    1.306   .     A
C392   C422    1.411   .     A
C392   C425    1.411   .     A
C393   C417    1.478   .     S
C393   N436    1.377   .     A
C394   N435    1.377   .     A
C394   C418    1.478   .     S
C394   C623    1.426   .     S
C395   C419    1.477   .     S
C395   N436    1.376   .     A
C396   C420    1.477   .     S
C396   N435    1.376   .     A
C396   C621    1.426   .     S
C397   C403    1.451   .     S
C397   O452    1.299   .     A
C397   O455    1.300   .     A
C398   C401    1.451   .     S
C398   O454    1.300   .     A
C398   O453    1.299   .     A
C399   C401    1.409   .     A
C399   C415    1.493   .     S
C399   C410    1.411   .     A
C400   C403    1.409   .     A
C400   C416    1.493   .     S
C400   C411    1.411   .     A
C401   C404    1.401   .     A
C402   O448    1.306   .     A
C402   C426    1.468   .     S
C402   O450    1.306   .     A
C403   C405    1.401   .     A
C404   C406    1.407   .     A
C405   C407    1.407   .     A
C406   C412    1.416   .     A
C406   C408    1.417   .     A
C407   C409    1.417   .     A
C407   C414    1.416   .     A
C408   C410    1.417   .     A
C408   C1093   1.405   .     S
C409   C411    1.417   .     A
C409   C1092   1.405   1_554 S
C410   C421    1.417   .     A
C411   C413    1.417   .     A
C412   C1097   1.406   .     S
C413   C1096   1.406   1_554 S
C414   C1105   1.406   1_554 S
C415   O438    1.399   .     S
C415   O456    1.221   .     D
C416   O439    1.221   .     D
C416   O440    1.399   .     S
C417   O442    1.395   .     S
C417   O441    1.223   .     D
C418   O444    1.395   .     S
C418   O443    1.223   .     D
C419   O445    1.223   .     D
C419   O446    1.394   .     S
C420   O447    1.223   .     D
C420   O449    1.394   .     S
C421   C1098   1.406   .     S
C423   C426    1.411   .     A
C423   C273    1.389   1_655 S
C424   C426    1.411   .     A
C424   C270    1.389   1_655 S
Cu427  O437    1.966   .     S
Cu427  O450    1.965   .     S
Cu427  Cu428   2.711   .     S
Cu427  N435    2.037   .     S
Cu427  O454    1.958   .     S
Cu427  O452    1.959   .     S
Cu428  O455    1.958   .     S
Cu428  O448    1.966   .     S
Cu428  O451    1.965   .     S
Cu428  N436    2.037   .     S
Cu428  O453    1.959   .     S
H429   O438    1.014   .     S
H430   O440    1.014   .     S
H431   O442    1.013   .     S
H432   O444    1.013   .     S
H433   O446    1.012   .     S
H434   O449    1.012   .     S
Br457  C480    1.935   .     S
Br458  C501    1.937   .     S
Br459  C481    1.935   .     S
Br460  C488    1.938   .     S
Br461  C490    1.938   .     S
Br462  C489    1.942   .     S
Br463  C497    1.942   .     S
Br464  C498    1.938   .     S
Br465  C499    1.938   .     S
Br466  C500    1.937   .     S
C467   O527    1.306   .     A
C467   C468    1.468   .     S
C467   O513    1.306   .     A
C468   C498    1.411   .     A
C468   C501    1.411   .     A
C469   C493    1.478   .     S
C469   N512    1.377   .     A
C470   N511    1.377   .     A
C470   C494    1.478   .     S
C470   C15     1.426   1_565 S
C471   C495    1.477   .     S
C471   N512    1.376   .     A
C472   C496    1.477   .     S
C472   N511    1.376   .     A
C472   C13     1.426   1_565 S
C473   C479    1.451   .     S
C473   O528    1.299   .     A
C473   O531    1.300   .     A
C474   C477    1.451   .     S
C474   O530    1.300   .     A
C474   O529    1.299   .     A
C475   C477    1.409   .     A
C475   C491    1.493   .     S
C475   C486    1.411   .     A
C476   C479    1.409   .     A
C476   C492    1.493   .     S
C476   C487    1.411   .     A
C477   C480    1.401   .     A
C478   O524    1.306   .     A
C478   C502    1.468   .     S
C478   O526    1.306   .     A
C479   C481    1.401   .     A
C480   C482    1.407   .     A
C481   C483    1.407   .     A
C482   C488    1.416   .     A
C482   C484    1.417   .     A
C483   C485    1.417   .     A
C483   C490    1.416   .     A
C484   C486    1.417   .     A
C484   C1169   1.405   .     S
C485   C487    1.417   .     A
C485   C1168   1.405   1_554 S
C486   C497    1.417   .     A
C487   C489    1.417   .     A
C488   C1173   1.406   .     S
C489   C1172   1.406   1_554 S
C490   C1181   1.406   1_554 S
C491   O514    1.399   .     S
C491   O532    1.221   .     D
C492   O515    1.221   .     D
C492   O516    1.399   .     S
C493   O518    1.395   .     S
C493   O517    1.223   .     D
C494   O520    1.395   .     S
C494   O519    1.223   .     D
C495   O521    1.223   .     D
C495   O522    1.394   .     S
C496   O523    1.223   .     D
C496   O525    1.394   .     S
C497   C1174   1.406   .     S
C498   C652    1.389   1_455 S
C499   C502    1.411   .     A
C499   C577    1.389   .     S
C500   C502    1.411   .     A
C500   C574    1.389   .     S
C501   C651    1.389   1_455 S
Cu503  O513    1.966   .     S
Cu503  O526    1.965   .     S
Cu503  Cu504   2.711   .     S
Cu503  N511    2.037   .     S
Cu503  O530    1.958   .     S
Cu503  O528    1.959   .     S
Cu504  O531    1.958   .     S
Cu504  O524    1.966   .     S
Cu504  O527    1.965   .     S
Cu504  N512    2.037   .     S
Cu504  O529    1.959   .     S
H505   O514    1.014   .     S
H506   O516    1.014   .     S
H507   O518    1.013   .     S
H508   O520    1.013   .     S
H509   O522    1.012   .     S
H510   O525    1.012   .     S
Br533  C556    1.935   .     S
Br534  C577    1.937   .     S
Br535  C557    1.935   .     S
Br536  C564    1.938   .     S
Br537  C566    1.938   .     S
Br538  C565    1.942   .     S
Br539  C573    1.942   .     S
Br540  C574    1.938   .     S
Br541  C575    1.938   .     S
Br542  C576    1.937   .     S
C543   O603    1.306   .     A
C543   C544    1.468   .     S
C543   O589    1.306   .     A
C544   C574    1.411   .     A
C544   C577    1.411   .     A
C545   C569    1.478   .     S
C545   N588    1.377   .     A
C546   N587    1.377   .     A
C546   C570    1.478   .     S
C546   C91     1.426   1_565 S
C547   C571    1.477   .     S
C547   N588    1.376   .     A
C548   C572    1.477   .     S
C548   N587    1.376   .     A
C548   C89     1.426   1_565 S
C549   C555    1.451   .     S
C549   O604    1.299   .     A
C549   O607    1.300   .     A
C550   C553    1.451   .     S
C550   O606    1.300   .     A
C550   O605    1.299   .     A
C551   C553    1.409   .     A
C551   C567    1.493   .     S
C551   C562    1.411   .     A
C552   C555    1.409   .     A
C552   C568    1.493   .     S
C552   C563    1.411   .     A
C553   C556    1.401   .     A
C554   O600    1.306   .     A
C554   C578    1.468   .     S
C554   O602    1.306   .     A
C555   C557    1.401   .     A
C556   C558    1.407   .     A
C557   C559    1.407   .     A
C558   C564    1.416   .     A
C558   C560    1.417   .     A
C559   C561    1.417   .     A
C559   C566    1.416   .     A
C560   C562    1.417   .     A
C560   C1245   1.405   .     S
C561   C563    1.417   .     A
C561   C1244   1.405   1_554 S
C562   C573    1.417   .     A
C563   C565    1.417   .     A
C564   C1249   1.406   .     S
C565   C1248   1.406   1_554 S
C566   C1257   1.406   1_554 S
C567   O590    1.399   .     S
C567   O608    1.221   .     D
C568   O591    1.221   .     D
C568   O592    1.399   .     S
C569   O594    1.395   .     S
C569   O593    1.223   .     D
C570   O596    1.395   .     S
C570   O595    1.223   .     D
C571   O597    1.223   .     D
C571   O598    1.394   .     S
C572   O599    1.223   .     D
C572   O601    1.394   .     S
C573   C1250   1.406   .     S
C575   C578    1.411   .     A
C575   C653    1.389   .     S
C576   C578    1.411   .     A
C576   C650    1.389   .     S
Cu579  O589    1.966   .     S
Cu579  O602    1.965   .     S
Cu579  Cu580   2.711   .     S
Cu579  N587    2.037   .     S
Cu579  O606    1.958   .     S
Cu579  O604    1.959   .     S
Cu580  O607    1.958   .     S
Cu580  O600    1.966   .     S
Cu580  O603    1.965   .     S
Cu580  N588    2.037   .     S
Cu580  O605    1.959   .     S
H581   O590    1.014   .     S
H582   O592    1.014   .     S
H583   O594    1.013   .     S
H584   O596    1.013   .     S
H585   O598    1.012   .     S
H586   O601    1.012   .     S
Br609  C632    1.935   .     S
Br610  C653    1.937   .     S
Br611  C633    1.935   .     S
Br612  C640    1.938   .     S
Br613  C642    1.938   .     S
Br614  C641    1.942   .     S
Br615  C649    1.942   .     S
Br616  C650    1.938   .     S
Br617  C651    1.938   .     S
Br618  C652    1.937   .     S
C619   O679    1.306   .     A
C619   C620    1.468   .     S
C619   O665    1.306   .     A
C620   C650    1.411   .     A
C620   C653    1.411   .     A
C621   C645    1.478   .     S
C621   N664    1.377   .     A
C622   N663    1.377   .     A
C622   C646    1.478   .     S
C622   C167    1.426   1_565 S
C623   C647    1.477   .     S
C623   N664    1.376   .     A
C624   C648    1.477   .     S
C624   N663    1.376   .     A
C624   C165    1.426   1_565 S
C625   C631    1.451   .     S
C625   O680    1.299   .     A
C625   O683    1.300   .     A
C626   C629    1.451   .     S
C626   O682    1.300   .     A
C626   O681    1.299   .     A
C627   C629    1.409   .     A
C627   C643    1.493   .     S
C627   C638    1.411   .     A
C628   C631    1.409   .     A
C628   C644    1.493   .     S
C628   C639    1.411   .     A
C629   C632    1.401   .     A
C630   O676    1.306   .     A
C630   C654    1.468   .     S
C630   O678    1.306   .     A
C631   C633    1.401   .     A
C632   C634    1.407   .     A
C633   C635    1.407   .     A
C634   C640    1.416   .     A
C634   C636    1.417   .     A
C635   C637    1.417   .     A
C635   C642    1.416   .     A
C636   C638    1.417   .     A
C636   C1321   1.405   .     S
C637   C639    1.417   .     A
C637   C1320   1.405   1_554 S
C638   C649    1.417   .     A
C639   C641    1.417   .     A
C640   C1325   1.406   .     S
C641   C1324   1.406   1_554 S
C642   C1333   1.406   1_554 S
C643   O666    1.399   .     S
C643   O684    1.221   .     D
C644   O667    1.221   .     D
C644   O668    1.399   .     S
C645   O670    1.395   .     S
C645   O669    1.223   .     D
C646   O672    1.395   .     S
C646   O671    1.223   .     D
C647   O673    1.223   .     D
C647   O674    1.394   .     S
C648   O675    1.223   .     D
C648   O677    1.394   .     S
C649   C1326   1.406   .     S
C651   C654    1.411   .     A
C651   C501    1.389   1_655 S
C652   C654    1.411   .     A
C652   C498    1.389   1_655 S
Cu655  O665    1.966   .     S
Cu655  O678    1.965   .     S
Cu655  Cu656   2.711   .     S
Cu655  N663    2.037   .     S
Cu655  O682    1.958   .     S
Cu655  O680    1.959   .     S
Cu656  O683    1.958   .     S
Cu656  O676    1.966   .     S
Cu656  O679    1.965   .     S
Cu656  N664    2.037   .     S
Cu656  O681    1.959   .     S
H657   O666    1.014   .     S
H658   O668    1.014   .     S
H659   O670    1.013   .     S
H660   O672    1.013   .     S
H661   O674    1.012   .     S
H662   O677    1.012   .     S
Br685  C708    1.935   .     S
Br686  C729    1.937   .     S
Br687  C709    1.935   .     S
Br688  C716    1.938   .     S
Br689  C718    1.938   .     S
Br690  C717    1.942   .     S
Br691  C725    1.942   .     S
Br692  C726    1.938   .     S
Br693  C727    1.938   .     S
Br694  C728    1.937   .     S
C695   O755    1.306   .     A
C695   C696    1.468   .     S
C695   O741    1.306   .     A
C696   C726    1.411   .     A
C696   C729    1.411   .     A
C697   C721    1.478   .     S
C697   N740    1.377   .     A
C697   C1156   1.426   1_545 S
C698   N739    1.377   .     A
C698   C722    1.478   .     S
C698   C927    1.426   .     S
C699   C723    1.477   .     S
C699   N740    1.376   .     A
C699   C1154   1.426   1_545 S
C700   C724    1.477   .     S
C700   N739    1.376   .     A
C700   C925    1.426   .     S
C701   C707    1.451   .     S
C701   O756    1.299   .     A
C701   O759    1.300   .     A
C702   C705    1.451   .     S
C702   O758    1.300   .     A
C702   O757    1.299   .     A
C703   C705    1.409   .     A
C703   C719    1.493   .     S
C703   C714    1.411   .     A
C704   C707    1.409   .     A
C704   C720    1.493   .     S
C704   C715    1.411   .     A
C705   C708    1.401   .     A
C706   O752    1.306   .     A
C706   C730    1.468   .     S
C706   O754    1.306   .     A
C707   C709    1.401   .     A
C708   C710    1.407   .     A
C709   C711    1.407   .     A
C710   C716    1.416   .     A
C710   C712    1.417   .     A
C711   C713    1.417   .     A
C711   C718    1.416   .     A
C712   C714    1.417   .     A
C712   C29     1.405   1_556 S
C713   C715    1.417   .     A
C714   C725    1.417   .     A
C715   C717    1.417   .     A
C716   C33     1.406   1_556 S
C719   O742    1.399   .     S
C719   O760    1.221   .     D
C720   O743    1.221   .     D
C720   O744    1.399   .     S
C721   O746    1.395   .     S
C721   O745    1.223   .     D
C722   O748    1.395   .     S
C722   O747    1.223   .     D
C723   O749    1.223   .     D
C723   O750    1.394   .     S
C724   O751    1.223   .     D
C724   O753    1.394   .     S
C725   C34     1.406   1_556 S
C726   C880    1.389   1_455 S
C727   C730    1.411   .     A
C727   C805    1.389   .     S
C728   C730    1.411   .     A
C728   C802    1.389   .     S
C729   C879    1.389   1_455 S
Cu731  O741    1.966   .     S
Cu731  O754    1.965   .     S
Cu731  Cu732   2.711   .     S
Cu731  N739    2.037   .     S
Cu731  O758    1.958   .     S
Cu731  O756    1.959   .     S
Cu732  O759    1.958   .     S
Cu732  O752    1.966   .     S
Cu732  O755    1.965   .     S
Cu732  N740    2.037   .     S
Cu732  O757    1.959   .     S
H733   O742    1.014   .     S
H734   O744    1.014   .     S
H735   O746    1.013   .     S
H736   O748    1.013   .     S
H737   O750    1.012   .     S
H738   O753    1.012   .     S
Br761  C784    1.935   .     S
Br762  C805    1.937   .     S
Br763  C785    1.935   .     S
Br764  C792    1.938   .     S
Br765  C794    1.938   .     S
Br766  C793    1.942   .     S
Br767  C801    1.942   .     S
Br768  C802    1.938   .     S
Br769  C803    1.938   .     S
Br770  C804    1.937   .     S
C771   O831    1.306   .     A
C771   C772    1.468   .     S
C771   O817    1.306   .     A
C772   C802    1.411   .     A
C772   C805    1.411   .     A
C773   C797    1.478   .     S
C773   N816    1.377   .     A
C773   C1232   1.426   1_545 S
C774   N815    1.377   .     A
C774   C798    1.478   .     S
C774   C1003   1.426   .     S
C775   C799    1.477   .     S
C775   N816    1.376   .     A
C775   C1230   1.426   1_545 S
C776   C800    1.477   .     S
C776   N815    1.376   .     A
C776   C1001   1.426   .     S
C777   C783    1.451   .     S
C777   O832    1.299   .     A
C777   O835    1.300   .     A
C778   C781    1.451   .     S
C778   O834    1.300   .     A
C778   O833    1.299   .     A
C779   C781    1.409   .     A
C779   C795    1.493   .     S
C779   C790    1.411   .     A
C780   C783    1.409   .     A
C780   C796    1.493   .     S
C780   C791    1.411   .     A
C781   C784    1.401   .     A
C782   O828    1.306   .     A
C782   C806    1.468   .     S
C782   O830    1.306   .     A
C783   C785    1.401   .     A
C784   C786    1.407   .     A
C785   C787    1.407   .     A
C786   C792    1.416   .     A
C786   C788    1.417   .     A
C787   C789    1.417   .     A
C787   C794    1.416   .     A
C788   C790    1.417   .     A
C788   C105    1.405   1_556 S
C789   C791    1.417   .     A
C790   C801    1.417   .     A
C791   C793    1.417   .     A
C792   C109    1.406   1_556 S
C795   O818    1.399   .     S
C795   O836    1.221   .     D
C796   O819    1.221   .     D
C796   O820    1.399   .     S
C797   O822    1.395   .     S
C797   O821    1.223   .     D
C798   O824    1.395   .     S
C798   O823    1.223   .     D
C799   O825    1.223   .     D
C799   O826    1.394   .     S
C800   O827    1.223   .     D
C800   O829    1.394   .     S
C801   C110    1.406   1_556 S
C803   C806    1.411   .     A
C803   C881    1.389   .     S
C804   C806    1.411   .     A
C804   C878    1.389   .     S
Cu807  O817    1.966   .     S
Cu807  O830    1.965   .     S
Cu807  Cu808   2.711   .     S
Cu807  N815    2.037   .     S
Cu807  O834    1.958   .     S
Cu807  O832    1.959   .     S
Cu808  O835    1.958   .     S
Cu808  O828    1.966   .     S
Cu808  O831    1.965   .     S
Cu808  N816    2.037   .     S
Cu808  O833    1.959   .     S
H809   O818    1.014   .     S
H810   O820    1.014   .     S
H811   O822    1.013   .     S
H812   O824    1.013   .     S
H813   O826    1.012   .     S
H814   O829    1.012   .     S
Br837  C860    1.935   .     S
Br838  C881    1.937   .     S
Br839  C861    1.935   .     S
Br840  C868    1.938   .     S
Br841  C870    1.938   .     S
Br842  C869    1.942   .     S
Br843  C877    1.942   .     S
Br844  C878    1.938   .     S
Br845  C879    1.938   .     S
Br846  C880    1.937   .     S
C847   O907    1.306   .     A
C847   C848    1.468   .     S
C847   O893    1.306   .     A
C848   C878    1.411   .     A
C848   C881    1.411   .     A
C849   C873    1.478   .     S
C849   N892    1.377   .     A
C849   C1308   1.426   1_545 S
C850   N891    1.377   .     A
C850   C874    1.478   .     S
C850   C1079   1.426   .     S
C851   C875    1.477   .     S
C851   N892    1.376   .     A
C851   C1306   1.426   1_545 S
C852   C876    1.477   .     S
C852   N891    1.376   .     A
C852   C1077   1.426   .     S
C853   C859    1.451   .     S
C853   O908    1.299   .     A
C853   O911    1.300   .     A
C854   C857    1.451   .     S
C854   O910    1.300   .     A
C854   O909    1.299   .     A
C855   C857    1.409   .     A
C855   C871    1.493   .     S
C855   C866    1.411   .     A
C856   C859    1.409   .     A
C856   C872    1.493   .     S
C856   C867    1.411   .     A
C857   C860    1.401   .     A
C858   O904    1.306   .     A
C858   C882    1.468   .     S
C858   O906    1.306   .     A
C859   C861    1.401   .     A
C860   C862    1.407   .     A
C861   C863    1.407   .     A
C862   C868    1.416   .     A
C862   C864    1.417   .     A
C863   C865    1.417   .     A
C863   C870    1.416   .     A
C864   C866    1.417   .     A
C864   C181    1.405   1_556 S
C865   C867    1.417   .     A
C866   C877    1.417   .     A
C867   C869    1.417   .     A
C868   C185    1.406   1_556 S
C871   O894    1.399   .     S
C871   O912    1.221   .     D
C872   O895    1.221   .     D
C872   O896    1.399   .     S
C873   O898    1.395   .     S
C873   O897    1.223   .     D
C874   O900    1.395   .     S
C874   O899    1.223   .     D
C875   O901    1.223   .     D
C875   O902    1.394   .     S
C876   O903    1.223   .     D
C876   O905    1.394   .     S
C877   C186    1.406   1_556 S
C879   C882    1.411   .     A
C879   C729    1.389   1_655 S
C880   C882    1.411   .     A
C880   C726    1.389   1_655 S
Cu883  O893    1.966   .     S
Cu883  O906    1.965   .     S
Cu883  Cu884   2.711   .     S
Cu883  N891    2.037   .     S
Cu883  O910    1.958   .     S
Cu883  O908    1.959   .     S
Cu884  O911    1.958   .     S
Cu884  O904    1.966   .     S
Cu884  O907    1.965   .     S
Cu884  N892    2.037   .     S
Cu884  O909    1.959   .     S
H885   O894    1.014   .     S
H886   O896    1.014   .     S
H887   O898    1.013   .     S
H888   O900    1.013   .     S
H889   O902    1.012   .     S
H890   O905    1.012   .     S
Br913  C936    1.935   .     S
Br914  C957    1.937   .     S
Br915  C937    1.935   .     S
Br916  C944    1.938   .     S
Br917  C946    1.938   .     S
Br918  C945    1.942   .     S
Br919  C953    1.942   .     S
Br920  C954    1.938   .     S
Br921  C955    1.938   .     S
Br922  C956    1.937   .     S
C923   O983    1.306   .     A
C923   C924    1.468   .     S
C923   O969    1.306   .     A
C924   C954    1.411   .     A
C924   C957    1.411   .     A
C925   C949    1.478   .     S
C925   N968    1.377   .     A
C926   N967    1.377   .     A
C926   C950    1.478   .     S
C926   C1155   1.426   .     S
C927   C951    1.477   .     S
C927   N968    1.376   .     A
C928   C952    1.477   .     S
C928   N967    1.376   .     A
C928   C1153   1.426   .     S
C929   C935    1.451   .     S
C929   O984    1.299   .     A
C929   O987    1.300   .     A
C930   C933    1.451   .     S
C930   O986    1.300   .     A
C930   O985    1.299   .     A
C931   C933    1.409   .     A
C931   C947    1.493   .     S
C931   C942    1.411   .     A
C932   C935    1.409   .     A
C932   C948    1.493   .     S
C932   C943    1.411   .     A
C933   C936    1.401   .     A
C934   O980    1.306   .     A
C934   C958    1.468   .     S
C934   O982    1.306   .     A
C935   C937    1.401   .     A
C936   C938    1.407   .     A
C937   C939    1.407   .     A
C938   C944    1.416   .     A
C938   C940    1.417   .     A
C939   C941    1.417   .     A
C939   C946    1.416   .     A
C940   C942    1.417   .     A
C940   C257    1.405   1_556 S
C941   C943    1.417   .     A
C942   C953    1.417   .     A
C943   C945    1.417   .     A
C944   C261    1.406   1_556 S
C947   O970    1.399   .     S
C947   O988    1.221   .     D
C948   O971    1.221   .     D
C948   O972    1.399   .     S
C949   O974    1.395   .     S
C949   O973    1.223   .     D
C950   O976    1.395   .     S
C950   O975    1.223   .     D
C951   O977    1.223   .     D
C951   O978    1.394   .     S
C952   O979    1.223   .     D
C952   O981    1.394   .     S
C953   C262    1.406   1_556 S
C954   C1108   1.389   1_455 S
C955   C958    1.411   .     A
C955   C1033   1.389   .     S
C956   C958    1.411   .     A
C956   C1030   1.389   .     S
C957   C1107   1.389   1_455 S
Cu959  O969    1.966   .     S
Cu959  O982    1.965   .     S
Cu959  Cu960   2.711   .     S
Cu959  N967    2.037   .     S
Cu959  O986    1.958   .     S
Cu959  O984    1.959   .     S
Cu960  O987    1.958   .     S
Cu960  O980    1.966   .     S
Cu960  O983    1.965   .     S
Cu960  N968    2.037   .     S
Cu960  O985    1.959   .     S
H961   O970    1.014   .     S
H962   O972    1.014   .     S
H963   O974    1.013   .     S
H964   O976    1.013   .     S
H965   O978    1.012   .     S
H966   O981    1.012   .     S
Br989  C1012   1.935   .     S
Br990  C1033   1.937   .     S
Br991  C1013   1.935   .     S
Br992  C1020   1.938   .     S
Br993  C1022   1.938   .     S
Br994  C1021   1.942   .     S
Br995  C1029   1.942   .     S
Br996  C1030   1.938   .     S
Br997  C1031   1.938   .     S
Br998  C1032   1.937   .     S
C999   O1059   1.306   .     A
C999   C1000   1.468   .     S
C999   O1045   1.306   .     A
C1000  C1030   1.411   .     A
C1000  C1033   1.411   .     A
C1001  C1025   1.478   .     S
C1001  N1044   1.377   .     A
C1002  N1043   1.377   .     A
C1002  C1026   1.478   .     S
C1002  C1231   1.426   .     S
C1003  C1027   1.477   .     S
C1003  N1044   1.376   .     A
C1004  C1028   1.477   .     S
C1004  N1043   1.376   .     A
C1004  C1229   1.426   .     S
C1005  C1011   1.451   .     S
C1005  O1060   1.299   .     A
C1005  O1063   1.300   .     A
C1006  C1009   1.451   .     S
C1006  O1062   1.300   .     A
C1006  O1061   1.299   .     A
C1007  C1009   1.409   .     A
C1007  C1023   1.493   .     S
C1007  C1018   1.411   .     A
C1008  C1011   1.409   .     A
C1008  C1024   1.493   .     S
C1008  C1019   1.411   .     A
C1009  C1012   1.401   .     A
C1010  O1056   1.306   .     A
C1010  C1034   1.468   .     S
C1010  O1058   1.306   .     A
C1011  C1013   1.401   .     A
C1012  C1014   1.407   .     A
C1013  C1015   1.407   .     A
C1014  C1020   1.416   .     A
C1014  C1016   1.417   .     A
C1015  C1017   1.417   .     A
C1015  C1022   1.416   .     A
C1016  C1018   1.417   .     A
C1016  C333    1.405   1_556 S
C1017  C1019   1.417   .     A
C1018  C1029   1.417   .     A
C1019  C1021   1.417   .     A
C1020  C337    1.406   1_556 S
C1023  O1046   1.399   .     S
C1023  O1064   1.221   .     D
C1024  O1047   1.221   .     D
C1024  O1048   1.399   .     S
C1025  O1050   1.395   .     S
C1025  O1049   1.223   .     D
C1026  O1052   1.395   .     S
C1026  O1051   1.223   .     D
C1027  O1053   1.223   .     D
C1027  O1054   1.394   .     S
C1028  O1055   1.223   .     D
C1028  O1057   1.394   .     S
C1029  C338    1.406   1_556 S
C1031  C1034   1.411   .     A
C1031  C1109   1.389   .     S
C1032  C1034   1.411   .     A
C1032  C1106   1.389   .     S
Cu1035 O1045   1.966   .     S
Cu1035 O1058   1.965   .     S
Cu1035 Cu1036  2.711   .     S
Cu1035 N1043   2.037   .     S
Cu1035 O1062   1.958   .     S
Cu1035 O1060   1.959   .     S
Cu1036 O1063   1.958   .     S
Cu1036 O1056   1.966   .     S
Cu1036 O1059   1.965   .     S
Cu1036 N1044   2.037   .     S
Cu1036 O1061   1.959   .     S
H1037  O1046   1.014   .     S
H1038  O1048   1.014   .     S
H1039  O1050   1.013   .     S
H1040  O1052   1.013   .     S
H1041  O1054   1.012   .     S
H1042  O1057   1.012   .     S
Br1065 C1088   1.935   .     S
Br1066 C1109   1.937   .     S
Br1067 C1089   1.935   .     S
Br1068 C1096   1.938   .     S
Br1069 C1098   1.938   .     S
Br1070 C1097   1.942   .     S
Br1071 C1105   1.942   .     S
Br1072 C1106   1.938   .     S
Br1073 C1107   1.938   .     S
Br1074 C1108   1.937   .     S
C1075  O1135   1.306   .     A
C1075  C1076   1.468   .     S
C1075  O1121   1.306   .     A
C1076  C1106   1.411   .     A
C1076  C1109   1.411   .     A
C1077  C1101   1.478   .     S
C1077  N1120   1.377   .     A
C1078  N1119   1.377   .     A
C1078  C1102   1.478   .     S
C1078  C1307   1.426   .     S
C1079  C1103   1.477   .     S
C1079  N1120   1.376   .     A
C1080  C1104   1.477   .     S
C1080  N1119   1.376   .     A
C1080  C1305   1.426   .     S
C1081  C1087   1.451   .     S
C1081  O1136   1.299   .     A
C1081  O1139   1.300   .     A
C1082  C1085   1.451   .     S
C1082  O1138   1.300   .     A
C1082  O1137   1.299   .     A
C1083  C1085   1.409   .     A
C1083  C1099   1.493   .     S
C1083  C1094   1.411   .     A
C1084  C1087   1.409   .     A
C1084  C1100   1.493   .     S
C1084  C1095   1.411   .     A
C1085  C1088   1.401   .     A
C1086  O1132   1.306   .     A
C1086  C1110   1.468   .     S
C1086  O1134   1.306   .     A
C1087  C1089   1.401   .     A
C1088  C1090   1.407   .     A
C1089  C1091   1.407   .     A
C1090  C1096   1.416   .     A
C1090  C1092   1.417   .     A
C1091  C1093   1.417   .     A
C1091  C1098   1.416   .     A
C1092  C1094   1.417   .     A
C1092  C409    1.405   1_556 S
C1093  C1095   1.417   .     A
C1094  C1105   1.417   .     A
C1095  C1097   1.417   .     A
C1096  C413    1.406   1_556 S
C1099  O1122   1.399   .     S
C1099  O1140   1.221   .     D
C1100  O1123   1.221   .     D
C1100  O1124   1.399   .     S
C1101  O1126   1.395   .     S
C1101  O1125   1.223   .     D
C1102  O1128   1.395   .     S
C1102  O1127   1.223   .     D
C1103  O1129   1.223   .     D
C1103  O1130   1.394   .     S
C1104  O1131   1.223   .     D
C1104  O1133   1.394   .     S
C1105  C414    1.406   1_556 S
C1107  C1110   1.411   .     A
C1107  C957    1.389   1_655 S
C1108  C1110   1.411   .     A
C1108  C954    1.389   1_655 S
Cu1111 O1121   1.966   .     S
Cu1111 O1134   1.965   .     S
Cu1111 Cu1112  2.711   .     S
Cu1111 N1119   2.037   .     S
Cu1111 O1138   1.958   .     S
Cu1111 O1136   1.959   .     S
Cu1112 O1139   1.958   .     S
Cu1112 O1132   1.966   .     S
Cu1112 O1135   1.965   .     S
Cu1112 N1120   2.037   .     S
Cu1112 O1137   1.959   .     S
H1113  O1122   1.014   .     S
H1114  O1124   1.014   .     S
H1115  O1126   1.013   .     S
H1116  O1128   1.013   .     S
H1117  O1130   1.012   .     S
H1118  O1133   1.012   .     S
Br1141 C1164   1.935   .     S
Br1142 C1185   1.937   .     S
Br1143 C1165   1.935   .     S
Br1144 C1172   1.938   .     S
Br1145 C1174   1.938   .     S
Br1146 C1173   1.942   .     S
Br1147 C1181   1.942   .     S
Br1148 C1182   1.938   .     S
Br1149 C1183   1.938   .     S
Br1150 C1184   1.937   .     S
C1151  O1211   1.306   .     A
C1151  C1152   1.468   .     S
C1151  O1197   1.306   .     A
C1152  C1182   1.411   .     A
C1152  C1185   1.411   .     A
C1153  C1177   1.478   .     S
C1153  N1196   1.377   .     A
C1154  N1195   1.377   .     A
C1154  C1178   1.478   .     S
C1154  C699    1.426   1_565 S
C1155  C1179   1.477   .     S
C1155  N1196   1.376   .     A
C1156  C1180   1.477   .     S
C1156  N1195   1.376   .     A
C1156  C697    1.426   1_565 S
C1157  C1163   1.451   .     S
C1157  O1212   1.299   .     A
C1157  O1215   1.300   .     A
C1158  C1161   1.451   .     S
C1158  O1214   1.300   .     A
C1158  O1213   1.299   .     A
C1159  C1161   1.409   .     A
C1159  C1175   1.493   .     S
C1159  C1170   1.411   .     A
C1160  C1163   1.409   .     A
C1160  C1176   1.493   .     S
C1160  C1171   1.411   .     A
C1161  C1164   1.401   .     A
C1162  O1208   1.306   .     A
C1162  C1186   1.468   .     S
C1162  O1210   1.306   .     A
C1163  C1165   1.401   .     A
C1164  C1166   1.407   .     A
C1165  C1167   1.407   .     A
C1166  C1172   1.416   .     A
C1166  C1168   1.417   .     A
C1167  C1169   1.417   .     A
C1167  C1174   1.416   .     A
C1168  C1170   1.417   .     A
C1168  C485    1.405   1_556 S
C1169  C1171   1.417   .     A
C1170  C1181   1.417   .     A
C1171  C1173   1.417   .     A
C1172  C489    1.406   1_556 S
C1175  O1198   1.399   .     S
C1175  O1216   1.221   .     D
C1176  O1199   1.221   .     D
C1176  O1200   1.399   .     S
C1177  O1202   1.395   .     S
C1177  O1201   1.223   .     D
C1178  O1204   1.395   .     S
C1178  O1203   1.223   .     D
C1179  O1205   1.223   .     D
C1179  O1206   1.394   .     S
C1180  O1207   1.223   .     D
C1180  O1209   1.394   .     S
C1181  C490    1.406   1_556 S
C1182  C1336   1.389   1_455 S
C1183  C1186   1.411   .     A
C1183  C1261   1.389   .     S
C1184  C1186   1.411   .     A
C1184  C1258   1.389   .     S
C1185  C1335   1.389   1_455 S
Cu1187 O1197   1.966   .     S
Cu1187 O1210   1.965   .     S
Cu1187 Cu1188  2.711   .     S
Cu1187 N1195   2.037   .     S
Cu1187 O1214   1.958   .     S
Cu1187 O1212   1.959   .     S
Cu1188 O1215   1.958   .     S
Cu1188 O1208   1.966   .     S
Cu1188 O1211   1.965   .     S
Cu1188 N1196   2.037   .     S
Cu1188 O1213   1.959   .     S
H1189  O1198   1.014   .     S
H1190  O1200   1.014   .     S
H1191  O1202   1.013   .     S
H1192  O1204   1.013   .     S
H1193  O1206   1.012   .     S
H1194  O1209   1.012   .     S
Br1217 C1240   1.935   .     S
Br1218 C1261   1.937   .     S
Br1219 C1241   1.935   .     S
Br1220 C1248   1.938   .     S
Br1221 C1250   1.938   .     S
Br1222 C1249   1.942   .     S
Br1223 C1257   1.942   .     S
Br1224 C1258   1.938   .     S
Br1225 C1259   1.938   .     S
Br1226 C1260   1.937   .     S
C1227  O1287   1.306   .     A
C1227  C1228   1.468   .     S
C1227  O1273   1.306   .     A
C1228  C1258   1.411   .     A
C1228  C1261   1.411   .     A
C1229  C1253   1.478   .     S
C1229  N1272   1.377   .     A
C1230  N1271   1.377   .     A
C1230  C1254   1.478   .     S
C1230  C775    1.426   1_565 S
C1231  C1255   1.477   .     S
C1231  N1272   1.376   .     A
C1232  C1256   1.477   .     S
C1232  N1271   1.376   .     A
C1232  C773    1.426   1_565 S
C1233  C1239   1.451   .     S
C1233  O1288   1.299   .     A
C1233  O1291   1.300   .     A
C1234  C1237   1.451   .     S
C1234  O1290   1.300   .     A
C1234  O1289   1.299   .     A
C1235  C1237   1.409   .     A
C1235  C1251   1.493   .     S
C1235  C1246   1.411   .     A
C1236  C1239   1.409   .     A
C1236  C1252   1.493   .     S
C1236  C1247   1.411   .     A
C1237  C1240   1.401   .     A
C1238  O1284   1.306   .     A
C1238  C1262   1.468   .     S
C1238  O1286   1.306   .     A
C1239  C1241   1.401   .     A
C1240  C1242   1.407   .     A
C1241  C1243   1.407   .     A
C1242  C1248   1.416   .     A
C1242  C1244   1.417   .     A
C1243  C1245   1.417   .     A
C1243  C1250   1.416   .     A
C1244  C1246   1.417   .     A
C1244  C561    1.405   1_556 S
C1245  C1247   1.417   .     A
C1246  C1257   1.417   .     A
C1247  C1249   1.417   .     A
C1248  C565    1.406   1_556 S
C1251  O1274   1.399   .     S
C1251  O1292   1.221   .     D
C1252  O1275   1.221   .     D
C1252  O1276   1.399   .     S
C1253  O1278   1.395   .     S
C1253  O1277   1.223   .     D
C1254  O1280   1.395   .     S
C1254  O1279   1.223   .     D
C1255  O1281   1.223   .     D
C1255  O1282   1.394   .     S
C1256  O1283   1.223   .     D
C1256  O1285   1.394   .     S
C1257  C566    1.406   1_556 S
C1259  C1262   1.411   .     A
C1259  C1337   1.389   .     S
C1260  C1262   1.411   .     A
C1260  C1334   1.389   .     S
Cu1263 O1273   1.966   .     S
Cu1263 O1286   1.965   .     S
Cu1263 Cu1264  2.711   .     S
Cu1263 N1271   2.037   .     S
Cu1263 O1290   1.958   .     S
Cu1263 O1288   1.959   .     S
Cu1264 O1291   1.958   .     S
Cu1264 O1284   1.966   .     S
Cu1264 O1287   1.965   .     S
Cu1264 N1272   2.037   .     S
Cu1264 O1289   1.959   .     S
H1265  O1274   1.014   .     S
H1266  O1276   1.014   .     S
H1267  O1278   1.013   .     S
H1268  O1280   1.013   .     S
H1269  O1282   1.012   .     S
H1270  O1285   1.012   .     S
Br1293 C1316   1.935   .     S
Br1294 C1337   1.937   .     S
Br1295 C1317   1.935   .     S
Br1296 C1324   1.938   .     S
Br1297 C1326   1.938   .     S
Br1298 C1325   1.942   .     S
Br1299 C1333   1.942   .     S
Br1300 C1334   1.938   .     S
Br1301 C1335   1.938   .     S
Br1302 C1336   1.937   .     S
C1303  O1363   1.306   .     A
C1303  C1304   1.468   .     S
C1303  O1349   1.306   .     A
C1304  C1334   1.411   .     A
C1304  C1337   1.411   .     A
C1305  C1329   1.478   .     S
C1305  N1348   1.377   .     A
C1306  N1347   1.377   .     A
C1306  C1330   1.478   .     S
C1306  C851    1.426   1_565 S
C1307  C1331   1.477   .     S
C1307  N1348   1.376   .     A
C1308  C1332   1.477   .     S
C1308  N1347   1.376   .     A
C1308  C849    1.426   1_565 S
C1309  C1315   1.451   .     S
C1309  O1364   1.299   .     A
C1309  O1367   1.300   .     A
C1310  C1313   1.451   .     S
C1310  O1366   1.300   .     A
C1310  O1365   1.299   .     A
C1311  C1313   1.409   .     A
C1311  C1327   1.493   .     S
C1311  C1322   1.411   .     A
C1312  C1315   1.409   .     A
C1312  C1328   1.493   .     S
C1312  C1323   1.411   .     A
C1313  C1316   1.401   .     A
C1314  O1360   1.306   .     A
C1314  C1338   1.468   .     S
C1314  O1362   1.306   .     A
C1315  C1317   1.401   .     A
C1316  C1318   1.407   .     A
C1317  C1319   1.407   .     A
C1318  C1324   1.416   .     A
C1318  C1320   1.417   .     A
C1319  C1321   1.417   .     A
C1319  C1326   1.416   .     A
C1320  C1322   1.417   .     A
C1320  C637    1.405   1_556 S
C1321  C1323   1.417   .     A
C1322  C1333   1.417   .     A
C1323  C1325   1.417   .     A
C1324  C641    1.406   1_556 S
C1327  O1350   1.399   .     S
C1327  O1368   1.221   .     D
C1328  O1351   1.221   .     D
C1328  O1352   1.399   .     S
C1329  O1354   1.395   .     S
C1329  O1353   1.223   .     D
C1330  O1356   1.395   .     S
C1330  O1355   1.223   .     D
C1331  O1357   1.223   .     D
C1331  O1358   1.394   .     S
C1332  O1359   1.223   .     D
C1332  O1361   1.394   .     S
C1333  C642    1.406   1_556 S
C1335  C1338   1.411   .     A
C1335  C1185   1.389   1_655 S
C1336  C1338   1.411   .     A
C1336  C1182   1.389   1_655 S
Cu1339 O1349   1.966   .     S
Cu1339 O1362   1.965   .     S
Cu1339 Cu1340  2.711   .     S
Cu1339 N1347   2.037   .     S
Cu1339 O1366   1.958   .     S
Cu1339 O1364   1.959   .     S
Cu1340 O1367   1.958   .     S
Cu1340 O1360   1.966   .     S
Cu1340 O1363   1.965   .     S
Cu1340 N1348   2.037   .     S
Cu1340 O1365   1.959   .     S
H1341  O1350   1.014   .     S
H1342  O1352   1.014   .     S
H1343  O1354   1.013   .     S
H1344  O1356   1.013   .     S
H1345  O1358   1.012   .     S
H1346  O1361   1.012   .     S
