data_str_m1_o1_o17_pcu_sym.118
_audit_creation_date              2020-01-03
_audit_creation_method            'Materials Studio'
_symmetry_space_group_name_H-M    'P1'
_symmetry_Int_Tables_number       1
_symmetry_cell_setting            triclinic
loop_
_symmetry_equiv_pos_as_xyz
  x,y,z
_cell_length_a                    36.7112
_cell_length_b                    36.7112
_cell_length_c                    34.3828
_cell_angle_alpha                 90.0022
_cell_angle_beta                  90.0022
_cell_angle_gamma                 89.5114
loop_
_atom_site_label
_atom_site_type_symbol
_atom_site_fract_x
_atom_site_fract_y
_atom_site_fract_z
_atom_site_U_iso_or_equiv
_atom_site_adp_type
_atom_site_occupancy
C1     C     0.00091   0.28347   0.41782   0.00000  Uiso   1.00
C2     C     0.25034   0.46647   0.08204   0.00000  Uiso   1.00
C3     C     0.21653   0.00045   0.54124   0.00000  Uiso   1.00
C4     C     0.49953   0.28347   0.45876   0.00000  Uiso   1.00
C5     C     0.00112   0.21651   0.54104   0.00000  Uiso   1.00
C6     C     0.21651   0.00111   0.45896   0.00000  Uiso   1.00
C7     C     0.28347   0.49954   0.54124   0.00000  Uiso   1.00
C8     C     0.25045   0.46653   0.95876   0.00000  Uiso   1.00
C9     C     0.24889   0.03349   0.04104   0.00000  Uiso   1.00
C10    C     0.03349   0.24888   0.95896   0.00000  Uiso   1.00
C11    C     0.46653   0.25047   0.04124   0.00000  Uiso   1.00
C12    C     0.24955   0.03347   0.95876   0.00000  Uiso   1.00
C13    C     0.46646   0.25037   0.91796   0.00000  Uiso   1.00
C14    C     0.25110   0.46651   0.04104   0.00000  Uiso   1.00
C15    C     0.46651   0.25112   0.95896   0.00000  Uiso   1.00
C16    C     0.03347   0.24953   0.04124   0.00000  Uiso   1.00
C17    C     0.09818   0.34818   0.25000   0.00000  Uiso   1.00
C18    C     0.40192   0.15192   0.75000   0.00000  Uiso   1.00
C19    C     0.15193   0.09807   0.25000   0.00000  Uiso   1.00
C20    C     0.34808   0.40192   0.75000   0.00000  Uiso   1.00
C21    C     0.40182   0.15182   0.25000   0.00000  Uiso   1.00
C22    C     0.09808   0.34808   0.75000   0.00000  Uiso   1.00
C23    C     0.34807   0.40193   0.25000   0.00000  Uiso   1.00
C24    C     0.03347   0.25091   0.08219   0.00000  Uiso   1.00
C25    C     0.15192   0.09808   0.75000   0.00000  Uiso   1.00
C26    C     0.09807   0.15193   0.75000   0.00000  Uiso   1.00
C27    C     0.40192   0.34808   0.25000   0.00000  Uiso   1.00
C28    C     0.15182   0.40182   0.75000   0.00000  Uiso   1.00
C29    C     0.34808   0.09808   0.25000   0.00000  Uiso   1.00
C30    C     0.40193   0.34807   0.75000   0.00000  Uiso   1.00
C31    C     0.09808   0.15192   0.25000   0.00000  Uiso   1.00
C32    C     0.34818   0.09818   0.75000   0.00000  Uiso   1.00
C33    C     0.15192   0.40192   0.25000   0.00000  Uiso   1.00
C34    C     0.00000   0.25000   0.47929   0.00000  Uiso   1.00
C35    C     0.24908   0.46653   0.91782   0.00000  Uiso   1.00
C36    C    -0.00000   0.25000   0.52054   0.00000  Uiso   1.00
C37    C     0.25000   0.00000   0.47946   0.00000  Uiso   1.00
C38    C     0.25000  -0.00000   0.52071   0.00000  Uiso   1.00
C39    C     0.25000  -0.00000   0.97929   0.00000  Uiso   1.00
C40    C     0.25000   0.00000   0.02054   0.00000  Uiso   1.00
C41    C    -0.00000   0.25000   0.97946   0.00000  Uiso   1.00
C42    C     0.00000   0.25000   0.02071   0.00000  Uiso   1.00
C43    C     0.15456   0.40250   0.15810   0.00000  Uiso   1.00
C44    C     0.39804   0.05017   0.80972   0.00000  Uiso   1.00
C45    C     0.07656   0.14072   0.16028   0.00000  Uiso   1.00
C46    C     0.24965   0.03354   0.08204   0.00000  Uiso   1.00
C47    C     0.42228   0.35984   0.84062   0.00000  Uiso   1.00
C48    C     0.34544   0.09751   0.15810   0.00000  Uiso   1.00
C49    C     0.10195   0.44985   0.80968   0.00000  Uiso   1.00
C50    C     0.42345   0.35929   0.16028   0.00000  Uiso   1.00
C51    C     0.07770   0.14015   0.84061   0.00000  Uiso   1.00
C52    C     0.14071   0.07655   0.83971   0.00000  Uiso   1.00
C53    C     0.35983   0.42229   0.15939   0.00000  Uiso   1.00
C54    C     0.09758   0.34539   0.84191   0.00000  Uiso   1.00
C55    C     0.44989   0.10191   0.19039   0.00000  Uiso   1.00
C56    C     0.35929   0.42345   0.83972   0.00000  Uiso   1.00
C57    C     0.03353   0.24964   0.91796   0.00000  Uiso   1.00
C58    C     0.14018   0.07772   0.15938   0.00000  Uiso   1.00
C59    C     0.40243   0.15464   0.84190   0.00000  Uiso   1.00
C60    C     0.05010   0.39809   0.19042   0.00000  Uiso   1.00
C61    C     0.40461   0.15242   0.65809   0.00000  Uiso   1.00
C62    C     0.14809   0.30011   0.30961   0.00000  Uiso   1.00
C63    C     0.32655   0.39071   0.66028   0.00000  Uiso   1.00
C64    C     0.17228   0.10982   0.34062   0.00000  Uiso   1.00
C65    C     0.09536   0.34757   0.65810   0.00000  Uiso   1.00
C66    C     0.35191   0.19990   0.30958   0.00000  Uiso   1.00
C67    C     0.17345   0.10929   0.66029   0.00000  Uiso   1.00
C68    C     0.46653   0.24909   0.08218   0.00000  Uiso   1.00
C69    C     0.32771   0.39016   0.34061   0.00000  Uiso   1.00
C70    C     0.39071   0.32655   0.33972   0.00000  Uiso   1.00
C71    C     0.10985   0.17230   0.65939   0.00000  Uiso   1.00
C72    C     0.34750   0.09544   0.34190   0.00000  Uiso   1.00
C73    C     0.19983   0.35196   0.69028   0.00000  Uiso   1.00
C74    C     0.10928   0.17344   0.33972   0.00000  Uiso   1.00
C75    C     0.39016   0.32771   0.65938   0.00000  Uiso   1.00
C76    C     0.15249   0.40456   0.34190   0.00000  Uiso   1.00
C77    C     0.30015   0.14805   0.69032   0.00000  Uiso   1.00
C78    C     0.00417   0.31821   0.39571   0.00000  Uiso   1.00
C79    C     0.00000   0.25000   0.39782   0.00000  Uiso   1.00
C80    C     0.49924   0.18155   0.60420   0.00000  Uiso   1.00
C81    C     0.18155   0.49921   0.39580   0.00000  Uiso   1.00
C82    C     0.31821   0.00419   0.60430   0.00000  Uiso   1.00
C83    C     0.49582   0.18179   0.39570   0.00000  Uiso   1.00
C84    C     0.00075   0.31845   0.60420   0.00000  Uiso   1.00
C85    C     0.31844   0.00080   0.39580   0.00000  Uiso   1.00
C86    C     0.18179   0.49581   0.60429   0.00000  Uiso   1.00
C87    C     0.25419   0.06821   0.89571   0.00000  Uiso   1.00
C88    C     0.24920   0.43156   0.10420   0.00000  Uiso   1.00
C89    C     0.43155   0.24925   0.89580   0.00000  Uiso   1.00
C90    C    -0.00000   0.25000   0.60206   0.00000  Uiso   1.00
C91    C     0.06821   0.25418   0.10430   0.00000  Uiso   1.00
C92    C     0.24581   0.43179   0.89570   0.00000  Uiso   1.00
C93    C     0.25079   0.06845   0.10420   0.00000  Uiso   1.00
C94    C     0.06845   0.25076   0.89580   0.00000  Uiso   1.00
C95    C     0.43179   0.24583   0.10429   0.00000  Uiso   1.00
C96    C     0.25000   0.00000   0.39794   0.00000  Uiso   1.00
C97    C     0.00036   0.21647   0.58204   0.00000  Uiso   1.00
C98    C     0.25000  -0.00000   0.60218   0.00000  Uiso   1.00
C99    C     0.25000  -0.00000   0.89783   0.00000  Uiso   1.00
C100   C     0.25000   0.00000   0.10206   0.00000  Uiso   1.00
C101   C    -0.00000   0.25000   0.89794   0.00000  Uiso   1.00
C102   C     0.00000   0.25000   0.10218   0.00000  Uiso   1.00
C103   C     0.00331   0.18381   0.47969   0.00000  Uiso   1.00
C104   C     0.49608   0.31619   0.51995   0.00000  Uiso   1.00
C105   C     0.31619   0.49611   0.48006   0.00000  Uiso   1.00
C106   C     0.18380   0.00329   0.52031   0.00000  Uiso   1.00
C107   C     0.49669   0.31619   0.47969   0.00000  Uiso   1.00
C108   C     0.21646   0.00035   0.41796   0.00000  Uiso   1.00
C109   C     0.00391   0.18381   0.51994   0.00000  Uiso   1.00
C110   C     0.18381   0.00389   0.48005   0.00000  Uiso   1.00
C111   C     0.31620   0.49671   0.52031   0.00000  Uiso   1.00
C112   C     0.25329   0.43380   0.97969   0.00000  Uiso   1.00
C113   C     0.24611   0.06619   0.01995   0.00000  Uiso   1.00
C114   C     0.06619   0.24608   0.98006   0.00000  Uiso   1.00
C115   C     0.43381   0.25331   0.02031   0.00000  Uiso   1.00
C116   C     0.24671   0.06620   0.97969   0.00000  Uiso   1.00
C117   C     0.25388   0.43381   0.01994   0.00000  Uiso   1.00
C118   C     0.43381   0.25392   0.98006   0.00000  Uiso   1.00
C119   C     0.28347   0.00092   0.58218   0.00000  Uiso   1.00
C120   C     0.06619   0.24668   0.02031   0.00000  Uiso   1.00
C121   C     0.25000   0.00000   0.35566   0.00000  Uiso   1.00
C122   C     0.25000  -0.00000   0.64438   0.00000  Uiso   1.00
C123   C     0.00000   0.25000   0.35562   0.00000  Uiso   1.00
C124   C    -0.00000   0.25000   0.64434   0.00000  Uiso   1.00
C125   C    -0.00000   0.25000   0.85566   0.00000  Uiso   1.00
C126   C     0.00000   0.25000   0.14438   0.00000  Uiso   1.00
C127   C     0.25000  -0.00000   0.85562   0.00000  Uiso   1.00
C128   C     0.25000   0.00000   0.14434   0.00000  Uiso   1.00
C129   C     0.18000   0.07000   0.25000   0.00000  Uiso   1.00
C130   C     0.49909   0.21653   0.41782   0.00000  Uiso   1.00
C131   C     0.32000   0.43000   0.75000   0.00000  Uiso   1.00
C132   C     0.42992   0.17992   0.25000   0.00000  Uiso   1.00
C133   C     0.07004   0.32004   0.75000   0.00000  Uiso   1.00
C134   C     0.32000   0.43000   0.25000   0.00000  Uiso   1.00
C135   C     0.18000   0.07000   0.75000   0.00000  Uiso   1.00
C136   C     0.07008   0.32008   0.25000   0.00000  Uiso   1.00
C137   C     0.42996   0.17996   0.75000   0.00000  Uiso   1.00
C138   C     0.17992   0.42992   0.75000   0.00000  Uiso   1.00
C139   C     0.32004   0.07004   0.25000   0.00000  Uiso   1.00
C140   C     0.43000   0.32000   0.75000   0.00000  Uiso   1.00
C141   C     0.49963   0.28354   0.58204   0.00000  Uiso   1.00
C142   C     0.07000   0.18000   0.25000   0.00000  Uiso   1.00
C143   C     0.32008   0.07008   0.75000   0.00000  Uiso   1.00
C144   C     0.17996   0.42996   0.25000   0.00000  Uiso   1.00
C145   C     0.07000   0.18000   0.75000   0.00000  Uiso   1.00
C146   C     0.43000   0.32000   0.25000   0.00000  Uiso   1.00
C147   C     0.12860   0.39826   0.21770   0.00000  Uiso   1.00
C148   C     0.37305   0.10036   0.78123   0.00000  Uiso   1.00
C149   C     0.11333   0.14039   0.21444   0.00000  Uiso   1.00
C150   C     0.38667   0.35958   0.78555   0.00000  Uiso   1.00
C151   C     0.37139   0.10174   0.21770   0.00000  Uiso   1.00
C152   C     0.28353   0.49966   0.41796   0.00000  Uiso   1.00
C153   C     0.12694   0.39965   0.78123   0.00000  Uiso   1.00
C154   C     0.38667   0.35962   0.21444   0.00000  Uiso   1.00
C155   C     0.11333   0.14042   0.78555   0.00000  Uiso   1.00
C156   C     0.14038   0.11333   0.78556   0.00000  Uiso   1.00
C157   C     0.35958   0.38667   0.21445   0.00000  Uiso   1.00
C158   C     0.10177   0.37137   0.78232   0.00000  Uiso   1.00
C159   C     0.39966   0.12692   0.21879   0.00000  Uiso   1.00
C160   C     0.35962   0.38667   0.78556   0.00000  Uiso   1.00
C161   C     0.14043   0.11334   0.21445   0.00000  Uiso   1.00
C162   C     0.39823   0.12864   0.78232   0.00000  Uiso   1.00
C163   C     0.21653   0.49908   0.58218   0.00000  Uiso   1.00
C164   C     0.10033   0.37307   0.21879   0.00000  Uiso   1.00
C165   C     0.37863   0.14823   0.71768   0.00000  Uiso   1.00
C166   C     0.12308   0.35034   0.28121   0.00000  Uiso   1.00
C167   C     0.36333   0.39038   0.71444   0.00000  Uiso   1.00
C168   C     0.13666   0.10957   0.28555   0.00000  Uiso   1.00
C169   C     0.12136   0.35177   0.71768   0.00000  Uiso   1.00
C170   C     0.37693   0.14967   0.28121   0.00000  Uiso   1.00
C171   C     0.13667   0.10962   0.71444   0.00000  Uiso   1.00
C172   C     0.36333   0.39042   0.28555   0.00000  Uiso   1.00
C173   C     0.39038   0.36333   0.28556   0.00000  Uiso   1.00
C174   C     0.25092   0.03347   0.91782   0.00000  Uiso   1.00
C175   C     0.10958   0.13667   0.71445   0.00000  Uiso   1.00
C176   C     0.35174   0.12140   0.28230   0.00000  Uiso   1.00
C177   C     0.14964   0.37695   0.71877   0.00000  Uiso   1.00
C178   C     0.10961   0.13667   0.28556   0.00000  Uiso   1.00
C179   C     0.39042   0.36333   0.71445   0.00000  Uiso   1.00
C180   C     0.14826   0.37861   0.28230   0.00000  Uiso   1.00
C181   C     0.35035   0.12306   0.71877   0.00000  Uiso   1.00
C182   C     0.00047   0.21653   0.45876   0.00000  Uiso   1.00
C183   C     0.49888   0.28349   0.54104   0.00000  Uiso   1.00
C184   C     0.28349   0.49890   0.45896   0.00000  Uiso   1.00
H185   H     0.00583   0.15774   0.46523   0.00000  Uiso   1.00
H186   H     0.24296   0.09228   0.03416   0.00000  Uiso   1.00
H187   H     0.18804   0.32444   0.68618   0.00000  Uiso   1.00
H188   H     0.08910   0.19512   0.34671   0.00000  Uiso   1.00
H189   H     0.13211   0.18637   0.32344   0.00000  Uiso   1.00
H190   H     0.11976   0.16297   0.36783   0.00000  Uiso   1.00
H191   H     0.36383   0.31886   0.67243   0.00000  Uiso   1.00
H192   H     0.40811   0.30341   0.65655   0.00000  Uiso   1.00
H193   H     0.38483   0.33765   0.62946   0.00000  Uiso   1.00
H194   H     0.14728   0.43228   0.32989   0.00000  Uiso   1.00
H195   H     0.17040   0.40755   0.36766   0.00000  Uiso   1.00
H196   H     0.12655   0.39222   0.35197   0.00000  Uiso   1.00
H197   H     0.09228   0.24293   0.96585   0.00000  Uiso   1.00
H198   H     0.28550   0.14674   0.71866   0.00000  Uiso   1.00
H199   H     0.27971   0.14390   0.66700   0.00000  Uiso   1.00
H200   H     0.31194   0.17557   0.68617   0.00000  Uiso   1.00
H201   H     0.03214   0.36458   0.38712   0.00000  Uiso   1.00
H202   H     0.47513   0.13293   0.61195   0.00000  Uiso   1.00
H203   H     0.13294   0.47507   0.38804   0.00000  Uiso   1.00
H204   H     0.36457   0.03217   0.61290   0.00000  Uiso   1.00
H205   H     0.46786   0.13541   0.38711   0.00000  Uiso   1.00
H206   H     0.02486   0.36708   0.61196   0.00000  Uiso   1.00
H207   H     0.36705   0.02494   0.38805   0.00000  Uiso   1.00
H208   H     0.40774   0.25583   0.03476   0.00000  Uiso   1.00
H209   H     0.13543   0.46783   0.61289   0.00000  Uiso   1.00
H210   H     0.28217   0.11457   0.88711   0.00000  Uiso   1.00
H211   H     0.22506   0.38295   0.11195   0.00000  Uiso   1.00
H212   H     0.38292   0.22514   0.88804   0.00000  Uiso   1.00
H213   H     0.11459   0.28214   0.11289   0.00000  Uiso   1.00
H214   H     0.21783   0.38543   0.88710   0.00000  Uiso   1.00
H215   H     0.27493   0.11706   0.11196   0.00000  Uiso   1.00
H216   H     0.11707   0.27487   0.88805   0.00000  Uiso   1.00
H217   H     0.38542   0.21786   0.11288   0.00000  Uiso   1.00
H218   H     0.24421   0.09226   0.96524   0.00000  Uiso   1.00
H219   H     0.25703   0.40772   0.03416   0.00000  Uiso   1.00
H220   H     0.40772   0.25708   0.96584   0.00000  Uiso   1.00
H221   H     0.09226   0.24417   0.03477   0.00000  Uiso   1.00
H222   H     0.18228   0.39730   0.17012   0.00000  Uiso   1.00
H223   H     0.15753   0.42041   0.13234   0.00000  Uiso   1.00
H224   H     0.14222   0.37656   0.14803   0.00000  Uiso   1.00
H225   H     0.49292   0.34228   0.53416   0.00000  Uiso   1.00
H226   H     0.39669   0.03547   0.78142   0.00000  Uiso   1.00
H227   H     0.39391   0.02978   0.83309   0.00000  Uiso   1.00
H228   H     0.42556   0.06196   0.81382   0.00000  Uiso   1.00
H229   H     0.05488   0.16090   0.15329   0.00000  Uiso   1.00
H230   H     0.06363   0.11789   0.17656   0.00000  Uiso   1.00
H231   H     0.08703   0.13023   0.13217   0.00000  Uiso   1.00
H232   H     0.43114   0.38617   0.82757   0.00000  Uiso   1.00
H233   H     0.44659   0.34189   0.84345   0.00000  Uiso   1.00
H234   H     0.41235   0.36517   0.87054   0.00000  Uiso   1.00
H235   H     0.31772   0.10272   0.17011   0.00000  Uiso   1.00
H236   H     0.34228   0.49297   0.46584   0.00000  Uiso   1.00
H237   H     0.34245   0.07960   0.13234   0.00000  Uiso   1.00
H238   H     0.35778   0.12345   0.14804   0.00000  Uiso   1.00
H239   H     0.10326   0.46449   0.78134   0.00000  Uiso   1.00
H240   H     0.10610   0.47029   0.83300   0.00000  Uiso   1.00
H241   H     0.07443   0.43806   0.81383   0.00000  Uiso   1.00
H242   H     0.44513   0.33911   0.15331   0.00000  Uiso   1.00
H243   H     0.43636   0.38213   0.17656   0.00000  Uiso   1.00
H244   H     0.41298   0.36976   0.13217   0.00000  Uiso   1.00
H245   H     0.06883   0.11384   0.82753   0.00000  Uiso   1.00
H246   H     0.05341   0.15811   0.84346   0.00000  Uiso   1.00
H247   H     0.15774   0.00579   0.53476   0.00000  Uiso   1.00
H248   H     0.08764   0.13479   0.87053   0.00000  Uiso   1.00
H249   H     0.16090   0.05487   0.84670   0.00000  Uiso   1.00
H250   H     0.11788   0.06362   0.82343   0.00000  Uiso   1.00
H251   H     0.13023   0.08701   0.86783   0.00000  Uiso   1.00
H252   H     0.38614   0.43118   0.17247   0.00000  Uiso   1.00
H253   H     0.34187   0.44658   0.15653   0.00000  Uiso   1.00
H254   H     0.36521   0.41235   0.12948   0.00000  Uiso   1.00
H255   H     0.10279   0.31768   0.82988   0.00000  Uiso   1.00
H256   H     0.07968   0.34240   0.86768   0.00000  Uiso   1.00
H257   H     0.12351   0.35774   0.85196   0.00000  Uiso   1.00
H258   H     0.49417   0.34226   0.46524   0.00000  Uiso   1.00
H259   H     0.46455   0.10330   0.21872   0.00000  Uiso   1.00
H260   H     0.47030   0.10601   0.16705   0.00000  Uiso   1.00
H261   H     0.43810   0.07439   0.18634   0.00000  Uiso   1.00
H262   H     0.33909   0.44512   0.84672   0.00000  Uiso   1.00
H263   H     0.38210   0.43639   0.82343   0.00000  Uiso   1.00
H264   H     0.36978   0.41298   0.86782   0.00000  Uiso   1.00
H265   H     0.11387   0.06883   0.17245   0.00000  Uiso   1.00
H266   H     0.15814   0.05343   0.15653   0.00000  Uiso   1.00
H267   H     0.13481   0.08766   0.12947   0.00000  Uiso   1.00
H268   H     0.39728   0.18237   0.82986   0.00000  Uiso   1.00
H269   H     0.00707   0.15772   0.53415   0.00000  Uiso   1.00
H270   H     0.42030   0.15760   0.86769   0.00000  Uiso   1.00
H271   H     0.37646   0.14234   0.85192   0.00000  Uiso   1.00
H272   H     0.03548   0.39674   0.21877   0.00000  Uiso   1.00
H273   H     0.02964   0.39397   0.16712   0.00000  Uiso   1.00
H274   H     0.06188   0.42561   0.18631   0.00000  Uiso   1.00
H275   H     0.43232   0.14721   0.67013   0.00000  Uiso   1.00
H276   H     0.40760   0.17032   0.63232   0.00000  Uiso   1.00
H277   H     0.39226   0.12649   0.64804   0.00000  Uiso   1.00
H278   H     0.14670   0.28545   0.28128   0.00000  Uiso   1.00
H279   H     0.14399   0.27969   0.33295   0.00000  Uiso   1.00
H280   H     0.15772   0.00704   0.46584   0.00000  Uiso   1.00
H281   H     0.17561   0.31190   0.31367   0.00000  Uiso   1.00
H282   H     0.30488   0.41091   0.65329   0.00000  Uiso   1.00
H283   H     0.31361   0.36790   0.67657   0.00000  Uiso   1.00
H284   H     0.33701   0.38022   0.63218   0.00000  Uiso   1.00
H285   H     0.18117   0.13613   0.32755   0.00000  Uiso   1.00
H286   H     0.19657   0.09186   0.34347   0.00000  Uiso   1.00
H287   H     0.16234   0.11519   0.37053   0.00000  Uiso   1.00
H288   H     0.06763   0.35272   0.67014   0.00000  Uiso   1.00
H289   H     0.09240   0.32970   0.63231   0.00000  Uiso   1.00
H290   H     0.10766   0.37354   0.64808   0.00000  Uiso   1.00
H291   H     0.34226   0.49420   0.53477   0.00000  Uiso   1.00
H292   H     0.35326   0.21452   0.28123   0.00000  Uiso   1.00
H293   H     0.35603   0.22036   0.33288   0.00000  Uiso   1.00
H294   H     0.32438   0.18812   0.31369   0.00000  Uiso   1.00
H295   H     0.19513   0.08910   0.65330   0.00000  Uiso   1.00
H296   H     0.18638   0.13212   0.67657   0.00000  Uiso   1.00
H297   H     0.16299   0.11977   0.63218   0.00000  Uiso   1.00
H298   H     0.31882   0.36386   0.32753   0.00000  Uiso   1.00
H299   H     0.30342   0.40813   0.34347   0.00000  Uiso   1.00
H300   H     0.33765   0.38479   0.37052   0.00000  Uiso   1.00
H301   H     0.41089   0.30487   0.34669   0.00000  Uiso   1.00
H302   H     0.25580   0.40774   0.96523   0.00000  Uiso   1.00
H303   H     0.36787   0.31364   0.32344   0.00000  Uiso   1.00
H304   H     0.38024   0.33702   0.36783   0.00000  Uiso   1.00
H305   H     0.13616   0.18117   0.67247   0.00000  Uiso   1.00
H306   H     0.09189   0.19659   0.65654   0.00000  Uiso   1.00
H307   H     0.11521   0.16236   0.62948   0.00000  Uiso   1.00
H308   H     0.35270   0.06772   0.32989   0.00000  Uiso   1.00
H309   H     0.32959   0.09247   0.36766   0.00000  Uiso   1.00
H310   H     0.37344   0.10778   0.35197   0.00000  Uiso   1.00
H311   H     0.21453   0.35331   0.71859   0.00000  Uiso   1.00
H312   H     0.22022   0.35609   0.66692   0.00000  Uiso   1.00
O313   O     0.25000   0.00000   0.25000   0.00000  Uiso   1.00
O314   O     0.25000   0.46963   0.66245   0.00000  Uiso   1.00
O315   O     0.15798   0.46736   0.59587   0.00000  Uiso   1.00
O316   O     0.23231   0.07573   0.87006   0.00000  Uiso   1.00
O317   O     0.28264   0.09202   0.90414   0.00000  Uiso   1.00
O318   O     0.27128   0.42554   0.13008   0.00000  Uiso   1.00
O319   O     0.22270   0.40570   0.09541   0.00000  Uiso   1.00
O320   O     0.42556   0.27133   0.86991   0.00000  Uiso   1.00
O321   O     0.40568   0.22277   0.90459   0.00000  Uiso   1.00
O322   O     0.07573   0.23231   0.12996   0.00000  Uiso   1.00
O323   O     0.09204   0.28262   0.09586   0.00000  Uiso   1.00
O324   O     0.26768   0.42427   0.87005   0.00000  Uiso   1.00
O325   O     0.46963   0.25000   0.33755   0.00000  Uiso   1.00
O326   O     0.21736   0.40797   0.90413   0.00000  Uiso   1.00
O327   O     0.22871   0.07445   0.13009   0.00000  Uiso   1.00
O328   O     0.27729   0.09430   0.09542   0.00000  Uiso   1.00
O329   O     0.07444   0.22867   0.86992   0.00000  Uiso   1.00
O330   O     0.09431   0.27725   0.90460   0.00000  Uiso   1.00
O331   O     0.42427   0.26770   0.12994   0.00000  Uiso   1.00
O332   O     0.40796   0.21738   0.09586   0.00000  Uiso   1.00
O333   O     0.03036   0.25000   0.66245   0.00000  Uiso   1.00
O334   O    -0.00000   0.21964   0.83755   0.00000  Uiso   1.00
O335   O    -0.00000   0.28037   0.16245   0.00000  Uiso   1.00
O336   O     0.28036  -0.00000   0.83755   0.00000  Uiso   1.00
O337   O     0.21963   0.00000   0.16245   0.00000  Uiso   1.00
O338   O    -0.00000   0.28037   0.83755   0.00000  Uiso   1.00
O339   O    -0.00000   0.21964   0.16245   0.00000  Uiso   1.00
O340   O     0.21963  -0.00000   0.83755   0.00000  Uiso   1.00
O341   O     0.25000   0.00000   0.75000   0.00000  Uiso   1.00
O342   O     0.28036   0.00000   0.16245   0.00000  Uiso   1.00
O343   O     0.20724   0.07308   0.27302   0.00000  Uiso   1.00
O344   O     0.29275   0.42692   0.72698   0.00000  Uiso   1.00
O345   O     0.42692   0.20725   0.27302   0.00000  Uiso   1.00
O346   O     0.07307   0.29275   0.72698   0.00000  Uiso   1.00
O347   O     0.29275   0.42692   0.27302   0.00000  Uiso   1.00
O348   O     0.20724   0.07308   0.72698   0.00000  Uiso   1.00
O349   O     0.07307   0.29275   0.27302   0.00000  Uiso   1.00
O350   O     0.42692   0.20725   0.72698   0.00000  Uiso   1.00
O351   O     0.20724   0.42692   0.72698   0.00000  Uiso   1.00
O352   O    -0.00000   0.25000   0.25000   0.00000  Uiso   1.00
O353   O     0.29275   0.07308   0.27302   0.00000  Uiso   1.00
O354   O     0.42692   0.29275   0.72698   0.00000  Uiso   1.00
O355   O     0.07307   0.20724   0.27302   0.00000  Uiso   1.00
O356   O     0.29275   0.07308   0.72698   0.00000  Uiso   1.00
O357   O     0.20724   0.42692   0.27302   0.00000  Uiso   1.00
O358   O     0.07307   0.20724   0.72698   0.00000  Uiso   1.00
O359   O     0.42692   0.29275   0.27302   0.00000  Uiso   1.00
O360   O     0.45724   0.32307   0.77302   0.00000  Uiso   1.00
O361   O     0.04275   0.17692   0.22698   0.00000  Uiso   1.00
O362   O     0.17692   0.45724   0.77302   0.00000  Uiso   1.00
O363   O    -0.00000   0.25000   0.75000   0.00000  Uiso   1.00
O364   O     0.32307   0.04276   0.22698   0.00000  Uiso   1.00
O365   O     0.04275   0.17692   0.77302   0.00000  Uiso   1.00
O366   O     0.45724   0.32307   0.22698   0.00000  Uiso   1.00
O367   O     0.32307   0.04276   0.77302   0.00000  Uiso   1.00
O368   O     0.17692   0.45724   0.22698   0.00000  Uiso   1.00
O369   O     0.45724   0.17693   0.22698   0.00000  Uiso   1.00
O370   O     0.04275   0.32307   0.77302   0.00000  Uiso   1.00
O371   O     0.17692   0.04276   0.22698   0.00000  Uiso   1.00
O372   O     0.32307   0.45724   0.77302   0.00000  Uiso   1.00
O373   O     0.04275   0.32307   0.22698   0.00000  Uiso   1.00
O374   O     0.25000   0.46963   0.33755   0.00000  Uiso   1.00
O375   O     0.45724   0.17693   0.77302   0.00000  Uiso   1.00
O376   O     0.32307   0.45724   0.22698   0.00000  Uiso   1.00
O377   O     0.17692   0.04276   0.77302   0.00000  Uiso   1.00
O378   O     0.13210   0.42044   0.18541   0.00000  Uiso   1.00
O379   O     0.37052   0.07711   0.81282   0.00000  Uiso   1.00
O380   O     0.10497   0.15864   0.18026   0.00000  Uiso   1.00
O381   O     0.39492   0.34123   0.81971   0.00000  Uiso   1.00
O382   O     0.36789   0.07957   0.18541   0.00000  Uiso   1.00
O383   O     0.12947   0.42291   0.81280   0.00000  Uiso   1.00
O384   O     0.39504   0.34137   0.18026   0.00000  Uiso   1.00
O385   O     0.25000   0.03037   0.66245   0.00000  Uiso   1.00
O386   O     0.10507   0.15876   0.81971   0.00000  Uiso   1.00
O387   O     0.15863   0.10496   0.81974   0.00000  Uiso   1.00
O388   O     0.34123   0.39492   0.18029   0.00000  Uiso   1.00
O389   O     0.07961   0.36785   0.81462   0.00000  Uiso   1.00
O390   O     0.42294   0.12942   0.18723   0.00000  Uiso   1.00
O391   O     0.34137   0.39504   0.81974   0.00000  Uiso   1.00
O392   O     0.15878   0.10508   0.18029   0.00000  Uiso   1.00
O393   O     0.42039   0.13216   0.81463   0.00000  Uiso   1.00
O394   O     0.07704   0.37058   0.18723   0.00000  Uiso   1.00
O395   O     0.38215   0.17039   0.68538   0.00000  Uiso   1.00
O396   O     0.03036   0.25000   0.33755   0.00000  Uiso   1.00
O397   O     0.12058   0.32705   0.31277   0.00000  Uiso   1.00
O398   O     0.35496   0.40863   0.68026   0.00000  Uiso   1.00
O399   O     0.14491   0.09122   0.31971   0.00000  Uiso   1.00
O400   O     0.11784   0.32961   0.68538   0.00000  Uiso   1.00
O401   O     0.37942   0.17296   0.31277   0.00000  Uiso   1.00
O402   O     0.14504   0.09137   0.68026   0.00000  Uiso   1.00
O403   O     0.35508   0.40877   0.31971   0.00000  Uiso   1.00
O404   O     0.40863   0.35496   0.31974   0.00000  Uiso   1.00
O405   O     0.09124   0.14493   0.68029   0.00000  Uiso   1.00
O406   O     0.32956   0.11790   0.31459   0.00000  Uiso   1.00
O407   O     0.46963   0.25000   0.66245   0.00000  Uiso   1.00
O408   O     0.17289   0.37948   0.68718   0.00000  Uiso   1.00
O409   O     0.09136   0.14503   0.31974   0.00000  Uiso   1.00
O410   O     0.40877   0.35508   0.68029   0.00000  Uiso   1.00
O411   O     0.17043   0.38211   0.31460   0.00000  Uiso   1.00
O412   O     0.32709   0.12053   0.68720   0.00000  Uiso   1.00
O413   O     0.48230   0.32573   0.37006   0.00000  Uiso   1.00
O414   O     0.03262   0.34204   0.40415   0.00000  Uiso   1.00
O415   O     0.02133   0.17555   0.63008   0.00000  Uiso   1.00
O416   O     0.47275   0.15569   0.59541   0.00000  Uiso   1.00
O417   O     0.17555   0.02129   0.36991   0.00000  Uiso   1.00
O418   O     0.25000   0.03037   0.33755   0.00000  Uiso   1.00
O419   O     0.15570   0.47271   0.40459   0.00000  Uiso   1.00
O420   O     0.32573   0.48232   0.62996   0.00000  Uiso   1.00
O421   O     0.34203   0.03264   0.59587   0.00000  Uiso   1.00
O422   O     0.01769   0.17427   0.37004   0.00000  Uiso   1.00
O423   O     0.46738   0.15796   0.40414   0.00000  Uiso   1.00
O424   O     0.47867   0.32444   0.63009   0.00000  Uiso   1.00
O425   O     0.02723   0.34432   0.59541   0.00000  Uiso   1.00
O426   O     0.32445   0.47872   0.36992   0.00000  Uiso   1.00
O427   O     0.34430   0.02730   0.40459   0.00000  Uiso   1.00
O428   O     0.17427   0.01769   0.62994   0.00000  Uiso   1.00
Zn429  Zn    0.20659  -0.00000   0.21735   0.00000  Uiso   1.00
Zn430  Zn    0.04340   0.25000   0.28265   0.00000  Uiso   1.00
Zn431  Zn    0.25000   0.45659   0.71735   0.00000  Uiso   1.00
Zn432  Zn    0.25000   0.04341   0.28265   0.00000  Uiso   1.00
Zn433  Zn    0.04340   0.25000   0.71735   0.00000  Uiso   1.00
Zn434  Zn    0.45659   0.25000   0.28265   0.00000  Uiso   1.00
Zn435  Zn    0.25000   0.04341   0.71735   0.00000  Uiso   1.00
Zn436  Zn    0.25000   0.45659   0.28265   0.00000  Uiso   1.00
Zn437  Zn    0.29340   0.00000   0.78265   0.00000  Uiso   1.00
Zn438  Zn    0.00000   0.20659   0.21735   0.00000  Uiso   1.00
Zn439  Zn   -0.00000   0.29341   0.78265   0.00000  Uiso   1.00
Zn440  Zn    0.29340  -0.00000   0.21735   0.00000  Uiso   1.00
Zn441  Zn    0.20659   0.00000   0.78265   0.00000  Uiso   1.00
Zn442  Zn   -0.00000   0.29341   0.21735   0.00000  Uiso   1.00
Zn443  Zn   -0.00000   0.20660   0.78265   0.00000  Uiso   1.00
Zn444  Zn    0.45659   0.25000   0.71735   0.00000  Uiso   1.00
C445   C     0.50091   0.28347   0.41782   0.00000  Uiso   1.00
C446   C     0.75034   0.46647   0.08204   0.00000  Uiso   1.00
C447   C     0.71653   0.00045   0.54124   0.00000  Uiso   1.00
C448   C     0.99953   0.28347   0.45876   0.00000  Uiso   1.00
C449   C     0.50112   0.21651   0.54104   0.00000  Uiso   1.00
C450   C     0.71651   0.00111   0.45896   0.00000  Uiso   1.00
C451   C     0.78347   0.49954   0.54124   0.00000  Uiso   1.00
C452   C     0.75045   0.46653   0.95876   0.00000  Uiso   1.00
C453   C     0.74889   0.03349   0.04104   0.00000  Uiso   1.00
C454   C     0.53349   0.24888   0.95896   0.00000  Uiso   1.00
C455   C     0.96653   0.25047   0.04124   0.00000  Uiso   1.00
C456   C     0.74955   0.03347   0.95876   0.00000  Uiso   1.00
C457   C     0.96646   0.25037   0.91796   0.00000  Uiso   1.00
C458   C     0.75110   0.46651   0.04104   0.00000  Uiso   1.00
C459   C     0.96651   0.25112   0.95896   0.00000  Uiso   1.00
C460   C     0.53347   0.24953   0.04124   0.00000  Uiso   1.00
C461   C     0.59818   0.34818   0.25000   0.00000  Uiso   1.00
C462   C     0.90192   0.15192   0.75000   0.00000  Uiso   1.00
C463   C     0.65193   0.09807   0.25000   0.00000  Uiso   1.00
C464   C     0.84808   0.40192   0.75000   0.00000  Uiso   1.00
C465   C     0.90182   0.15182   0.25000   0.00000  Uiso   1.00
C466   C     0.59808   0.34808   0.75000   0.00000  Uiso   1.00
C467   C     0.84807   0.40193   0.25000   0.00000  Uiso   1.00
C468   C     0.53347   0.25091   0.08219   0.00000  Uiso   1.00
C469   C     0.65192   0.09808   0.75000   0.00000  Uiso   1.00
C470   C     0.59807   0.15193   0.75000   0.00000  Uiso   1.00
C471   C     0.90192   0.34808   0.25000   0.00000  Uiso   1.00
C472   C     0.65182   0.40182   0.75000   0.00000  Uiso   1.00
C473   C     0.84808   0.09808   0.25000   0.00000  Uiso   1.00
C474   C     0.90193   0.34807   0.75000   0.00000  Uiso   1.00
C475   C     0.59808   0.15192   0.25000   0.00000  Uiso   1.00
C476   C     0.84818   0.09818   0.75000   0.00000  Uiso   1.00
C477   C     0.65192   0.40192   0.25000   0.00000  Uiso   1.00
C478   C     0.50000   0.25000   0.47929   0.00000  Uiso   1.00
C479   C     0.74908   0.46653   0.91782   0.00000  Uiso   1.00
C480   C     0.50000   0.25000   0.52054   0.00000  Uiso   1.00
C481   C     0.75000   0.00000   0.47946   0.00000  Uiso   1.00
C482   C     0.75000  -0.00000   0.52071   0.00000  Uiso   1.00
C483   C     0.75000  -0.00000   0.97929   0.00000  Uiso   1.00
C484   C     0.75000   0.00000   0.02054   0.00000  Uiso   1.00
C485   C     0.50000   0.25000   0.97946   0.00000  Uiso   1.00
C486   C     0.50000   0.25000   0.02071   0.00000  Uiso   1.00
C487   C     0.65456   0.40250   0.15810   0.00000  Uiso   1.00
C488   C     0.89804   0.05017   0.80972   0.00000  Uiso   1.00
C489   C     0.57656   0.14072   0.16028   0.00000  Uiso   1.00
C490   C     0.74965   0.03354   0.08204   0.00000  Uiso   1.00
C491   C     0.92228   0.35984   0.84062   0.00000  Uiso   1.00
C492   C     0.84544   0.09751   0.15810   0.00000  Uiso   1.00
C493   C     0.60195   0.44985   0.80968   0.00000  Uiso   1.00
C494   C     0.92345   0.35929   0.16028   0.00000  Uiso   1.00
C495   C     0.57770   0.14015   0.84061   0.00000  Uiso   1.00
C496   C     0.64071   0.07655   0.83971   0.00000  Uiso   1.00
C497   C     0.85983   0.42229   0.15939   0.00000  Uiso   1.00
C498   C     0.59758   0.34539   0.84191   0.00000  Uiso   1.00
C499   C     0.94989   0.10191   0.19039   0.00000  Uiso   1.00
C500   C     0.85929   0.42345   0.83972   0.00000  Uiso   1.00
C501   C     0.53353   0.24964   0.91796   0.00000  Uiso   1.00
C502   C     0.64018   0.07772   0.15938   0.00000  Uiso   1.00
C503   C     0.90243   0.15464   0.84190   0.00000  Uiso   1.00
C504   C     0.55010   0.39809   0.19042   0.00000  Uiso   1.00
C505   C     0.90461   0.15242   0.65809   0.00000  Uiso   1.00
C506   C     0.64809   0.30011   0.30961   0.00000  Uiso   1.00
C507   C     0.82655   0.39071   0.66028   0.00000  Uiso   1.00
C508   C     0.67228   0.10982   0.34062   0.00000  Uiso   1.00
C509   C     0.59536   0.34757   0.65810   0.00000  Uiso   1.00
C510   C     0.85191   0.19990   0.30958   0.00000  Uiso   1.00
C511   C     0.67345   0.10929   0.66029   0.00000  Uiso   1.00
C512   C     0.96653   0.24909   0.08218   0.00000  Uiso   1.00
C513   C     0.82771   0.39016   0.34061   0.00000  Uiso   1.00
C514   C     0.89071   0.32655   0.33972   0.00000  Uiso   1.00
C515   C     0.60985   0.17230   0.65939   0.00000  Uiso   1.00
C516   C     0.84750   0.09544   0.34190   0.00000  Uiso   1.00
C517   C     0.69983   0.35196   0.69028   0.00000  Uiso   1.00
C518   C     0.60928   0.17344   0.33972   0.00000  Uiso   1.00
C519   C     0.89016   0.32771   0.65938   0.00000  Uiso   1.00
C520   C     0.65249   0.40456   0.34190   0.00000  Uiso   1.00
C521   C     0.80015   0.14805   0.69032   0.00000  Uiso   1.00
C522   C     0.50417   0.31821   0.39571   0.00000  Uiso   1.00
C523   C     0.50000   0.25000   0.39782   0.00000  Uiso   1.00
C524   C     0.99924   0.18155   0.60420   0.00000  Uiso   1.00
C525   C     0.68155   0.49921   0.39580   0.00000  Uiso   1.00
C526   C     0.81821   0.00419   0.60430   0.00000  Uiso   1.00
C527   C     0.99582   0.18179   0.39570   0.00000  Uiso   1.00
C528   C     0.50075   0.31845   0.60420   0.00000  Uiso   1.00
C529   C     0.81844   0.00080   0.39580   0.00000  Uiso   1.00
C530   C     0.68179   0.49581   0.60429   0.00000  Uiso   1.00
C531   C     0.75419   0.06821   0.89571   0.00000  Uiso   1.00
C532   C     0.74920   0.43156   0.10420   0.00000  Uiso   1.00
C533   C     0.93155   0.24925   0.89580   0.00000  Uiso   1.00
C534   C     0.50000   0.25000   0.60206   0.00000  Uiso   1.00
C535   C     0.56821   0.25418   0.10430   0.00000  Uiso   1.00
C536   C     0.74581   0.43179   0.89570   0.00000  Uiso   1.00
C537   C     0.75079   0.06845   0.10420   0.00000  Uiso   1.00
C538   C     0.56845   0.25076   0.89580   0.00000  Uiso   1.00
C539   C     0.93179   0.24583   0.10429   0.00000  Uiso   1.00
C540   C     0.75000   0.00000   0.39794   0.00000  Uiso   1.00
C541   C     0.50036   0.21647   0.58204   0.00000  Uiso   1.00
C542   C     0.75000  -0.00000   0.60218   0.00000  Uiso   1.00
C543   C     0.75000  -0.00000   0.89783   0.00000  Uiso   1.00
C544   C     0.75000   0.00000   0.10206   0.00000  Uiso   1.00
C545   C     0.50000   0.25000   0.89794   0.00000  Uiso   1.00
C546   C     0.50000   0.25000   0.10218   0.00000  Uiso   1.00
C547   C     0.50331   0.18381   0.47969   0.00000  Uiso   1.00
C548   C     0.99608   0.31619   0.51995   0.00000  Uiso   1.00
C549   C     0.81619   0.49611   0.48006   0.00000  Uiso   1.00
C550   C     0.68380   0.00329   0.52031   0.00000  Uiso   1.00
C551   C     0.99669   0.31619   0.47969   0.00000  Uiso   1.00
C552   C     0.71646   0.00035   0.41796   0.00000  Uiso   1.00
C553   C     0.50391   0.18381   0.51994   0.00000  Uiso   1.00
C554   C     0.68381   0.00389   0.48005   0.00000  Uiso   1.00
C555   C     0.81620   0.49671   0.52031   0.00000  Uiso   1.00
C556   C     0.75329   0.43380   0.97969   0.00000  Uiso   1.00
C557   C     0.74611   0.06619   0.01995   0.00000  Uiso   1.00
C558   C     0.56619   0.24608   0.98006   0.00000  Uiso   1.00
C559   C     0.93381   0.25331   0.02031   0.00000  Uiso   1.00
C560   C     0.74671   0.06620   0.97969   0.00000  Uiso   1.00
C561   C     0.75388   0.43381   0.01994   0.00000  Uiso   1.00
C562   C     0.93381   0.25392   0.98006   0.00000  Uiso   1.00
C563   C     0.78347   0.00092   0.58218   0.00000  Uiso   1.00
C564   C     0.56619   0.24668   0.02031   0.00000  Uiso   1.00
C565   C     0.75000   0.00000   0.35566   0.00000  Uiso   1.00
C566   C     0.75000  -0.00000   0.64438   0.00000  Uiso   1.00
C567   C     0.50000   0.25000   0.35562   0.00000  Uiso   1.00
C568   C     0.50000   0.25000   0.64434   0.00000  Uiso   1.00
C569   C     0.50000   0.25000   0.85566   0.00000  Uiso   1.00
C570   C     0.50000   0.25000   0.14438   0.00000  Uiso   1.00
C571   C     0.75000  -0.00000   0.85562   0.00000  Uiso   1.00
C572   C     0.75000   0.00000   0.14434   0.00000  Uiso   1.00
C573   C     0.68000   0.07000   0.25000   0.00000  Uiso   1.00
C574   C     0.99909   0.21653   0.41782   0.00000  Uiso   1.00
C575   C     0.82000   0.43000   0.75000   0.00000  Uiso   1.00
C576   C     0.92992   0.17992   0.25000   0.00000  Uiso   1.00
C577   C     0.57004   0.32004   0.75000   0.00000  Uiso   1.00
C578   C     0.82000   0.43000   0.25000   0.00000  Uiso   1.00
C579   C     0.68000   0.07000   0.75000   0.00000  Uiso   1.00
C580   C     0.57008   0.32008   0.25000   0.00000  Uiso   1.00
C581   C     0.92996   0.17996   0.75000   0.00000  Uiso   1.00
C582   C     0.67992   0.42992   0.75000   0.00000  Uiso   1.00
C583   C     0.82004   0.07004   0.25000   0.00000  Uiso   1.00
C584   C     0.93000   0.32000   0.75000   0.00000  Uiso   1.00
C585   C     0.99963   0.28354   0.58204   0.00000  Uiso   1.00
C586   C     0.57000   0.18000   0.25000   0.00000  Uiso   1.00
C587   C     0.82008   0.07008   0.75000   0.00000  Uiso   1.00
C588   C     0.67996   0.42996   0.25000   0.00000  Uiso   1.00
C589   C     0.57000   0.18000   0.75000   0.00000  Uiso   1.00
C590   C     0.93000   0.32000   0.25000   0.00000  Uiso   1.00
C591   C     0.62860   0.39826   0.21770   0.00000  Uiso   1.00
C592   C     0.87305   0.10036   0.78123   0.00000  Uiso   1.00
C593   C     0.61333   0.14039   0.21444   0.00000  Uiso   1.00
C594   C     0.88667   0.35958   0.78555   0.00000  Uiso   1.00
C595   C     0.87139   0.10174   0.21770   0.00000  Uiso   1.00
C596   C     0.78353   0.49966   0.41796   0.00000  Uiso   1.00
C597   C     0.62694   0.39965   0.78123   0.00000  Uiso   1.00
C598   C     0.88667   0.35962   0.21444   0.00000  Uiso   1.00
C599   C     0.61333   0.14042   0.78555   0.00000  Uiso   1.00
C600   C     0.64038   0.11333   0.78556   0.00000  Uiso   1.00
C601   C     0.85958   0.38667   0.21445   0.00000  Uiso   1.00
C602   C     0.60177   0.37137   0.78232   0.00000  Uiso   1.00
C603   C     0.89966   0.12692   0.21879   0.00000  Uiso   1.00
C604   C     0.85962   0.38667   0.78556   0.00000  Uiso   1.00
C605   C     0.64043   0.11334   0.21445   0.00000  Uiso   1.00
C606   C     0.89823   0.12864   0.78232   0.00000  Uiso   1.00
C607   C     0.71653   0.49908   0.58218   0.00000  Uiso   1.00
C608   C     0.60033   0.37307   0.21879   0.00000  Uiso   1.00
C609   C     0.87863   0.14823   0.71768   0.00000  Uiso   1.00
C610   C     0.62308   0.35034   0.28121   0.00000  Uiso   1.00
C611   C     0.86333   0.39038   0.71444   0.00000  Uiso   1.00
C612   C     0.63666   0.10957   0.28555   0.00000  Uiso   1.00
C613   C     0.62136   0.35177   0.71768   0.00000  Uiso   1.00
C614   C     0.87693   0.14967   0.28121   0.00000  Uiso   1.00
C615   C     0.63667   0.10962   0.71444   0.00000  Uiso   1.00
C616   C     0.86333   0.39042   0.28555   0.00000  Uiso   1.00
C617   C     0.89038   0.36333   0.28556   0.00000  Uiso   1.00
C618   C     0.75092   0.03347   0.91782   0.00000  Uiso   1.00
C619   C     0.60958   0.13667   0.71445   0.00000  Uiso   1.00
C620   C     0.85174   0.12140   0.28230   0.00000  Uiso   1.00
C621   C     0.64964   0.37695   0.71877   0.00000  Uiso   1.00
C622   C     0.60961   0.13667   0.28556   0.00000  Uiso   1.00
C623   C     0.89042   0.36333   0.71445   0.00000  Uiso   1.00
C624   C     0.64826   0.37861   0.28230   0.00000  Uiso   1.00
C625   C     0.85035   0.12306   0.71877   0.00000  Uiso   1.00
C626   C     0.50047   0.21653   0.45876   0.00000  Uiso   1.00
C627   C     0.99888   0.28349   0.54104   0.00000  Uiso   1.00
C628   C     0.78349   0.49890   0.45896   0.00000  Uiso   1.00
H629   H     0.50583   0.15774   0.46523   0.00000  Uiso   1.00
H630   H     0.74296   0.09228   0.03416   0.00000  Uiso   1.00
H631   H     0.68804   0.32444   0.68618   0.00000  Uiso   1.00
H632   H     0.58910   0.19512   0.34671   0.00000  Uiso   1.00
H633   H     0.63211   0.18637   0.32344   0.00000  Uiso   1.00
H634   H     0.61976   0.16297   0.36783   0.00000  Uiso   1.00
H635   H     0.86383   0.31886   0.67243   0.00000  Uiso   1.00
H636   H     0.90811   0.30341   0.65655   0.00000  Uiso   1.00
H637   H     0.88483   0.33765   0.62946   0.00000  Uiso   1.00
H638   H     0.64728   0.43228   0.32989   0.00000  Uiso   1.00
H639   H     0.67040   0.40755   0.36766   0.00000  Uiso   1.00
H640   H     0.62655   0.39222   0.35197   0.00000  Uiso   1.00
H641   H     0.59228   0.24293   0.96585   0.00000  Uiso   1.00
H642   H     0.78550   0.14674   0.71866   0.00000  Uiso   1.00
H643   H     0.77971   0.14390   0.66700   0.00000  Uiso   1.00
H644   H     0.81194   0.17557   0.68617   0.00000  Uiso   1.00
H645   H     0.53214   0.36458   0.38712   0.00000  Uiso   1.00
H646   H     0.97513   0.13293   0.61195   0.00000  Uiso   1.00
H647   H     0.63294   0.47507   0.38804   0.00000  Uiso   1.00
H648   H     0.86457   0.03217   0.61290   0.00000  Uiso   1.00
H649   H     0.96786   0.13541   0.38711   0.00000  Uiso   1.00
H650   H     0.52486   0.36708   0.61196   0.00000  Uiso   1.00
H651   H     0.86705   0.02494   0.38805   0.00000  Uiso   1.00
H652   H     0.90774   0.25583   0.03476   0.00000  Uiso   1.00
H653   H     0.63543   0.46783   0.61289   0.00000  Uiso   1.00
H654   H     0.78217   0.11457   0.88711   0.00000  Uiso   1.00
H655   H     0.72506   0.38295   0.11195   0.00000  Uiso   1.00
H656   H     0.88292   0.22514   0.88804   0.00000  Uiso   1.00
H657   H     0.61459   0.28214   0.11289   0.00000  Uiso   1.00
H658   H     0.71783   0.38543   0.88710   0.00000  Uiso   1.00
H659   H     0.77493   0.11706   0.11196   0.00000  Uiso   1.00
H660   H     0.61707   0.27487   0.88805   0.00000  Uiso   1.00
H661   H     0.88542   0.21786   0.11288   0.00000  Uiso   1.00
H662   H     0.74421   0.09226   0.96524   0.00000  Uiso   1.00
H663   H     0.75703   0.40772   0.03416   0.00000  Uiso   1.00
H664   H     0.90772   0.25708   0.96584   0.00000  Uiso   1.00
H665   H     0.59226   0.24417   0.03477   0.00000  Uiso   1.00
H666   H     0.68228   0.39730   0.17012   0.00000  Uiso   1.00
H667   H     0.65753   0.42041   0.13234   0.00000  Uiso   1.00
H668   H     0.64222   0.37656   0.14803   0.00000  Uiso   1.00
H669   H     0.99292   0.34228   0.53416   0.00000  Uiso   1.00
H670   H     0.89669   0.03547   0.78142   0.00000  Uiso   1.00
H671   H     0.89391   0.02978   0.83309   0.00000  Uiso   1.00
H672   H     0.92556   0.06196   0.81382   0.00000  Uiso   1.00
H673   H     0.55488   0.16090   0.15329   0.00000  Uiso   1.00
H674   H     0.56363   0.11789   0.17656   0.00000  Uiso   1.00
H675   H     0.58703   0.13023   0.13217   0.00000  Uiso   1.00
H676   H     0.93114   0.38617   0.82757   0.00000  Uiso   1.00
H677   H     0.94659   0.34189   0.84345   0.00000  Uiso   1.00
H678   H     0.91235   0.36517   0.87054   0.00000  Uiso   1.00
H679   H     0.81772   0.10272   0.17011   0.00000  Uiso   1.00
H680   H     0.84228   0.49297   0.46584   0.00000  Uiso   1.00
H681   H     0.84245   0.07960   0.13234   0.00000  Uiso   1.00
H682   H     0.85778   0.12345   0.14804   0.00000  Uiso   1.00
H683   H     0.60326   0.46449   0.78134   0.00000  Uiso   1.00
H684   H     0.60610   0.47029   0.83300   0.00000  Uiso   1.00
H685   H     0.57443   0.43806   0.81383   0.00000  Uiso   1.00
H686   H     0.94513   0.33911   0.15331   0.00000  Uiso   1.00
H687   H     0.93636   0.38213   0.17656   0.00000  Uiso   1.00
H688   H     0.91298   0.36976   0.13217   0.00000  Uiso   1.00
H689   H     0.56883   0.11384   0.82753   0.00000  Uiso   1.00
H690   H     0.55341   0.15811   0.84346   0.00000  Uiso   1.00
H691   H     0.65774   0.00579   0.53476   0.00000  Uiso   1.00
H692   H     0.58764   0.13479   0.87053   0.00000  Uiso   1.00
H693   H     0.66090   0.05487   0.84670   0.00000  Uiso   1.00
H694   H     0.61788   0.06362   0.82343   0.00000  Uiso   1.00
H695   H     0.63023   0.08701   0.86783   0.00000  Uiso   1.00
H696   H     0.88614   0.43118   0.17247   0.00000  Uiso   1.00
H697   H     0.84187   0.44658   0.15653   0.00000  Uiso   1.00
H698   H     0.86521   0.41235   0.12948   0.00000  Uiso   1.00
H699   H     0.60279   0.31768   0.82988   0.00000  Uiso   1.00
H700   H     0.57968   0.34240   0.86768   0.00000  Uiso   1.00
H701   H     0.62351   0.35774   0.85196   0.00000  Uiso   1.00
H702   H     0.99417   0.34226   0.46524   0.00000  Uiso   1.00
H703   H     0.96455   0.10330   0.21872   0.00000  Uiso   1.00
H704   H     0.97030   0.10601   0.16705   0.00000  Uiso   1.00
H705   H     0.93810   0.07439   0.18634   0.00000  Uiso   1.00
H706   H     0.83909   0.44512   0.84672   0.00000  Uiso   1.00
H707   H     0.88210   0.43639   0.82343   0.00000  Uiso   1.00
H708   H     0.86978   0.41298   0.86782   0.00000  Uiso   1.00
H709   H     0.61387   0.06883   0.17245   0.00000  Uiso   1.00
H710   H     0.65814   0.05343   0.15653   0.00000  Uiso   1.00
H711   H     0.63481   0.08766   0.12947   0.00000  Uiso   1.00
H712   H     0.89728   0.18237   0.82986   0.00000  Uiso   1.00
H713   H     0.50707   0.15772   0.53415   0.00000  Uiso   1.00
H714   H     0.92030   0.15760   0.86769   0.00000  Uiso   1.00
H715   H     0.87646   0.14234   0.85192   0.00000  Uiso   1.00
H716   H     0.53548   0.39674   0.21877   0.00000  Uiso   1.00
H717   H     0.52964   0.39397   0.16712   0.00000  Uiso   1.00
H718   H     0.56188   0.42561   0.18631   0.00000  Uiso   1.00
H719   H     0.93232   0.14721   0.67013   0.00000  Uiso   1.00
H720   H     0.90760   0.17032   0.63232   0.00000  Uiso   1.00
H721   H     0.89226   0.12649   0.64804   0.00000  Uiso   1.00
H722   H     0.64670   0.28545   0.28128   0.00000  Uiso   1.00
H723   H     0.64399   0.27969   0.33295   0.00000  Uiso   1.00
H724   H     0.65772   0.00704   0.46584   0.00000  Uiso   1.00
H725   H     0.67561   0.31190   0.31367   0.00000  Uiso   1.00
H726   H     0.80488   0.41091   0.65329   0.00000  Uiso   1.00
H727   H     0.81361   0.36790   0.67657   0.00000  Uiso   1.00
H728   H     0.83701   0.38022   0.63218   0.00000  Uiso   1.00
H729   H     0.68117   0.13613   0.32755   0.00000  Uiso   1.00
H730   H     0.69657   0.09186   0.34347   0.00000  Uiso   1.00
H731   H     0.66234   0.11519   0.37053   0.00000  Uiso   1.00
H732   H     0.56763   0.35272   0.67014   0.00000  Uiso   1.00
H733   H     0.59240   0.32970   0.63231   0.00000  Uiso   1.00
H734   H     0.60766   0.37354   0.64808   0.00000  Uiso   1.00
H735   H     0.84226   0.49420   0.53477   0.00000  Uiso   1.00
H736   H     0.85326   0.21452   0.28123   0.00000  Uiso   1.00
H737   H     0.85603   0.22036   0.33288   0.00000  Uiso   1.00
H738   H     0.82438   0.18812   0.31369   0.00000  Uiso   1.00
H739   H     0.69513   0.08910   0.65330   0.00000  Uiso   1.00
H740   H     0.68638   0.13212   0.67657   0.00000  Uiso   1.00
H741   H     0.66299   0.11977   0.63218   0.00000  Uiso   1.00
H742   H     0.81882   0.36386   0.32753   0.00000  Uiso   1.00
H743   H     0.80342   0.40813   0.34347   0.00000  Uiso   1.00
H744   H     0.83765   0.38479   0.37052   0.00000  Uiso   1.00
H745   H     0.91089   0.30487   0.34669   0.00000  Uiso   1.00
H746   H     0.75580   0.40774   0.96523   0.00000  Uiso   1.00
H747   H     0.86787   0.31364   0.32344   0.00000  Uiso   1.00
H748   H     0.88024   0.33702   0.36783   0.00000  Uiso   1.00
H749   H     0.63616   0.18117   0.67247   0.00000  Uiso   1.00
H750   H     0.59189   0.19659   0.65654   0.00000  Uiso   1.00
H751   H     0.61521   0.16236   0.62948   0.00000  Uiso   1.00
H752   H     0.85270   0.06772   0.32989   0.00000  Uiso   1.00
H753   H     0.82959   0.09247   0.36766   0.00000  Uiso   1.00
H754   H     0.87344   0.10778   0.35197   0.00000  Uiso   1.00
H755   H     0.71453   0.35331   0.71859   0.00000  Uiso   1.00
H756   H     0.72022   0.35609   0.66692   0.00000  Uiso   1.00
O757   O     0.75000   0.00000   0.25000   0.00000  Uiso   1.00
O758   O     0.75000   0.46963   0.66245   0.00000  Uiso   1.00
O759   O     0.65798   0.46736   0.59587   0.00000  Uiso   1.00
O760   O     0.73231   0.07573   0.87006   0.00000  Uiso   1.00
O761   O     0.78264   0.09202   0.90414   0.00000  Uiso   1.00
O762   O     0.77128   0.42554   0.13008   0.00000  Uiso   1.00
O763   O     0.72270   0.40570   0.09541   0.00000  Uiso   1.00
O764   O     0.92556   0.27133   0.86991   0.00000  Uiso   1.00
O765   O     0.90568   0.22277   0.90459   0.00000  Uiso   1.00
O766   O     0.57573   0.23231   0.12996   0.00000  Uiso   1.00
O767   O     0.59204   0.28262   0.09586   0.00000  Uiso   1.00
O768   O     0.76768   0.42427   0.87005   0.00000  Uiso   1.00
O769   O     0.96963   0.25000   0.33755   0.00000  Uiso   1.00
O770   O     0.71736   0.40797   0.90413   0.00000  Uiso   1.00
O771   O     0.72871   0.07445   0.13009   0.00000  Uiso   1.00
O772   O     0.77729   0.09430   0.09542   0.00000  Uiso   1.00
O773   O     0.57444   0.22867   0.86992   0.00000  Uiso   1.00
O774   O     0.59431   0.27725   0.90460   0.00000  Uiso   1.00
O775   O     0.92427   0.26770   0.12994   0.00000  Uiso   1.00
O776   O     0.90796   0.21738   0.09586   0.00000  Uiso   1.00
O777   O     0.53036   0.25000   0.66245   0.00000  Uiso   1.00
O778   O     0.50000   0.21964   0.83755   0.00000  Uiso   1.00
O779   O     0.50000   0.28037   0.16245   0.00000  Uiso   1.00
O780   O     0.78036  -0.00000   0.83755   0.00000  Uiso   1.00
O781   O     0.71963   0.00000   0.16245   0.00000  Uiso   1.00
O782   O     0.50000   0.28037   0.83755   0.00000  Uiso   1.00
O783   O     0.50000   0.21964   0.16245   0.00000  Uiso   1.00
O784   O     0.71963  -0.00000   0.83755   0.00000  Uiso   1.00
O785   O     0.75000   0.00000   0.75000   0.00000  Uiso   1.00
O786   O     0.78036   0.00000   0.16245   0.00000  Uiso   1.00
O787   O     0.70724   0.07308   0.27302   0.00000  Uiso   1.00
O788   O     0.79275   0.42692   0.72698   0.00000  Uiso   1.00
O789   O     0.92692   0.20725   0.27302   0.00000  Uiso   1.00
O790   O     0.57307   0.29275   0.72698   0.00000  Uiso   1.00
O791   O     0.79275   0.42692   0.27302   0.00000  Uiso   1.00
O792   O     0.70724   0.07308   0.72698   0.00000  Uiso   1.00
O793   O     0.57307   0.29275   0.27302   0.00000  Uiso   1.00
O794   O     0.92692   0.20725   0.72698   0.00000  Uiso   1.00
O795   O     0.70724   0.42692   0.72698   0.00000  Uiso   1.00
O796   O     0.50000   0.25000   0.25000   0.00000  Uiso   1.00
O797   O     0.79275   0.07308   0.27302   0.00000  Uiso   1.00
O798   O     0.92692   0.29275   0.72698   0.00000  Uiso   1.00
O799   O     0.57307   0.20724   0.27302   0.00000  Uiso   1.00
O800   O     0.79275   0.07308   0.72698   0.00000  Uiso   1.00
O801   O     0.70724   0.42692   0.27302   0.00000  Uiso   1.00
O802   O     0.57307   0.20724   0.72698   0.00000  Uiso   1.00
O803   O     0.92692   0.29275   0.27302   0.00000  Uiso   1.00
O804   O     0.95724   0.32307   0.77302   0.00000  Uiso   1.00
O805   O     0.54275   0.17692   0.22698   0.00000  Uiso   1.00
O806   O     0.67692   0.45724   0.77302   0.00000  Uiso   1.00
O807   O     0.50000   0.25000   0.75000   0.00000  Uiso   1.00
O808   O     0.82307   0.04276   0.22698   0.00000  Uiso   1.00
O809   O     0.54275   0.17692   0.77302   0.00000  Uiso   1.00
O810   O     0.95724   0.32307   0.22698   0.00000  Uiso   1.00
O811   O     0.82307   0.04276   0.77302   0.00000  Uiso   1.00
O812   O     0.67692   0.45724   0.22698   0.00000  Uiso   1.00
O813   O     0.95724   0.17693   0.22698   0.00000  Uiso   1.00
O814   O     0.54275   0.32307   0.77302   0.00000  Uiso   1.00
O815   O     0.67692   0.04276   0.22698   0.00000  Uiso   1.00
O816   O     0.82307   0.45724   0.77302   0.00000  Uiso   1.00
O817   O     0.54275   0.32307   0.22698   0.00000  Uiso   1.00
O818   O     0.75000   0.46963   0.33755   0.00000  Uiso   1.00
O819   O     0.95724   0.17693   0.77302   0.00000  Uiso   1.00
O820   O     0.82307   0.45724   0.22698   0.00000  Uiso   1.00
O821   O     0.67692   0.04276   0.77302   0.00000  Uiso   1.00
O822   O     0.63210   0.42044   0.18541   0.00000  Uiso   1.00
O823   O     0.87052   0.07711   0.81282   0.00000  Uiso   1.00
O824   O     0.60497   0.15864   0.18026   0.00000  Uiso   1.00
O825   O     0.89492   0.34123   0.81971   0.00000  Uiso   1.00
O826   O     0.86789   0.07957   0.18541   0.00000  Uiso   1.00
O827   O     0.62947   0.42291   0.81280   0.00000  Uiso   1.00
O828   O     0.89504   0.34137   0.18026   0.00000  Uiso   1.00
O829   O     0.75000   0.03037   0.66245   0.00000  Uiso   1.00
O830   O     0.60507   0.15876   0.81971   0.00000  Uiso   1.00
O831   O     0.65863   0.10496   0.81974   0.00000  Uiso   1.00
O832   O     0.84123   0.39492   0.18029   0.00000  Uiso   1.00
O833   O     0.57961   0.36785   0.81462   0.00000  Uiso   1.00
O834   O     0.92294   0.12942   0.18723   0.00000  Uiso   1.00
O835   O     0.84137   0.39504   0.81974   0.00000  Uiso   1.00
O836   O     0.65878   0.10508   0.18029   0.00000  Uiso   1.00
O837   O     0.92039   0.13216   0.81463   0.00000  Uiso   1.00
O838   O     0.57704   0.37058   0.18723   0.00000  Uiso   1.00
O839   O     0.88215   0.17039   0.68538   0.00000  Uiso   1.00
O840   O     0.53036   0.25000   0.33755   0.00000  Uiso   1.00
O841   O     0.62058   0.32705   0.31277   0.00000  Uiso   1.00
O842   O     0.85496   0.40863   0.68026   0.00000  Uiso   1.00
O843   O     0.64491   0.09122   0.31971   0.00000  Uiso   1.00
O844   O     0.61784   0.32961   0.68538   0.00000  Uiso   1.00
O845   O     0.87942   0.17296   0.31277   0.00000  Uiso   1.00
O846   O     0.64504   0.09137   0.68026   0.00000  Uiso   1.00
O847   O     0.85508   0.40877   0.31971   0.00000  Uiso   1.00
O848   O     0.90863   0.35496   0.31974   0.00000  Uiso   1.00
O849   O     0.59124   0.14493   0.68029   0.00000  Uiso   1.00
O850   O     0.82956   0.11790   0.31459   0.00000  Uiso   1.00
O851   O     0.96963   0.25000   0.66245   0.00000  Uiso   1.00
O852   O     0.67289   0.37948   0.68718   0.00000  Uiso   1.00
O853   O     0.59136   0.14503   0.31974   0.00000  Uiso   1.00
O854   O     0.90877   0.35508   0.68029   0.00000  Uiso   1.00
O855   O     0.67043   0.38211   0.31460   0.00000  Uiso   1.00
O856   O     0.82709   0.12053   0.68720   0.00000  Uiso   1.00
O857   O     0.98230   0.32573   0.37006   0.00000  Uiso   1.00
O858   O     0.53262   0.34204   0.40415   0.00000  Uiso   1.00
O859   O     0.52133   0.17555   0.63008   0.00000  Uiso   1.00
O860   O     0.97275   0.15569   0.59541   0.00000  Uiso   1.00
O861   O     0.67555   0.02129   0.36991   0.00000  Uiso   1.00
O862   O     0.75000   0.03037   0.33755   0.00000  Uiso   1.00
O863   O     0.65570   0.47271   0.40459   0.00000  Uiso   1.00
O864   O     0.82573   0.48232   0.62996   0.00000  Uiso   1.00
O865   O     0.84203   0.03264   0.59587   0.00000  Uiso   1.00
O866   O     0.51769   0.17427   0.37004   0.00000  Uiso   1.00
O867   O     0.96738   0.15796   0.40414   0.00000  Uiso   1.00
O868   O     0.97867   0.32444   0.63009   0.00000  Uiso   1.00
O869   O     0.52723   0.34432   0.59541   0.00000  Uiso   1.00
O870   O     0.82445   0.47872   0.36992   0.00000  Uiso   1.00
O871   O     0.84430   0.02730   0.40459   0.00000  Uiso   1.00
O872   O     0.67427   0.01769   0.62994   0.00000  Uiso   1.00
Zn873  Zn    0.70659  -0.00000   0.21735   0.00000  Uiso   1.00
Zn874  Zn    0.54340   0.25000   0.28265   0.00000  Uiso   1.00
Zn875  Zn    0.75000   0.45659   0.71735   0.00000  Uiso   1.00
Zn876  Zn    0.75000   0.04341   0.28265   0.00000  Uiso   1.00
Zn877  Zn    0.54340   0.25000   0.71735   0.00000  Uiso   1.00
Zn878  Zn    0.95659   0.25000   0.28265   0.00000  Uiso   1.00
Zn879  Zn    0.75000   0.04341   0.71735   0.00000  Uiso   1.00
Zn880  Zn    0.75000   0.45659   0.28265   0.00000  Uiso   1.00
Zn881  Zn    0.79340   0.00000   0.78265   0.00000  Uiso   1.00
Zn882  Zn    0.50000   0.20659   0.21735   0.00000  Uiso   1.00
Zn883  Zn    0.50000   0.29341   0.78265   0.00000  Uiso   1.00
Zn884  Zn    0.79340  -0.00000   0.21735   0.00000  Uiso   1.00
Zn885  Zn    0.70659   0.00000   0.78265   0.00000  Uiso   1.00
Zn886  Zn    0.50000   0.29341   0.21735   0.00000  Uiso   1.00
Zn887  Zn    0.50000   0.20660   0.78265   0.00000  Uiso   1.00
Zn888  Zn    0.95659   0.25000   0.71735   0.00000  Uiso   1.00
C889   C     0.00091   0.78347   0.41782   0.00000  Uiso   1.00
C890   C     0.25034   0.96647   0.08204   0.00000  Uiso   1.00
C891   C     0.21653   0.50045   0.54124   0.00000  Uiso   1.00
C892   C     0.49953   0.78347   0.45876   0.00000  Uiso   1.00
C893   C     0.00112   0.71651   0.54104   0.00000  Uiso   1.00
C894   C     0.21651   0.50111   0.45896   0.00000  Uiso   1.00
C895   C     0.28347   0.99954   0.54124   0.00000  Uiso   1.00
C896   C     0.25045   0.96653   0.95876   0.00000  Uiso   1.00
C897   C     0.24889   0.53349   0.04104   0.00000  Uiso   1.00
C898   C     0.03349   0.74888   0.95896   0.00000  Uiso   1.00
C899   C     0.46653   0.75047   0.04124   0.00000  Uiso   1.00
C900   C     0.24955   0.53347   0.95876   0.00000  Uiso   1.00
C901   C     0.46646   0.75037   0.91796   0.00000  Uiso   1.00
C902   C     0.25110   0.96651   0.04104   0.00000  Uiso   1.00
C903   C     0.46651   0.75112   0.95896   0.00000  Uiso   1.00
C904   C     0.03347   0.74953   0.04124   0.00000  Uiso   1.00
C905   C     0.09818   0.84818   0.25000   0.00000  Uiso   1.00
C906   C     0.40192   0.65192   0.75000   0.00000  Uiso   1.00
C907   C     0.15193   0.59807   0.25000   0.00000  Uiso   1.00
C908   C     0.34808   0.90192   0.75000   0.00000  Uiso   1.00
C909   C     0.40182   0.65182   0.25000   0.00000  Uiso   1.00
C910   C     0.09808   0.84808   0.75000   0.00000  Uiso   1.00
C911   C     0.34807   0.90193   0.25000   0.00000  Uiso   1.00
C912   C     0.03347   0.75091   0.08219   0.00000  Uiso   1.00
C913   C     0.15192   0.59808   0.75000   0.00000  Uiso   1.00
C914   C     0.09807   0.65193   0.75000   0.00000  Uiso   1.00
C915   C     0.40192   0.84808   0.25000   0.00000  Uiso   1.00
C916   C     0.15182   0.90182   0.75000   0.00000  Uiso   1.00
C917   C     0.34808   0.59808   0.25000   0.00000  Uiso   1.00
C918   C     0.40193   0.84807   0.75000   0.00000  Uiso   1.00
C919   C     0.09808   0.65192   0.25000   0.00000  Uiso   1.00
C920   C     0.34818   0.59818   0.75000   0.00000  Uiso   1.00
C921   C     0.15192   0.90192   0.25000   0.00000  Uiso   1.00
C922   C     0.00000   0.75000   0.47929   0.00000  Uiso   1.00
C923   C     0.24908   0.96653   0.91782   0.00000  Uiso   1.00
C924   C    -0.00000   0.75000   0.52054   0.00000  Uiso   1.00
C925   C     0.25000   0.50000   0.47946   0.00000  Uiso   1.00
C926   C     0.25000   0.50000   0.52071   0.00000  Uiso   1.00
C927   C     0.25000   0.50000   0.97929   0.00000  Uiso   1.00
C928   C     0.25000   0.50000   0.02054   0.00000  Uiso   1.00
C929   C    -0.00000   0.75000   0.97946   0.00000  Uiso   1.00
C930   C     0.00000   0.75000   0.02071   0.00000  Uiso   1.00
C931   C     0.15456   0.90250   0.15810   0.00000  Uiso   1.00
C932   C     0.39804   0.55017   0.80972   0.00000  Uiso   1.00
C933   C     0.07656   0.64072   0.16028   0.00000  Uiso   1.00
C934   C     0.24965   0.53354   0.08204   0.00000  Uiso   1.00
C935   C     0.42228   0.85984   0.84062   0.00000  Uiso   1.00
C936   C     0.34544   0.59751   0.15810   0.00000  Uiso   1.00
C937   C     0.10195   0.94985   0.80968   0.00000  Uiso   1.00
C938   C     0.42345   0.85929   0.16028   0.00000  Uiso   1.00
C939   C     0.07770   0.64015   0.84061   0.00000  Uiso   1.00
C940   C     0.14071   0.57655   0.83971   0.00000  Uiso   1.00
C941   C     0.35983   0.92229   0.15939   0.00000  Uiso   1.00
C942   C     0.09758   0.84539   0.84191   0.00000  Uiso   1.00
C943   C     0.44989   0.60191   0.19039   0.00000  Uiso   1.00
C944   C     0.35929   0.92345   0.83972   0.00000  Uiso   1.00
C945   C     0.03353   0.74964   0.91796   0.00000  Uiso   1.00
C946   C     0.14018   0.57772   0.15938   0.00000  Uiso   1.00
C947   C     0.40243   0.65464   0.84190   0.00000  Uiso   1.00
C948   C     0.05010   0.89809   0.19042   0.00000  Uiso   1.00
C949   C     0.40461   0.65242   0.65809   0.00000  Uiso   1.00
C950   C     0.14809   0.80011   0.30961   0.00000  Uiso   1.00
C951   C     0.32655   0.89071   0.66028   0.00000  Uiso   1.00
C952   C     0.17228   0.60982   0.34062   0.00000  Uiso   1.00
C953   C     0.09536   0.84757   0.65810   0.00000  Uiso   1.00
C954   C     0.35191   0.69990   0.30958   0.00000  Uiso   1.00
C955   C     0.17345   0.60929   0.66029   0.00000  Uiso   1.00
C956   C     0.46653   0.74909   0.08218   0.00000  Uiso   1.00
C957   C     0.32771   0.89016   0.34061   0.00000  Uiso   1.00
C958   C     0.39071   0.82655   0.33972   0.00000  Uiso   1.00
C959   C     0.10985   0.67230   0.65939   0.00000  Uiso   1.00
C960   C     0.34750   0.59544   0.34190   0.00000  Uiso   1.00
C961   C     0.19983   0.85196   0.69028   0.00000  Uiso   1.00
C962   C     0.10928   0.67344   0.33972   0.00000  Uiso   1.00
C963   C     0.39016   0.82771   0.65938   0.00000  Uiso   1.00
C964   C     0.15249   0.90456   0.34190   0.00000  Uiso   1.00
C965   C     0.30015   0.64805   0.69032   0.00000  Uiso   1.00
C966   C     0.00417   0.81821   0.39571   0.00000  Uiso   1.00
C967   C     0.00000   0.75000   0.39782   0.00000  Uiso   1.00
C968   C     0.49924   0.68155   0.60420   0.00000  Uiso   1.00
C969   C     0.18155   0.99921   0.39580   0.00000  Uiso   1.00
C970   C     0.31821   0.50419   0.60430   0.00000  Uiso   1.00
C971   C     0.49582   0.68179   0.39570   0.00000  Uiso   1.00
C972   C     0.00075   0.81845   0.60420   0.00000  Uiso   1.00
C973   C     0.31844   0.50080   0.39580   0.00000  Uiso   1.00
C974   C     0.18179   0.99581   0.60429   0.00000  Uiso   1.00
C975   C     0.25419   0.56821   0.89571   0.00000  Uiso   1.00
C976   C     0.24920   0.93156   0.10420   0.00000  Uiso   1.00
C977   C     0.43155   0.74925   0.89580   0.00000  Uiso   1.00
C978   C    -0.00000   0.75000   0.60206   0.00000  Uiso   1.00
C979   C     0.06821   0.75418   0.10430   0.00000  Uiso   1.00
C980   C     0.24581   0.93179   0.89570   0.00000  Uiso   1.00
C981   C     0.25079   0.56845   0.10420   0.00000  Uiso   1.00
C982   C     0.06845   0.75076   0.89580   0.00000  Uiso   1.00
C983   C     0.43179   0.74583   0.10429   0.00000  Uiso   1.00
C984   C     0.25000   0.50000   0.39794   0.00000  Uiso   1.00
C985   C     0.00036   0.71647   0.58204   0.00000  Uiso   1.00
C986   C     0.25000   0.50000   0.60218   0.00000  Uiso   1.00
C987   C     0.25000   0.50000   0.89783   0.00000  Uiso   1.00
C988   C     0.25000   0.50000   0.10206   0.00000  Uiso   1.00
C989   C    -0.00000   0.75000   0.89794   0.00000  Uiso   1.00
C990   C     0.00000   0.75000   0.10218   0.00000  Uiso   1.00
C991   C     0.00331   0.68381   0.47969   0.00000  Uiso   1.00
C992   C     0.49608   0.81619   0.51995   0.00000  Uiso   1.00
C993   C     0.31619   0.99611   0.48006   0.00000  Uiso   1.00
C994   C     0.18380   0.50329   0.52031   0.00000  Uiso   1.00
C995   C     0.49669   0.81619   0.47969   0.00000  Uiso   1.00
C996   C     0.21646   0.50035   0.41796   0.00000  Uiso   1.00
C997   C     0.00391   0.68381   0.51994   0.00000  Uiso   1.00
C998   C     0.18381   0.50389   0.48005   0.00000  Uiso   1.00
C999   C     0.31620   0.99671   0.52031   0.00000  Uiso   1.00
C1000  C     0.25329   0.93380   0.97969   0.00000  Uiso   1.00
C1001  C     0.24611   0.56619   0.01995   0.00000  Uiso   1.00
C1002  C     0.06619   0.74608   0.98006   0.00000  Uiso   1.00
C1003  C     0.43381   0.75331   0.02031   0.00000  Uiso   1.00
C1004  C     0.24671   0.56620   0.97969   0.00000  Uiso   1.00
C1005  C     0.25388   0.93381   0.01994   0.00000  Uiso   1.00
C1006  C     0.43381   0.75392   0.98006   0.00000  Uiso   1.00
C1007  C     0.28347   0.50092   0.58218   0.00000  Uiso   1.00
C1008  C     0.06619   0.74668   0.02031   0.00000  Uiso   1.00
C1009  C     0.25000   0.50000   0.35566   0.00000  Uiso   1.00
C1010  C     0.25000   0.50000   0.64438   0.00000  Uiso   1.00
C1011  C     0.00000   0.75000   0.35562   0.00000  Uiso   1.00
C1012  C    -0.00000   0.75000   0.64434   0.00000  Uiso   1.00
C1013  C    -0.00000   0.75000   0.85566   0.00000  Uiso   1.00
C1014  C     0.00000   0.75000   0.14438   0.00000  Uiso   1.00
C1015  C     0.25000   0.50000   0.85562   0.00000  Uiso   1.00
C1016  C     0.25000   0.50000   0.14434   0.00000  Uiso   1.00
C1017  C     0.18000   0.57000   0.25000   0.00000  Uiso   1.00
C1018  C     0.49909   0.71653   0.41782   0.00000  Uiso   1.00
C1019  C     0.32000   0.93000   0.75000   0.00000  Uiso   1.00
C1020  C     0.42992   0.67992   0.25000   0.00000  Uiso   1.00
C1021  C     0.07004   0.82004   0.75000   0.00000  Uiso   1.00
C1022  C     0.32000   0.93000   0.25000   0.00000  Uiso   1.00
C1023  C     0.18000   0.57000   0.75000   0.00000  Uiso   1.00
C1024  C     0.07008   0.82008   0.25000   0.00000  Uiso   1.00
C1025  C     0.42996   0.67996   0.75000   0.00000  Uiso   1.00
C1026  C     0.17992   0.92992   0.75000   0.00000  Uiso   1.00
C1027  C     0.32004   0.57004   0.25000   0.00000  Uiso   1.00
C1028  C     0.43000   0.82000   0.75000   0.00000  Uiso   1.00
C1029  C     0.49963   0.78354   0.58204   0.00000  Uiso   1.00
C1030  C     0.07000   0.68000   0.25000   0.00000  Uiso   1.00
C1031  C     0.32008   0.57008   0.75000   0.00000  Uiso   1.00
C1032  C     0.17996   0.92996   0.25000   0.00000  Uiso   1.00
C1033  C     0.07000   0.68000   0.75000   0.00000  Uiso   1.00
C1034  C     0.43000   0.82000   0.25000   0.00000  Uiso   1.00
C1035  C     0.12860   0.89826   0.21770   0.00000  Uiso   1.00
C1036  C     0.37305   0.60036   0.78123   0.00000  Uiso   1.00
C1037  C     0.11333   0.64039   0.21444   0.00000  Uiso   1.00
C1038  C     0.38667   0.85958   0.78555   0.00000  Uiso   1.00
C1039  C     0.37139   0.60174   0.21770   0.00000  Uiso   1.00
C1040  C     0.28353   0.99966   0.41796   0.00000  Uiso   1.00
C1041  C     0.12694   0.89965   0.78123   0.00000  Uiso   1.00
C1042  C     0.38667   0.85962   0.21444   0.00000  Uiso   1.00
C1043  C     0.11333   0.64042   0.78555   0.00000  Uiso   1.00
C1044  C     0.14038   0.61333   0.78556   0.00000  Uiso   1.00
C1045  C     0.35958   0.88667   0.21445   0.00000  Uiso   1.00
C1046  C     0.10177   0.87137   0.78232   0.00000  Uiso   1.00
C1047  C     0.39966   0.62692   0.21879   0.00000  Uiso   1.00
C1048  C     0.35962   0.88667   0.78556   0.00000  Uiso   1.00
C1049  C     0.14043   0.61334   0.21445   0.00000  Uiso   1.00
C1050  C     0.39823   0.62864   0.78232   0.00000  Uiso   1.00
C1051  C     0.21653   0.99908   0.58218   0.00000  Uiso   1.00
C1052  C     0.10033   0.87307   0.21879   0.00000  Uiso   1.00
C1053  C     0.37863   0.64823   0.71768   0.00000  Uiso   1.00
C1054  C     0.12308   0.85034   0.28121   0.00000  Uiso   1.00
C1055  C     0.36333   0.89038   0.71444   0.00000  Uiso   1.00
C1056  C     0.13666   0.60957   0.28555   0.00000  Uiso   1.00
C1057  C     0.12136   0.85177   0.71768   0.00000  Uiso   1.00
C1058  C     0.37693   0.64967   0.28121   0.00000  Uiso   1.00
C1059  C     0.13667   0.60962   0.71444   0.00000  Uiso   1.00
C1060  C     0.36333   0.89042   0.28555   0.00000  Uiso   1.00
C1061  C     0.39038   0.86333   0.28556   0.00000  Uiso   1.00
C1062  C     0.25092   0.53347   0.91782   0.00000  Uiso   1.00
C1063  C     0.10958   0.63667   0.71445   0.00000  Uiso   1.00
C1064  C     0.35174   0.62140   0.28230   0.00000  Uiso   1.00
C1065  C     0.14964   0.87695   0.71877   0.00000  Uiso   1.00
C1066  C     0.10961   0.63667   0.28556   0.00000  Uiso   1.00
C1067  C     0.39042   0.86333   0.71445   0.00000  Uiso   1.00
C1068  C     0.14826   0.87861   0.28230   0.00000  Uiso   1.00
C1069  C     0.35035   0.62306   0.71877   0.00000  Uiso   1.00
C1070  C     0.00047   0.71653   0.45876   0.00000  Uiso   1.00
C1071  C     0.49888   0.78349   0.54104   0.00000  Uiso   1.00
C1072  C     0.28349   0.99890   0.45896   0.00000  Uiso   1.00
H1073  H     0.00583   0.65774   0.46523   0.00000  Uiso   1.00
H1074  H     0.24296   0.59228   0.03416   0.00000  Uiso   1.00
H1075  H     0.18804   0.82444   0.68618   0.00000  Uiso   1.00
H1076  H     0.08910   0.69512   0.34671   0.00000  Uiso   1.00
H1077  H     0.13211   0.68637   0.32344   0.00000  Uiso   1.00
H1078  H     0.11976   0.66297   0.36783   0.00000  Uiso   1.00
H1079  H     0.36383   0.81886   0.67243   0.00000  Uiso   1.00
H1080  H     0.40811   0.80341   0.65655   0.00000  Uiso   1.00
H1081  H     0.38483   0.83765   0.62946   0.00000  Uiso   1.00
H1082  H     0.14728   0.93228   0.32989   0.00000  Uiso   1.00
H1083  H     0.17040   0.90755   0.36766   0.00000  Uiso   1.00
H1084  H     0.12655   0.89222   0.35197   0.00000  Uiso   1.00
H1085  H     0.09228   0.74293   0.96585   0.00000  Uiso   1.00
H1086  H     0.28550   0.64674   0.71866   0.00000  Uiso   1.00
H1087  H     0.27971   0.64390   0.66700   0.00000  Uiso   1.00
H1088  H     0.31194   0.67557   0.68617   0.00000  Uiso   1.00
H1089  H     0.03214   0.86458   0.38712   0.00000  Uiso   1.00
H1090  H     0.47513   0.63293   0.61195   0.00000  Uiso   1.00
H1091  H     0.13294   0.97507   0.38804   0.00000  Uiso   1.00
H1092  H     0.36457   0.53217   0.61290   0.00000  Uiso   1.00
H1093  H     0.46786   0.63541   0.38711   0.00000  Uiso   1.00
H1094  H     0.02486   0.86708   0.61196   0.00000  Uiso   1.00
H1095  H     0.36705   0.52494   0.38805   0.00000  Uiso   1.00
H1096  H     0.40774   0.75583   0.03476   0.00000  Uiso   1.00
H1097  H     0.13543   0.96783   0.61289   0.00000  Uiso   1.00
H1098  H     0.28217   0.61457   0.88711   0.00000  Uiso   1.00
H1099  H     0.22506   0.88295   0.11195   0.00000  Uiso   1.00
H1100  H     0.38292   0.72514   0.88804   0.00000  Uiso   1.00
H1101  H     0.11459   0.78214   0.11289   0.00000  Uiso   1.00
H1102  H     0.21783   0.88543   0.88710   0.00000  Uiso   1.00
H1103  H     0.27493   0.61706   0.11196   0.00000  Uiso   1.00
H1104  H     0.11707   0.77487   0.88805   0.00000  Uiso   1.00
H1105  H     0.38542   0.71786   0.11288   0.00000  Uiso   1.00
H1106  H     0.24421   0.59226   0.96524   0.00000  Uiso   1.00
H1107  H     0.25703   0.90772   0.03416   0.00000  Uiso   1.00
H1108  H     0.40772   0.75708   0.96584   0.00000  Uiso   1.00
H1109  H     0.09226   0.74417   0.03477   0.00000  Uiso   1.00
H1110  H     0.18228   0.89730   0.17012   0.00000  Uiso   1.00
H1111  H     0.15753   0.92041   0.13234   0.00000  Uiso   1.00
H1112  H     0.14222   0.87656   0.14803   0.00000  Uiso   1.00
H1113  H     0.49292   0.84228   0.53416   0.00000  Uiso   1.00
H1114  H     0.39669   0.53547   0.78142   0.00000  Uiso   1.00
H1115  H     0.39391   0.52978   0.83309   0.00000  Uiso   1.00
H1116  H     0.42556   0.56196   0.81382   0.00000  Uiso   1.00
H1117  H     0.05488   0.66090   0.15329   0.00000  Uiso   1.00
H1118  H     0.06363   0.61789   0.17656   0.00000  Uiso   1.00
H1119  H     0.08703   0.63023   0.13217   0.00000  Uiso   1.00
H1120  H     0.43114   0.88617   0.82757   0.00000  Uiso   1.00
H1121  H     0.44659   0.84189   0.84345   0.00000  Uiso   1.00
H1122  H     0.41235   0.86517   0.87054   0.00000  Uiso   1.00
H1123  H     0.31772   0.60272   0.17011   0.00000  Uiso   1.00
H1124  H     0.34228   0.99297   0.46584   0.00000  Uiso   1.00
H1125  H     0.34245   0.57960   0.13234   0.00000  Uiso   1.00
H1126  H     0.35778   0.62345   0.14804   0.00000  Uiso   1.00
H1127  H     0.10326   0.96449   0.78134   0.00000  Uiso   1.00
H1128  H     0.10610   0.97029   0.83300   0.00000  Uiso   1.00
H1129  H     0.07443   0.93806   0.81383   0.00000  Uiso   1.00
H1130  H     0.44513   0.83911   0.15331   0.00000  Uiso   1.00
H1131  H     0.43636   0.88213   0.17656   0.00000  Uiso   1.00
H1132  H     0.41298   0.86976   0.13217   0.00000  Uiso   1.00
H1133  H     0.06883   0.61384   0.82753   0.00000  Uiso   1.00
H1134  H     0.05341   0.65811   0.84346   0.00000  Uiso   1.00
H1135  H     0.15774   0.50579   0.53476   0.00000  Uiso   1.00
H1136  H     0.08764   0.63479   0.87053   0.00000  Uiso   1.00
H1137  H     0.16090   0.55487   0.84670   0.00000  Uiso   1.00
H1138  H     0.11788   0.56362   0.82343   0.00000  Uiso   1.00
H1139  H     0.13023   0.58701   0.86783   0.00000  Uiso   1.00
H1140  H     0.38614   0.93118   0.17247   0.00000  Uiso   1.00
H1141  H     0.34187   0.94658   0.15653   0.00000  Uiso   1.00
H1142  H     0.36521   0.91235   0.12948   0.00000  Uiso   1.00
H1143  H     0.10279   0.81768   0.82988   0.00000  Uiso   1.00
H1144  H     0.07968   0.84240   0.86768   0.00000  Uiso   1.00
H1145  H     0.12351   0.85774   0.85196   0.00000  Uiso   1.00
H1146  H     0.49417   0.84226   0.46524   0.00000  Uiso   1.00
H1147  H     0.46455   0.60330   0.21872   0.00000  Uiso   1.00
H1148  H     0.47030   0.60601   0.16705   0.00000  Uiso   1.00
H1149  H     0.43810   0.57439   0.18634   0.00000  Uiso   1.00
H1150  H     0.33909   0.94512   0.84672   0.00000  Uiso   1.00
H1151  H     0.38210   0.93639   0.82343   0.00000  Uiso   1.00
H1152  H     0.36978   0.91298   0.86782   0.00000  Uiso   1.00
H1153  H     0.11387   0.56883   0.17245   0.00000  Uiso   1.00
H1154  H     0.15814   0.55343   0.15653   0.00000  Uiso   1.00
H1155  H     0.13481   0.58766   0.12947   0.00000  Uiso   1.00
H1156  H     0.39728   0.68237   0.82986   0.00000  Uiso   1.00
H1157  H     0.00707   0.65772   0.53415   0.00000  Uiso   1.00
H1158  H     0.42030   0.65760   0.86769   0.00000  Uiso   1.00
H1159  H     0.37646   0.64234   0.85192   0.00000  Uiso   1.00
H1160  H     0.03548   0.89674   0.21877   0.00000  Uiso   1.00
H1161  H     0.02964   0.89397   0.16712   0.00000  Uiso   1.00
H1162  H     0.06188   0.92561   0.18631   0.00000  Uiso   1.00
H1163  H     0.43232   0.64721   0.67013   0.00000  Uiso   1.00
H1164  H     0.40760   0.67032   0.63232   0.00000  Uiso   1.00
H1165  H     0.39226   0.62649   0.64804   0.00000  Uiso   1.00
H1166  H     0.14670   0.78545   0.28128   0.00000  Uiso   1.00
H1167  H     0.14399   0.77969   0.33295   0.00000  Uiso   1.00
H1168  H     0.15772   0.50704   0.46584   0.00000  Uiso   1.00
H1169  H     0.17561   0.81190   0.31367   0.00000  Uiso   1.00
H1170  H     0.30488   0.91091   0.65329   0.00000  Uiso   1.00
H1171  H     0.31361   0.86790   0.67657   0.00000  Uiso   1.00
H1172  H     0.33701   0.88022   0.63218   0.00000  Uiso   1.00
H1173  H     0.18117   0.63613   0.32755   0.00000  Uiso   1.00
H1174  H     0.19657   0.59186   0.34347   0.00000  Uiso   1.00
H1175  H     0.16234   0.61519   0.37053   0.00000  Uiso   1.00
H1176  H     0.06763   0.85272   0.67014   0.00000  Uiso   1.00
H1177  H     0.09240   0.82970   0.63231   0.00000  Uiso   1.00
H1178  H     0.10766   0.87354   0.64808   0.00000  Uiso   1.00
H1179  H     0.34226   0.99420   0.53477   0.00000  Uiso   1.00
H1180  H     0.35326   0.71452   0.28123   0.00000  Uiso   1.00
H1181  H     0.35603   0.72036   0.33288   0.00000  Uiso   1.00
H1182  H     0.32438   0.68812   0.31369   0.00000  Uiso   1.00
H1183  H     0.19513   0.58910   0.65330   0.00000  Uiso   1.00
H1184  H     0.18638   0.63212   0.67657   0.00000  Uiso   1.00
H1185  H     0.16299   0.61977   0.63218   0.00000  Uiso   1.00
H1186  H     0.31882   0.86386   0.32753   0.00000  Uiso   1.00
H1187  H     0.30342   0.90813   0.34347   0.00000  Uiso   1.00
H1188  H     0.33765   0.88479   0.37052   0.00000  Uiso   1.00
H1189  H     0.41089   0.80487   0.34669   0.00000  Uiso   1.00
H1190  H     0.25580   0.90774   0.96523   0.00000  Uiso   1.00
H1191  H     0.36787   0.81364   0.32344   0.00000  Uiso   1.00
H1192  H     0.38024   0.83702   0.36783   0.00000  Uiso   1.00
H1193  H     0.13616   0.68117   0.67247   0.00000  Uiso   1.00
H1194  H     0.09189   0.69659   0.65654   0.00000  Uiso   1.00
H1195  H     0.11521   0.66236   0.62948   0.00000  Uiso   1.00
H1196  H     0.35270   0.56772   0.32989   0.00000  Uiso   1.00
H1197  H     0.32959   0.59247   0.36766   0.00000  Uiso   1.00
H1198  H     0.37344   0.60778   0.35197   0.00000  Uiso   1.00
H1199  H     0.21453   0.85331   0.71859   0.00000  Uiso   1.00
H1200  H     0.22022   0.85609   0.66692   0.00000  Uiso   1.00
O1201  O     0.25000   0.50000   0.25000   0.00000  Uiso   1.00
O1202  O     0.25000   0.96963   0.66245   0.00000  Uiso   1.00
O1203  O     0.15798   0.96736   0.59587   0.00000  Uiso   1.00
O1204  O     0.23231   0.57573   0.87006   0.00000  Uiso   1.00
O1205  O     0.28264   0.59202   0.90414   0.00000  Uiso   1.00
O1206  O     0.27128   0.92554   0.13008   0.00000  Uiso   1.00
O1207  O     0.22270   0.90570   0.09541   0.00000  Uiso   1.00
O1208  O     0.42556   0.77133   0.86991   0.00000  Uiso   1.00
O1209  O     0.40568   0.72277   0.90459   0.00000  Uiso   1.00
O1210  O     0.07573   0.73231   0.12996   0.00000  Uiso   1.00
O1211  O     0.09204   0.78262   0.09586   0.00000  Uiso   1.00
O1212  O     0.26768   0.92427   0.87005   0.00000  Uiso   1.00
O1213  O     0.46963   0.75000   0.33755   0.00000  Uiso   1.00
O1214  O     0.21736   0.90797   0.90413   0.00000  Uiso   1.00
O1215  O     0.22871   0.57445   0.13009   0.00000  Uiso   1.00
O1216  O     0.27729   0.59430   0.09542   0.00000  Uiso   1.00
O1217  O     0.07444   0.72867   0.86992   0.00000  Uiso   1.00
O1218  O     0.09431   0.77725   0.90460   0.00000  Uiso   1.00
O1219  O     0.42427   0.76770   0.12994   0.00000  Uiso   1.00
O1220  O     0.40796   0.71738   0.09586   0.00000  Uiso   1.00
O1221  O     0.03036   0.75000   0.66245   0.00000  Uiso   1.00
O1222  O    -0.00000   0.71964   0.83755   0.00000  Uiso   1.00
O1223  O    -0.00000   0.78037   0.16245   0.00000  Uiso   1.00
O1224  O     0.28036   0.50000   0.83755   0.00000  Uiso   1.00
O1225  O     0.21963   0.50000   0.16245   0.00000  Uiso   1.00
O1226  O    -0.00000   0.78037   0.83755   0.00000  Uiso   1.00
O1227  O    -0.00000   0.71964   0.16245   0.00000  Uiso   1.00
O1228  O     0.21963   0.50000   0.83755   0.00000  Uiso   1.00
O1229  O     0.25000   0.50000   0.75000   0.00000  Uiso   1.00
O1230  O     0.28036   0.50000   0.16245   0.00000  Uiso   1.00
O1231  O     0.20724   0.57308   0.27302   0.00000  Uiso   1.00
O1232  O     0.29275   0.92692   0.72698   0.00000  Uiso   1.00
O1233  O     0.42692   0.70725   0.27302   0.00000  Uiso   1.00
O1234  O     0.07307   0.79275   0.72698   0.00000  Uiso   1.00
O1235  O     0.29275   0.92692   0.27302   0.00000  Uiso   1.00
O1236  O     0.20724   0.57308   0.72698   0.00000  Uiso   1.00
O1237  O     0.07307   0.79275   0.27302   0.00000  Uiso   1.00
O1238  O     0.42692   0.70725   0.72698   0.00000  Uiso   1.00
O1239  O     0.20724   0.92692   0.72698   0.00000  Uiso   1.00
O1240  O    -0.00000   0.75000   0.25000   0.00000  Uiso   1.00
O1241  O     0.29275   0.57308   0.27302   0.00000  Uiso   1.00
O1242  O     0.42692   0.79275   0.72698   0.00000  Uiso   1.00
O1243  O     0.07307   0.70724   0.27302   0.00000  Uiso   1.00
O1244  O     0.29275   0.57308   0.72698   0.00000  Uiso   1.00
O1245  O     0.20724   0.92692   0.27302   0.00000  Uiso   1.00
O1246  O     0.07307   0.70724   0.72698   0.00000  Uiso   1.00
O1247  O     0.42692   0.79275   0.27302   0.00000  Uiso   1.00
O1248  O     0.45724   0.82307   0.77302   0.00000  Uiso   1.00
O1249  O     0.04275   0.67692   0.22698   0.00000  Uiso   1.00
O1250  O     0.17692   0.95724   0.77302   0.00000  Uiso   1.00
O1251  O    -0.00000   0.75000   0.75000   0.00000  Uiso   1.00
O1252  O     0.32307   0.54276   0.22698   0.00000  Uiso   1.00
O1253  O     0.04275   0.67692   0.77302   0.00000  Uiso   1.00
O1254  O     0.45724   0.82307   0.22698   0.00000  Uiso   1.00
O1255  O     0.32307   0.54276   0.77302   0.00000  Uiso   1.00
O1256  O     0.17692   0.95724   0.22698   0.00000  Uiso   1.00
O1257  O     0.45724   0.67693   0.22698   0.00000  Uiso   1.00
O1258  O     0.04275   0.82307   0.77302   0.00000  Uiso   1.00
O1259  O     0.17692   0.54276   0.22698   0.00000  Uiso   1.00
O1260  O     0.32307   0.95724   0.77302   0.00000  Uiso   1.00
O1261  O     0.04275   0.82307   0.22698   0.00000  Uiso   1.00
O1262  O     0.25000   0.96963   0.33755   0.00000  Uiso   1.00
O1263  O     0.45724   0.67693   0.77302   0.00000  Uiso   1.00
O1264  O     0.32307   0.95724   0.22698   0.00000  Uiso   1.00
O1265  O     0.17692   0.54276   0.77302   0.00000  Uiso   1.00
O1266  O     0.13210   0.92044   0.18541   0.00000  Uiso   1.00
O1267  O     0.37052   0.57711   0.81282   0.00000  Uiso   1.00
O1268  O     0.10497   0.65864   0.18026   0.00000  Uiso   1.00
O1269  O     0.39492   0.84123   0.81971   0.00000  Uiso   1.00
O1270  O     0.36789   0.57957   0.18541   0.00000  Uiso   1.00
O1271  O     0.12947   0.92291   0.81280   0.00000  Uiso   1.00
O1272  O     0.39504   0.84137   0.18026   0.00000  Uiso   1.00
O1273  O     0.25000   0.53037   0.66245   0.00000  Uiso   1.00
O1274  O     0.10507   0.65876   0.81971   0.00000  Uiso   1.00
O1275  O     0.15863   0.60496   0.81974   0.00000  Uiso   1.00
O1276  O     0.34123   0.89492   0.18029   0.00000  Uiso   1.00
O1277  O     0.07961   0.86785   0.81462   0.00000  Uiso   1.00
O1278  O     0.42294   0.62942   0.18723   0.00000  Uiso   1.00
O1279  O     0.34137   0.89504   0.81974   0.00000  Uiso   1.00
O1280  O     0.15878   0.60508   0.18029   0.00000  Uiso   1.00
O1281  O     0.42039   0.63216   0.81463   0.00000  Uiso   1.00
O1282  O     0.07704   0.87058   0.18723   0.00000  Uiso   1.00
O1283  O     0.38215   0.67039   0.68538   0.00000  Uiso   1.00
O1284  O     0.03036   0.75000   0.33755   0.00000  Uiso   1.00
O1285  O     0.12058   0.82705   0.31277   0.00000  Uiso   1.00
O1286  O     0.35496   0.90863   0.68026   0.00000  Uiso   1.00
O1287  O     0.14491   0.59122   0.31971   0.00000  Uiso   1.00
O1288  O     0.11784   0.82961   0.68538   0.00000  Uiso   1.00
O1289  O     0.37942   0.67296   0.31277   0.00000  Uiso   1.00
O1290  O     0.14504   0.59137   0.68026   0.00000  Uiso   1.00
O1291  O     0.35508   0.90877   0.31971   0.00000  Uiso   1.00
O1292  O     0.40863   0.85496   0.31974   0.00000  Uiso   1.00
O1293  O     0.09124   0.64493   0.68029   0.00000  Uiso   1.00
O1294  O     0.32956   0.61790   0.31459   0.00000  Uiso   1.00
O1295  O     0.46963   0.75000   0.66245   0.00000  Uiso   1.00
O1296  O     0.17289   0.87948   0.68718   0.00000  Uiso   1.00
O1297  O     0.09136   0.64503   0.31974   0.00000  Uiso   1.00
O1298  O     0.40877   0.85508   0.68029   0.00000  Uiso   1.00
O1299  O     0.17043   0.88211   0.31460   0.00000  Uiso   1.00
O1300  O     0.32709   0.62053   0.68720   0.00000  Uiso   1.00
O1301  O     0.48230   0.82573   0.37006   0.00000  Uiso   1.00
O1302  O     0.03262   0.84204   0.40415   0.00000  Uiso   1.00
O1303  O     0.02133   0.67555   0.63008   0.00000  Uiso   1.00
O1304  O     0.47275   0.65569   0.59541   0.00000  Uiso   1.00
O1305  O     0.17555   0.52129   0.36991   0.00000  Uiso   1.00
O1306  O     0.25000   0.53037   0.33755   0.00000  Uiso   1.00
O1307  O     0.15570   0.97271   0.40459   0.00000  Uiso   1.00
O1308  O     0.32573   0.98232   0.62996   0.00000  Uiso   1.00
O1309  O     0.34203   0.53264   0.59587   0.00000  Uiso   1.00
O1310  O     0.01769   0.67427   0.37004   0.00000  Uiso   1.00
O1311  O     0.46738   0.65796   0.40414   0.00000  Uiso   1.00
O1312  O     0.47867   0.82444   0.63009   0.00000  Uiso   1.00
O1313  O     0.02723   0.84432   0.59541   0.00000  Uiso   1.00
O1314  O     0.32445   0.97872   0.36992   0.00000  Uiso   1.00
O1315  O     0.34430   0.52730   0.40459   0.00000  Uiso   1.00
O1316  O     0.17427   0.51769   0.62994   0.00000  Uiso   1.00
Zn1317 Zn    0.20659   0.50000   0.21735   0.00000  Uiso   1.00
Zn1318 Zn    0.04340   0.75000   0.28265   0.00000  Uiso   1.00
Zn1319 Zn    0.25000   0.95659   0.71735   0.00000  Uiso   1.00
Zn1320 Zn    0.25000   0.54341   0.28265   0.00000  Uiso   1.00
Zn1321 Zn    0.04340   0.75000   0.71735   0.00000  Uiso   1.00
Zn1322 Zn    0.45659   0.75000   0.28265   0.00000  Uiso   1.00
Zn1323 Zn    0.25000   0.54341   0.71735   0.00000  Uiso   1.00
Zn1324 Zn    0.25000   0.95659   0.28265   0.00000  Uiso   1.00
Zn1325 Zn    0.29340   0.50000   0.78265   0.00000  Uiso   1.00
Zn1326 Zn    0.00000   0.70659   0.21735   0.00000  Uiso   1.00
Zn1327 Zn   -0.00000   0.79341   0.78265   0.00000  Uiso   1.00
Zn1328 Zn    0.29340   0.50000   0.21735   0.00000  Uiso   1.00
Zn1329 Zn    0.20659   0.50000   0.78265   0.00000  Uiso   1.00
Zn1330 Zn   -0.00000   0.79341   0.21735   0.00000  Uiso   1.00
Zn1331 Zn   -0.00000   0.70660   0.78265   0.00000  Uiso   1.00
Zn1332 Zn    0.45659   0.75000   0.71735   0.00000  Uiso   1.00
C1333  C     0.50091   0.78347   0.41782   0.00000  Uiso   1.00
C1334  C     0.75034   0.96647   0.08204   0.00000  Uiso   1.00
C1335  C     0.71653   0.50045   0.54124   0.00000  Uiso   1.00
C1336  C     0.99953   0.78347   0.45876   0.00000  Uiso   1.00
C1337  C     0.50112   0.71651   0.54104   0.00000  Uiso   1.00
C1338  C     0.71651   0.50111   0.45896   0.00000  Uiso   1.00
C1339  C     0.78347   0.99954   0.54124   0.00000  Uiso   1.00
C1340  C     0.75045   0.96653   0.95876   0.00000  Uiso   1.00
C1341  C     0.74889   0.53349   0.04104   0.00000  Uiso   1.00
C1342  C     0.53349   0.74888   0.95896   0.00000  Uiso   1.00
C1343  C     0.96653   0.75047   0.04124   0.00000  Uiso   1.00
C1344  C     0.74955   0.53347   0.95876   0.00000  Uiso   1.00
C1345  C     0.96646   0.75037   0.91796   0.00000  Uiso   1.00
C1346  C     0.75110   0.96651   0.04104   0.00000  Uiso   1.00
C1347  C     0.96651   0.75112   0.95896   0.00000  Uiso   1.00
C1348  C     0.53347   0.74953   0.04124   0.00000  Uiso   1.00
C1349  C     0.59818   0.84818   0.25000   0.00000  Uiso   1.00
C1350  C     0.90192   0.65192   0.75000   0.00000  Uiso   1.00
C1351  C     0.65193   0.59807   0.25000   0.00000  Uiso   1.00
C1352  C     0.84808   0.90192   0.75000   0.00000  Uiso   1.00
C1353  C     0.90182   0.65182   0.25000   0.00000  Uiso   1.00
C1354  C     0.59808   0.84808   0.75000   0.00000  Uiso   1.00
C1355  C     0.84807   0.90193   0.25000   0.00000  Uiso   1.00
C1356  C     0.53347   0.75091   0.08219   0.00000  Uiso   1.00
C1357  C     0.65192   0.59808   0.75000   0.00000  Uiso   1.00
C1358  C     0.59807   0.65193   0.75000   0.00000  Uiso   1.00
C1359  C     0.90192   0.84808   0.25000   0.00000  Uiso   1.00
C1360  C     0.65182   0.90182   0.75000   0.00000  Uiso   1.00
C1361  C     0.84808   0.59808   0.25000   0.00000  Uiso   1.00
C1362  C     0.90193   0.84807   0.75000   0.00000  Uiso   1.00
C1363  C     0.59808   0.65192   0.25000   0.00000  Uiso   1.00
C1364  C     0.84818   0.59818   0.75000   0.00000  Uiso   1.00
C1365  C     0.65192   0.90192   0.25000   0.00000  Uiso   1.00
C1366  C     0.50000   0.75000   0.47929   0.00000  Uiso   1.00
C1367  C     0.74908   0.96653   0.91782   0.00000  Uiso   1.00
C1368  C     0.50000   0.75000   0.52054   0.00000  Uiso   1.00
C1369  C     0.75000   0.50000   0.47946   0.00000  Uiso   1.00
C1370  C     0.75000   0.50000   0.52071   0.00000  Uiso   1.00
C1371  C     0.75000   0.50000   0.97929   0.00000  Uiso   1.00
C1372  C     0.75000   0.50000   0.02054   0.00000  Uiso   1.00
C1373  C     0.50000   0.75000   0.97946   0.00000  Uiso   1.00
C1374  C     0.50000   0.75000   0.02071   0.00000  Uiso   1.00
C1375  C     0.65456   0.90250   0.15810   0.00000  Uiso   1.00
C1376  C     0.89804   0.55017   0.80972   0.00000  Uiso   1.00
C1377  C     0.57656   0.64072   0.16028   0.00000  Uiso   1.00
C1378  C     0.74965   0.53354   0.08204   0.00000  Uiso   1.00
C1379  C     0.92228   0.85984   0.84062   0.00000  Uiso   1.00
C1380  C     0.84544   0.59751   0.15810   0.00000  Uiso   1.00
C1381  C     0.60195   0.94985   0.80968   0.00000  Uiso   1.00
C1382  C     0.92345   0.85929   0.16028   0.00000  Uiso   1.00
C1383  C     0.57770   0.64015   0.84061   0.00000  Uiso   1.00
C1384  C     0.64071   0.57655   0.83971   0.00000  Uiso   1.00
C1385  C     0.85983   0.92229   0.15939   0.00000  Uiso   1.00
C1386  C     0.59758   0.84539   0.84191   0.00000  Uiso   1.00
C1387  C     0.94989   0.60191   0.19039   0.00000  Uiso   1.00
C1388  C     0.85929   0.92345   0.83972   0.00000  Uiso   1.00
C1389  C     0.53353   0.74964   0.91796   0.00000  Uiso   1.00
C1390  C     0.64018   0.57772   0.15938   0.00000  Uiso   1.00
C1391  C     0.90243   0.65464   0.84190   0.00000  Uiso   1.00
C1392  C     0.55010   0.89809   0.19042   0.00000  Uiso   1.00
C1393  C     0.90461   0.65242   0.65809   0.00000  Uiso   1.00
C1394  C     0.64809   0.80011   0.30961   0.00000  Uiso   1.00
C1395  C     0.82655   0.89071   0.66028   0.00000  Uiso   1.00
C1396  C     0.67228   0.60982   0.34062   0.00000  Uiso   1.00
C1397  C     0.59536   0.84757   0.65810   0.00000  Uiso   1.00
C1398  C     0.85191   0.69990   0.30958   0.00000  Uiso   1.00
C1399  C     0.67345   0.60929   0.66029   0.00000  Uiso   1.00
C1400  C     0.96653   0.74909   0.08218   0.00000  Uiso   1.00
C1401  C     0.82771   0.89016   0.34061   0.00000  Uiso   1.00
C1402  C     0.89071   0.82655   0.33972   0.00000  Uiso   1.00
C1403  C     0.60985   0.67230   0.65939   0.00000  Uiso   1.00
C1404  C     0.84750   0.59544   0.34190   0.00000  Uiso   1.00
C1405  C     0.69983   0.85196   0.69028   0.00000  Uiso   1.00
C1406  C     0.60928   0.67344   0.33972   0.00000  Uiso   1.00
C1407  C     0.89016   0.82771   0.65938   0.00000  Uiso   1.00
C1408  C     0.65249   0.90456   0.34190   0.00000  Uiso   1.00
C1409  C     0.80015   0.64805   0.69032   0.00000  Uiso   1.00
C1410  C     0.50417   0.81821   0.39571   0.00000  Uiso   1.00
C1411  C     0.50000   0.75000   0.39782   0.00000  Uiso   1.00
C1412  C     0.99924   0.68155   0.60420   0.00000  Uiso   1.00
C1413  C     0.68155   0.99921   0.39580   0.00000  Uiso   1.00
C1414  C     0.81821   0.50419   0.60430   0.00000  Uiso   1.00
C1415  C     0.99582   0.68179   0.39570   0.00000  Uiso   1.00
C1416  C     0.50075   0.81845   0.60420   0.00000  Uiso   1.00
C1417  C     0.81844   0.50080   0.39580   0.00000  Uiso   1.00
C1418  C     0.68179   0.99581   0.60429   0.00000  Uiso   1.00
C1419  C     0.75419   0.56821   0.89571   0.00000  Uiso   1.00
C1420  C     0.74920   0.93156   0.10420   0.00000  Uiso   1.00
C1421  C     0.93155   0.74925   0.89580   0.00000  Uiso   1.00
C1422  C     0.50000   0.75000   0.60206   0.00000  Uiso   1.00
C1423  C     0.56821   0.75418   0.10430   0.00000  Uiso   1.00
C1424  C     0.74581   0.93179   0.89570   0.00000  Uiso   1.00
C1425  C     0.75079   0.56845   0.10420   0.00000  Uiso   1.00
C1426  C     0.56845   0.75076   0.89580   0.00000  Uiso   1.00
C1427  C     0.93179   0.74583   0.10429   0.00000  Uiso   1.00
C1428  C     0.75000   0.50000   0.39794   0.00000  Uiso   1.00
C1429  C     0.50036   0.71647   0.58204   0.00000  Uiso   1.00
C1430  C     0.75000   0.50000   0.60218   0.00000  Uiso   1.00
C1431  C     0.75000   0.50000   0.89783   0.00000  Uiso   1.00
C1432  C     0.75000   0.50000   0.10206   0.00000  Uiso   1.00
C1433  C     0.50000   0.75000   0.89794   0.00000  Uiso   1.00
C1434  C     0.50000   0.75000   0.10218   0.00000  Uiso   1.00
C1435  C     0.50331   0.68381   0.47969   0.00000  Uiso   1.00
C1436  C     0.99608   0.81619   0.51995   0.00000  Uiso   1.00
C1437  C     0.81619   0.99611   0.48006   0.00000  Uiso   1.00
C1438  C     0.68380   0.50329   0.52031   0.00000  Uiso   1.00
C1439  C     0.99669   0.81619   0.47969   0.00000  Uiso   1.00
C1440  C     0.71646   0.50035   0.41796   0.00000  Uiso   1.00
C1441  C     0.50391   0.68381   0.51994   0.00000  Uiso   1.00
C1442  C     0.68381   0.50389   0.48005   0.00000  Uiso   1.00
C1443  C     0.81620   0.99671   0.52031   0.00000  Uiso   1.00
C1444  C     0.75329   0.93380   0.97969   0.00000  Uiso   1.00
C1445  C     0.74611   0.56619   0.01995   0.00000  Uiso   1.00
C1446  C     0.56619   0.74608   0.98006   0.00000  Uiso   1.00
C1447  C     0.93381   0.75331   0.02031   0.00000  Uiso   1.00
C1448  C     0.74671   0.56620   0.97969   0.00000  Uiso   1.00
C1449  C     0.75388   0.93381   0.01994   0.00000  Uiso   1.00
C1450  C     0.93381   0.75392   0.98006   0.00000  Uiso   1.00
C1451  C     0.78347   0.50092   0.58218   0.00000  Uiso   1.00
C1452  C     0.56619   0.74668   0.02031   0.00000  Uiso   1.00
C1453  C     0.75000   0.50000   0.35566   0.00000  Uiso   1.00
C1454  C     0.75000   0.50000   0.64438   0.00000  Uiso   1.00
C1455  C     0.50000   0.75000   0.35562   0.00000  Uiso   1.00
C1456  C     0.50000   0.75000   0.64434   0.00000  Uiso   1.00
C1457  C     0.50000   0.75000   0.85566   0.00000  Uiso   1.00
C1458  C     0.50000   0.75000   0.14438   0.00000  Uiso   1.00
C1459  C     0.75000   0.50000   0.85562   0.00000  Uiso   1.00
C1460  C     0.75000   0.50000   0.14434   0.00000  Uiso   1.00
C1461  C     0.68000   0.57000   0.25000   0.00000  Uiso   1.00
C1462  C     0.99909   0.71653   0.41782   0.00000  Uiso   1.00
C1463  C     0.82000   0.93000   0.75000   0.00000  Uiso   1.00
C1464  C     0.92992   0.67992   0.25000   0.00000  Uiso   1.00
C1465  C     0.57004   0.82004   0.75000   0.00000  Uiso   1.00
C1466  C     0.82000   0.93000   0.25000   0.00000  Uiso   1.00
C1467  C     0.68000   0.57000   0.75000   0.00000  Uiso   1.00
C1468  C     0.57008   0.82008   0.25000   0.00000  Uiso   1.00
C1469  C     0.92996   0.67996   0.75000   0.00000  Uiso   1.00
C1470  C     0.67992   0.92992   0.75000   0.00000  Uiso   1.00
C1471  C     0.82004   0.57004   0.25000   0.00000  Uiso   1.00
C1472  C     0.93000   0.82000   0.75000   0.00000  Uiso   1.00
C1473  C     0.99963   0.78354   0.58204   0.00000  Uiso   1.00
C1474  C     0.57000   0.68000   0.25000   0.00000  Uiso   1.00
C1475  C     0.82008   0.57008   0.75000   0.00000  Uiso   1.00
C1476  C     0.67996   0.92996   0.25000   0.00000  Uiso   1.00
C1477  C     0.57000   0.68000   0.75000   0.00000  Uiso   1.00
C1478  C     0.93000   0.82000   0.25000   0.00000  Uiso   1.00
C1479  C     0.62860   0.89826   0.21770   0.00000  Uiso   1.00
C1480  C     0.87305   0.60036   0.78123   0.00000  Uiso   1.00
C1481  C     0.61333   0.64039   0.21444   0.00000  Uiso   1.00
C1482  C     0.88667   0.85958   0.78555   0.00000  Uiso   1.00
C1483  C     0.87139   0.60174   0.21770   0.00000  Uiso   1.00
C1484  C     0.78353   0.99966   0.41796   0.00000  Uiso   1.00
C1485  C     0.62694   0.89965   0.78123   0.00000  Uiso   1.00
C1486  C     0.88667   0.85962   0.21444   0.00000  Uiso   1.00
C1487  C     0.61333   0.64042   0.78555   0.00000  Uiso   1.00
C1488  C     0.64038   0.61333   0.78556   0.00000  Uiso   1.00
C1489  C     0.85958   0.88667   0.21445   0.00000  Uiso   1.00
C1490  C     0.60177   0.87137   0.78232   0.00000  Uiso   1.00
C1491  C     0.89966   0.62692   0.21879   0.00000  Uiso   1.00
C1492  C     0.85962   0.88667   0.78556   0.00000  Uiso   1.00
C1493  C     0.64043   0.61334   0.21445   0.00000  Uiso   1.00
C1494  C     0.89823   0.62864   0.78232   0.00000  Uiso   1.00
C1495  C     0.71653   0.99908   0.58218   0.00000  Uiso   1.00
C1496  C     0.60033   0.87307   0.21879   0.00000  Uiso   1.00
C1497  C     0.87863   0.64823   0.71768   0.00000  Uiso   1.00
C1498  C     0.62308   0.85034   0.28121   0.00000  Uiso   1.00
C1499  C     0.86333   0.89038   0.71444   0.00000  Uiso   1.00
C1500  C     0.63666   0.60957   0.28555   0.00000  Uiso   1.00
C1501  C     0.62136   0.85177   0.71768   0.00000  Uiso   1.00
C1502  C     0.87693   0.64967   0.28121   0.00000  Uiso   1.00
C1503  C     0.63667   0.60962   0.71444   0.00000  Uiso   1.00
C1504  C     0.86333   0.89042   0.28555   0.00000  Uiso   1.00
C1505  C     0.89038   0.86333   0.28556   0.00000  Uiso   1.00
C1506  C     0.75092   0.53347   0.91782   0.00000  Uiso   1.00
C1507  C     0.60958   0.63667   0.71445   0.00000  Uiso   1.00
C1508  C     0.85174   0.62140   0.28230   0.00000  Uiso   1.00
C1509  C     0.64964   0.87695   0.71877   0.00000  Uiso   1.00
C1510  C     0.60961   0.63667   0.28556   0.00000  Uiso   1.00
C1511  C     0.89042   0.86333   0.71445   0.00000  Uiso   1.00
C1512  C     0.64826   0.87861   0.28230   0.00000  Uiso   1.00
C1513  C     0.85035   0.62306   0.71877   0.00000  Uiso   1.00
C1514  C     0.50047   0.71653   0.45876   0.00000  Uiso   1.00
C1515  C     0.99888   0.78349   0.54104   0.00000  Uiso   1.00
C1516  C     0.78349   0.99890   0.45896   0.00000  Uiso   1.00
H1517  H     0.50583   0.65774   0.46523   0.00000  Uiso   1.00
H1518  H     0.74296   0.59228   0.03416   0.00000  Uiso   1.00
H1519  H     0.68804   0.82444   0.68618   0.00000  Uiso   1.00
H1520  H     0.58910   0.69512   0.34671   0.00000  Uiso   1.00
H1521  H     0.63211   0.68637   0.32344   0.00000  Uiso   1.00
H1522  H     0.61976   0.66297   0.36783   0.00000  Uiso   1.00
H1523  H     0.86383   0.81886   0.67243   0.00000  Uiso   1.00
H1524  H     0.90811   0.80341   0.65655   0.00000  Uiso   1.00
H1525  H     0.88483   0.83765   0.62946   0.00000  Uiso   1.00
H1526  H     0.64728   0.93228   0.32989   0.00000  Uiso   1.00
H1527  H     0.67040   0.90755   0.36766   0.00000  Uiso   1.00
H1528  H     0.62655   0.89222   0.35197   0.00000  Uiso   1.00
H1529  H     0.59228   0.74293   0.96585   0.00000  Uiso   1.00
H1530  H     0.78550   0.64674   0.71866   0.00000  Uiso   1.00
H1531  H     0.77971   0.64390   0.66700   0.00000  Uiso   1.00
H1532  H     0.81194   0.67557   0.68617   0.00000  Uiso   1.00
H1533  H     0.53214   0.86458   0.38712   0.00000  Uiso   1.00
H1534  H     0.97513   0.63293   0.61195   0.00000  Uiso   1.00
H1535  H     0.63294   0.97507   0.38804   0.00000  Uiso   1.00
H1536  H     0.86457   0.53217   0.61290   0.00000  Uiso   1.00
H1537  H     0.96786   0.63541   0.38711   0.00000  Uiso   1.00
H1538  H     0.52486   0.86708   0.61196   0.00000  Uiso   1.00
H1539  H     0.86705   0.52494   0.38805   0.00000  Uiso   1.00
H1540  H     0.90774   0.75583   0.03476   0.00000  Uiso   1.00
H1541  H     0.63543   0.96783   0.61289   0.00000  Uiso   1.00
H1542  H     0.78217   0.61457   0.88711   0.00000  Uiso   1.00
H1543  H     0.72506   0.88295   0.11195   0.00000  Uiso   1.00
H1544  H     0.88292   0.72514   0.88804   0.00000  Uiso   1.00
H1545  H     0.61459   0.78214   0.11289   0.00000  Uiso   1.00
H1546  H     0.71783   0.88543   0.88710   0.00000  Uiso   1.00
H1547  H     0.77493   0.61706   0.11196   0.00000  Uiso   1.00
H1548  H     0.61707   0.77487   0.88805   0.00000  Uiso   1.00
H1549  H     0.88542   0.71786   0.11288   0.00000  Uiso   1.00
H1550  H     0.74421   0.59226   0.96524   0.00000  Uiso   1.00
H1551  H     0.75703   0.90772   0.03416   0.00000  Uiso   1.00
H1552  H     0.90772   0.75708   0.96584   0.00000  Uiso   1.00
H1553  H     0.59226   0.74417   0.03477   0.00000  Uiso   1.00
H1554  H     0.68228   0.89730   0.17012   0.00000  Uiso   1.00
H1555  H     0.65753   0.92041   0.13234   0.00000  Uiso   1.00
H1556  H     0.64222   0.87656   0.14803   0.00000  Uiso   1.00
H1557  H     0.99292   0.84228   0.53416   0.00000  Uiso   1.00
H1558  H     0.89669   0.53547   0.78142   0.00000  Uiso   1.00
H1559  H     0.89391   0.52978   0.83309   0.00000  Uiso   1.00
H1560  H     0.92556   0.56196   0.81382   0.00000  Uiso   1.00
H1561  H     0.55488   0.66090   0.15329   0.00000  Uiso   1.00
H1562  H     0.56363   0.61789   0.17656   0.00000  Uiso   1.00
H1563  H     0.58703   0.63023   0.13217   0.00000  Uiso   1.00
H1564  H     0.93114   0.88617   0.82757   0.00000  Uiso   1.00
H1565  H     0.94659   0.84189   0.84345   0.00000  Uiso   1.00
H1566  H     0.91235   0.86517   0.87054   0.00000  Uiso   1.00
H1567  H     0.81772   0.60272   0.17011   0.00000  Uiso   1.00
H1568  H     0.84228   0.99297   0.46584   0.00000  Uiso   1.00
H1569  H     0.84245   0.57960   0.13234   0.00000  Uiso   1.00
H1570  H     0.85778   0.62345   0.14804   0.00000  Uiso   1.00
H1571  H     0.60326   0.96449   0.78134   0.00000  Uiso   1.00
H1572  H     0.60610   0.97029   0.83300   0.00000  Uiso   1.00
H1573  H     0.57443   0.93806   0.81383   0.00000  Uiso   1.00
H1574  H     0.94513   0.83911   0.15331   0.00000  Uiso   1.00
H1575  H     0.93636   0.88213   0.17656   0.00000  Uiso   1.00
H1576  H     0.91298   0.86976   0.13217   0.00000  Uiso   1.00
H1577  H     0.56883   0.61384   0.82753   0.00000  Uiso   1.00
H1578  H     0.55341   0.65811   0.84346   0.00000  Uiso   1.00
H1579  H     0.65774   0.50579   0.53476   0.00000  Uiso   1.00
H1580  H     0.58764   0.63479   0.87053   0.00000  Uiso   1.00
H1581  H     0.66090   0.55487   0.84670   0.00000  Uiso   1.00
H1582  H     0.61788   0.56362   0.82343   0.00000  Uiso   1.00
H1583  H     0.63023   0.58701   0.86783   0.00000  Uiso   1.00
H1584  H     0.88614   0.93118   0.17247   0.00000  Uiso   1.00
H1585  H     0.84187   0.94658   0.15653   0.00000  Uiso   1.00
H1586  H     0.86521   0.91235   0.12948   0.00000  Uiso   1.00
H1587  H     0.60279   0.81768   0.82988   0.00000  Uiso   1.00
H1588  H     0.57968   0.84240   0.86768   0.00000  Uiso   1.00
H1589  H     0.62351   0.85774   0.85196   0.00000  Uiso   1.00
H1590  H     0.99417   0.84226   0.46524   0.00000  Uiso   1.00
H1591  H     0.96455   0.60330   0.21872   0.00000  Uiso   1.00
H1592  H     0.97030   0.60601   0.16705   0.00000  Uiso   1.00
H1593  H     0.93810   0.57439   0.18634   0.00000  Uiso   1.00
H1594  H     0.83909   0.94512   0.84672   0.00000  Uiso   1.00
H1595  H     0.88210   0.93639   0.82343   0.00000  Uiso   1.00
H1596  H     0.86978   0.91298   0.86782   0.00000  Uiso   1.00
H1597  H     0.61387   0.56883   0.17245   0.00000  Uiso   1.00
H1598  H     0.65814   0.55343   0.15653   0.00000  Uiso   1.00
H1599  H     0.63481   0.58766   0.12947   0.00000  Uiso   1.00
H1600  H     0.89728   0.68237   0.82986   0.00000  Uiso   1.00
H1601  H     0.50707   0.65772   0.53415   0.00000  Uiso   1.00
H1602  H     0.92030   0.65760   0.86769   0.00000  Uiso   1.00
H1603  H     0.87646   0.64234   0.85192   0.00000  Uiso   1.00
H1604  H     0.53548   0.89674   0.21877   0.00000  Uiso   1.00
H1605  H     0.52964   0.89397   0.16712   0.00000  Uiso   1.00
H1606  H     0.56188   0.92561   0.18631   0.00000  Uiso   1.00
H1607  H     0.93232   0.64721   0.67013   0.00000  Uiso   1.00
H1608  H     0.90760   0.67032   0.63232   0.00000  Uiso   1.00
H1609  H     0.89226   0.62649   0.64804   0.00000  Uiso   1.00
H1610  H     0.64670   0.78545   0.28128   0.00000  Uiso   1.00
H1611  H     0.64399   0.77969   0.33295   0.00000  Uiso   1.00
H1612  H     0.65772   0.50704   0.46584   0.00000  Uiso   1.00
H1613  H     0.67561   0.81190   0.31367   0.00000  Uiso   1.00
H1614  H     0.80488   0.91091   0.65329   0.00000  Uiso   1.00
H1615  H     0.81361   0.86790   0.67657   0.00000  Uiso   1.00
H1616  H     0.83701   0.88022   0.63218   0.00000  Uiso   1.00
H1617  H     0.68117   0.63613   0.32755   0.00000  Uiso   1.00
H1618  H     0.69657   0.59186   0.34347   0.00000  Uiso   1.00
H1619  H     0.66234   0.61519   0.37053   0.00000  Uiso   1.00
H1620  H     0.56763   0.85272   0.67014   0.00000  Uiso   1.00
H1621  H     0.59240   0.82970   0.63231   0.00000  Uiso   1.00
H1622  H     0.60766   0.87354   0.64808   0.00000  Uiso   1.00
H1623  H     0.84226   0.99420   0.53477   0.00000  Uiso   1.00
H1624  H     0.85326   0.71452   0.28123   0.00000  Uiso   1.00
H1625  H     0.85603   0.72036   0.33288   0.00000  Uiso   1.00
H1626  H     0.82438   0.68812   0.31369   0.00000  Uiso   1.00
H1627  H     0.69513   0.58910   0.65330   0.00000  Uiso   1.00
H1628  H     0.68638   0.63212   0.67657   0.00000  Uiso   1.00
H1629  H     0.66299   0.61977   0.63218   0.00000  Uiso   1.00
H1630  H     0.81882   0.86386   0.32753   0.00000  Uiso   1.00
H1631  H     0.80342   0.90813   0.34347   0.00000  Uiso   1.00
H1632  H     0.83765   0.88479   0.37052   0.00000  Uiso   1.00
H1633  H     0.91089   0.80487   0.34669   0.00000  Uiso   1.00
H1634  H     0.75580   0.90774   0.96523   0.00000  Uiso   1.00
H1635  H     0.86787   0.81364   0.32344   0.00000  Uiso   1.00
H1636  H     0.88024   0.83702   0.36783   0.00000  Uiso   1.00
H1637  H     0.63616   0.68117   0.67247   0.00000  Uiso   1.00
H1638  H     0.59189   0.69659   0.65654   0.00000  Uiso   1.00
H1639  H     0.61521   0.66236   0.62948   0.00000  Uiso   1.00
H1640  H     0.85270   0.56772   0.32989   0.00000  Uiso   1.00
H1641  H     0.82959   0.59247   0.36766   0.00000  Uiso   1.00
H1642  H     0.87344   0.60778   0.35197   0.00000  Uiso   1.00
H1643  H     0.71453   0.85331   0.71859   0.00000  Uiso   1.00
H1644  H     0.72022   0.85609   0.66692   0.00000  Uiso   1.00
O1645  O     0.75000   0.50000   0.25000   0.00000  Uiso   1.00
O1646  O     0.75000   0.96963   0.66245   0.00000  Uiso   1.00
O1647  O     0.65798   0.96736   0.59587   0.00000  Uiso   1.00
O1648  O     0.73231   0.57573   0.87006   0.00000  Uiso   1.00
O1649  O     0.78264   0.59202   0.90414   0.00000  Uiso   1.00
O1650  O     0.77128   0.92554   0.13008   0.00000  Uiso   1.00
O1651  O     0.72270   0.90570   0.09541   0.00000  Uiso   1.00
O1652  O     0.92556   0.77133   0.86991   0.00000  Uiso   1.00
O1653  O     0.90568   0.72277   0.90459   0.00000  Uiso   1.00
O1654  O     0.57573   0.73231   0.12996   0.00000  Uiso   1.00
O1655  O     0.59204   0.78262   0.09586   0.00000  Uiso   1.00
O1656  O     0.76768   0.92427   0.87005   0.00000  Uiso   1.00
O1657  O     0.96963   0.75000   0.33755   0.00000  Uiso   1.00
O1658  O     0.71736   0.90797   0.90413   0.00000  Uiso   1.00
O1659  O     0.72871   0.57445   0.13009   0.00000  Uiso   1.00
O1660  O     0.77729   0.59430   0.09542   0.00000  Uiso   1.00
O1661  O     0.57444   0.72867   0.86992   0.00000  Uiso   1.00
O1662  O     0.59431   0.77725   0.90460   0.00000  Uiso   1.00
O1663  O     0.92427   0.76770   0.12994   0.00000  Uiso   1.00
O1664  O     0.90796   0.71738   0.09586   0.00000  Uiso   1.00
O1665  O     0.53036   0.75000   0.66245   0.00000  Uiso   1.00
O1666  O     0.50000   0.71964   0.83755   0.00000  Uiso   1.00
O1667  O     0.50000   0.78037   0.16245   0.00000  Uiso   1.00
O1668  O     0.78036   0.50000   0.83755   0.00000  Uiso   1.00
O1669  O     0.71963   0.50000   0.16245   0.00000  Uiso   1.00
O1670  O     0.50000   0.78037   0.83755   0.00000  Uiso   1.00
O1671  O     0.50000   0.71964   0.16245   0.00000  Uiso   1.00
O1672  O     0.71963   0.50000   0.83755   0.00000  Uiso   1.00
O1673  O     0.75000   0.50000   0.75000   0.00000  Uiso   1.00
O1674  O     0.78036   0.50000   0.16245   0.00000  Uiso   1.00
O1675  O     0.70724   0.57308   0.27302   0.00000  Uiso   1.00
O1676  O     0.79275   0.92692   0.72698   0.00000  Uiso   1.00
O1677  O     0.92692   0.70725   0.27302   0.00000  Uiso   1.00
O1678  O     0.57307   0.79275   0.72698   0.00000  Uiso   1.00
O1679  O     0.79275   0.92692   0.27302   0.00000  Uiso   1.00
O1680  O     0.70724   0.57308   0.72698   0.00000  Uiso   1.00
O1681  O     0.57307   0.79275   0.27302   0.00000  Uiso   1.00
O1682  O     0.92692   0.70725   0.72698   0.00000  Uiso   1.00
O1683  O     0.70724   0.92692   0.72698   0.00000  Uiso   1.00
O1684  O     0.50000   0.75000   0.25000   0.00000  Uiso   1.00
O1685  O     0.79275   0.57308   0.27302   0.00000  Uiso   1.00
O1686  O     0.92692   0.79275   0.72698   0.00000  Uiso   1.00
O1687  O     0.57307   0.70724   0.27302   0.00000  Uiso   1.00
O1688  O     0.79275   0.57308   0.72698   0.00000  Uiso   1.00
O1689  O     0.70724   0.92692   0.27302   0.00000  Uiso   1.00
O1690  O     0.57307   0.70724   0.72698   0.00000  Uiso   1.00
O1691  O     0.92692   0.79275   0.27302   0.00000  Uiso   1.00
O1692  O     0.95724   0.82307   0.77302   0.00000  Uiso   1.00
O1693  O     0.54275   0.67692   0.22698   0.00000  Uiso   1.00
O1694  O     0.67692   0.95724   0.77302   0.00000  Uiso   1.00
O1695  O     0.50000   0.75000   0.75000   0.00000  Uiso   1.00
O1696  O     0.82307   0.54276   0.22698   0.00000  Uiso   1.00
O1697  O     0.54275   0.67692   0.77302   0.00000  Uiso   1.00
O1698  O     0.95724   0.82307   0.22698   0.00000  Uiso   1.00
O1699  O     0.82307   0.54276   0.77302   0.00000  Uiso   1.00
O1700  O     0.67692   0.95724   0.22698   0.00000  Uiso   1.00
O1701  O     0.95724   0.67693   0.22698   0.00000  Uiso   1.00
O1702  O     0.54275   0.82307   0.77302   0.00000  Uiso   1.00
O1703  O     0.67692   0.54276   0.22698   0.00000  Uiso   1.00
O1704  O     0.82307   0.95724   0.77302   0.00000  Uiso   1.00
O1705  O     0.54275   0.82307   0.22698   0.00000  Uiso   1.00
O1706  O     0.75000   0.96963   0.33755   0.00000  Uiso   1.00
O1707  O     0.95724   0.67693   0.77302   0.00000  Uiso   1.00
O1708  O     0.82307   0.95724   0.22698   0.00000  Uiso   1.00
O1709  O     0.67692   0.54276   0.77302   0.00000  Uiso   1.00
O1710  O     0.63210   0.92044   0.18541   0.00000  Uiso   1.00
O1711  O     0.87052   0.57711   0.81282   0.00000  Uiso   1.00
O1712  O     0.60497   0.65864   0.18026   0.00000  Uiso   1.00
O1713  O     0.89492   0.84123   0.81971   0.00000  Uiso   1.00
O1714  O     0.86789   0.57957   0.18541   0.00000  Uiso   1.00
O1715  O     0.62947   0.92291   0.81280   0.00000  Uiso   1.00
O1716  O     0.89504   0.84137   0.18026   0.00000  Uiso   1.00
O1717  O     0.75000   0.53037   0.66245   0.00000  Uiso   1.00
O1718  O     0.60507   0.65876   0.81971   0.00000  Uiso   1.00
O1719  O     0.65863   0.60496   0.81974   0.00000  Uiso   1.00
O1720  O     0.84123   0.89492   0.18029   0.00000  Uiso   1.00
O1721  O     0.57961   0.86785   0.81462   0.00000  Uiso   1.00
O1722  O     0.92294   0.62942   0.18723   0.00000  Uiso   1.00
O1723  O     0.84137   0.89504   0.81974   0.00000  Uiso   1.00
O1724  O     0.65878   0.60508   0.18029   0.00000  Uiso   1.00
O1725  O     0.92039   0.63216   0.81463   0.00000  Uiso   1.00
O1726  O     0.57704   0.87058   0.18723   0.00000  Uiso   1.00
O1727  O     0.88215   0.67039   0.68538   0.00000  Uiso   1.00
O1728  O     0.53036   0.75000   0.33755   0.00000  Uiso   1.00
O1729  O     0.62058   0.82705   0.31277   0.00000  Uiso   1.00
O1730  O     0.85496   0.90863   0.68026   0.00000  Uiso   1.00
O1731  O     0.64491   0.59122   0.31971   0.00000  Uiso   1.00
O1732  O     0.61784   0.82961   0.68538   0.00000  Uiso   1.00
O1733  O     0.87942   0.67296   0.31277   0.00000  Uiso   1.00
O1734  O     0.64504   0.59137   0.68026   0.00000  Uiso   1.00
O1735  O     0.85508   0.90877   0.31971   0.00000  Uiso   1.00
O1736  O     0.90863   0.85496   0.31974   0.00000  Uiso   1.00
O1737  O     0.59124   0.64493   0.68029   0.00000  Uiso   1.00
O1738  O     0.82956   0.61790   0.31459   0.00000  Uiso   1.00
O1739  O     0.96963   0.75000   0.66245   0.00000  Uiso   1.00
O1740  O     0.67289   0.87948   0.68718   0.00000  Uiso   1.00
O1741  O     0.59136   0.64503   0.31974   0.00000  Uiso   1.00
O1742  O     0.90877   0.85508   0.68029   0.00000  Uiso   1.00
O1743  O     0.67043   0.88211   0.31460   0.00000  Uiso   1.00
O1744  O     0.82709   0.62053   0.68720   0.00000  Uiso   1.00
O1745  O     0.98230   0.82573   0.37006   0.00000  Uiso   1.00
O1746  O     0.53262   0.84204   0.40415   0.00000  Uiso   1.00
O1747  O     0.52133   0.67555   0.63008   0.00000  Uiso   1.00
O1748  O     0.97275   0.65569   0.59541   0.00000  Uiso   1.00
O1749  O     0.67555   0.52129   0.36991   0.00000  Uiso   1.00
O1750  O     0.75000   0.53037   0.33755   0.00000  Uiso   1.00
O1751  O     0.65570   0.97271   0.40459   0.00000  Uiso   1.00
O1752  O     0.82573   0.98232   0.62996   0.00000  Uiso   1.00
O1753  O     0.84203   0.53264   0.59587   0.00000  Uiso   1.00
O1754  O     0.51769   0.67427   0.37004   0.00000  Uiso   1.00
O1755  O     0.96738   0.65796   0.40414   0.00000  Uiso   1.00
O1756  O     0.97867   0.82444   0.63009   0.00000  Uiso   1.00
O1757  O     0.52723   0.84432   0.59541   0.00000  Uiso   1.00
O1758  O     0.82445   0.97872   0.36992   0.00000  Uiso   1.00
O1759  O     0.84430   0.52730   0.40459   0.00000  Uiso   1.00
O1760  O     0.67427   0.51769   0.62994   0.00000  Uiso   1.00
Zn1761 Zn    0.70659   0.50000   0.21735   0.00000  Uiso   1.00
Zn1762 Zn    0.54340   0.75000   0.28265   0.00000  Uiso   1.00
Zn1763 Zn    0.75000   0.95659   0.71735   0.00000  Uiso   1.00
Zn1764 Zn    0.75000   0.54341   0.28265   0.00000  Uiso   1.00
Zn1765 Zn    0.54340   0.75000   0.71735   0.00000  Uiso   1.00
Zn1766 Zn    0.95659   0.75000   0.28265   0.00000  Uiso   1.00
Zn1767 Zn    0.75000   0.54341   0.71735   0.00000  Uiso   1.00
Zn1768 Zn    0.75000   0.95659   0.28265   0.00000  Uiso   1.00
Zn1769 Zn    0.79340   0.50000   0.78265   0.00000  Uiso   1.00
Zn1770 Zn    0.50000   0.70659   0.21735   0.00000  Uiso   1.00
Zn1771 Zn    0.50000   0.79341   0.78265   0.00000  Uiso   1.00
Zn1772 Zn    0.79340   0.50000   0.21735   0.00000  Uiso   1.00
Zn1773 Zn    0.70659   0.50000   0.78265   0.00000  Uiso   1.00
Zn1774 Zn    0.50000   0.79341   0.21735   0.00000  Uiso   1.00
Zn1775 Zn    0.50000   0.70660   0.78265   0.00000  Uiso   1.00
Zn1776 Zn    0.95659   0.75000   0.71735   0.00000  Uiso   1.00
loop_
_geom_bond_atom_site_label_1
_geom_bond_atom_site_label_2
_geom_bond_distance
_geom_bond_site_symmetry_2
_ccdc_geom_bond_type
C1     C79     1.409   .     A
C1     C78     1.490   .     S
C1     C448    1.409   1_455 S
C2     C14     1.410   .     A
C2     C88     1.492   .     S
C2     C988    1.410   .     S
C3     C106    1.404   .     A
C3     C38     1.417   .     S
C3     C1051   1.409   1_545 S
C4     C107    1.404   .     A
C4     C445    1.409   .     S
C4     C478    1.417   .     S
C5     C97     1.410   .     A
C5     C109    1.406   .     A
C5     C36     1.417   .     S
C6     C110    1.406   .     A
C6     C37     1.417   .     A
C6     C108    1.410   .     A
C7     C111    1.404   .     A
C7     C926    1.417   .     A
C7     C1007   1.409   .     S
C8     C35     1.409   .     A
C8     C112    1.404   .     A
C8     C927    1.417   .     A
C9     C46     1.410   .     A
C9     C113    1.406   .     A
C9     C40     1.417   .     A
C10    C114    1.406   .     A
C10    C57     1.410   .     A
C10    C41     1.417   .     S
C11    C115    1.404   .     A
C11    C68     1.409   .     A
C11    C486    1.417   .     S
C12    C174    1.409   .     A
C12    C116    1.404   .     A
C12    C39     1.417   .     S
C13    C15     1.410   .     A
C13    C545    1.410   .     A
C13    C89     1.492   .     S
C14    C117    1.406   .     A
C14    C928    1.417   .     S
C15    C118    1.406   .     A
C15    C485    1.417   .     A
C16    C120    1.404   .     A
C16    C24     1.409   .     A
C16    C42     1.417   .     A
C17    C164    1.412   .     A
C17    C166    1.412   .     A
C17    C136    1.465   .     S
C18    C137    1.462   .     S
C18    C165    1.409   .     A
C18    C162    1.409   .     A
C19    C129    1.451   .     S
C19    C161    1.408   .     A
C19    C168    1.408   .     A
C20    C131    1.452   .     S
C20    C160    1.408   .     A
C20    C167    1.408   .     A
C21    C170    1.412   .     A
C21    C159    1.412   .     A
C21    C132    1.465   .     S
C22    C133    1.462   .     S
C22    C158    1.409   .     A
C22    C169    1.409   .     A
C23    C134    1.451   .     S
C23    C157    1.408   .     A
C23    C172    1.408   .     A
C24    C102    1.409   .     A
C24    C91     1.490   .     S
C25    C171    1.408   .     A
C25    C156    1.408   .     A
C25    C135    1.452   .     S
C26    C145    1.451   .     S
C26    C155    1.408   .     A
C26    C175    1.408   .     A
C27    C154    1.408   .     A
C27    C173    1.408   .     A
C27    C146    1.452   .     S
C28    C153    1.412   .     A
C28    C177    1.412   .     A
C28    C138    1.465   .     S
C29    C151    1.409   .     A
C29    C176    1.409   .     A
C29    C139    1.462   .     S
C30    C150    1.408   .     A
C30    C140    1.451   .     S
C30    C179    1.408   .     A
C31    C178    1.408   .     A
C31    C149    1.408   .     A
C31    C142    1.452   .     S
C32    C181    1.412   .     A
C32    C148    1.412   .     A
C32    C143    1.465   .     S
C33    C147    1.409   .     A
C33    C144    1.462   .     S
C33    C180    1.409   .     A
C34    C182    1.417   .     A
C34    C448    1.417   1_455 S
C34    C36     1.418   .     S
C35    C92     1.490   .     S
C35    C987    1.409   .     A
C36    C627    1.417   1_455 A
C37    C38     1.418   .     S
C37    C1072   1.417   1_545 S
C38    C895    1.417   1_545 A
C39    C896    1.417   1_545 A
C39    C40     1.418   1_556 S
C40    C902    1.417   1_545 S
C40    C39     1.418   1_554 S
C41    C459    1.417   1_455 A
C41    C42     1.418   1_556 S
C42    C455    1.417   1_455 S
C42    C41     1.418   1_554 S
C43    H222    1.113   .     S
C43    H223    1.109   .     S
C43    O378    1.409   .     S
C43    H224    1.113   .     S
C44    H227    1.109   .     S
C44    H226    1.114   .     S
C44    O379    1.412   .     S
C44    H228    1.111   .     S
C45    O380    1.416   .     S
C45    H230    1.117   .     S
C45    H229    1.109   .     S
C45    H231    1.108   .     S
C46    C100    1.410   .     A
C46    C93     1.492   .     S
C47    H233    1.109   .     S
C47    O381    1.416   .     S
C47    H232    1.117   .     S
C47    H234    1.109   .     S
C48    H237    1.109   .     S
C48    O382    1.409   .     S
C48    H238    1.113   .     S
C48    H235    1.113   .     S
C49    H241    1.112   .     S
C49    O383    1.412   .     S
C49    H239    1.114   .     S
C49    H240    1.109   .     S
C50    O384    1.416   .     S
C50    H243    1.117   .     S
C50    H244    1.108   .     S
C50    H242    1.109   .     S
C51    H246    1.109   .     S
C51    O386    1.416   .     S
C51    H245    1.117   .     S
C51    H248    1.109   .     S
C52    O387    1.416   .     S
C52    H250    1.117   .     S
C52    H249    1.109   .     S
C52    H251    1.108   .     S
C53    H254    1.109   .     S
C53    O388    1.416   .     S
C53    H253    1.109   .     S
C53    H252    1.117   .     S
C54    H256    1.109   .     S
C54    O389    1.409   .     S
C54    H257    1.113   .     S
C54    H255    1.113   .     S
C55    H260    1.109   .     S
C55    O390    1.412   .     S
C55    H259    1.114   .     S
C55    H261    1.111   .     S
C56    H263    1.117   .     S
C56    O391    1.416   .     S
C56    H262    1.109   .     S
C56    H264    1.108   .     S
C57    C94     1.492   .     S
C57    C101    1.410   .     S
C58    H267    1.109   .     S
C58    H266    1.109   .     S
C58    H265    1.117   .     S
C58    O392    1.416   .     S
C59    O393    1.409   .     S
C59    H270    1.109   .     S
C59    H268    1.113   .     S
C59    H271    1.113   .     S
C60    H274    1.111   .     S
C60    O394    1.412   .     S
C60    H273    1.109   .     S
C60    H272    1.114   .     S
C61    O395    1.409   .     S
C61    H277    1.113   .     S
C61    H276    1.109   .     S
C61    H275    1.113   .     S
C62    H281    1.111   .     S
C62    H279    1.109   .     S
C62    O397    1.412   .     S
C62    H278    1.114   .     S
C63    H284    1.108   .     S
C63    H283    1.117   .     S
C63    O398    1.416   .     S
C63    H282    1.109   .     S
C64    O399    1.416   .     S
C64    H285    1.117   .     S
C64    H287    1.109   .     S
C64    H286    1.109   .     S
C65    H290    1.113   .     S
C65    O400    1.409   .     S
C65    H289    1.109   .     S
C65    H288    1.113   .     S
C66    H294    1.111   .     S
C66    O401    1.412   .     S
C66    H292    1.114   .     S
C66    H293    1.109   .     S
C67    O402    1.416   .     S
C67    H297    1.108   .     S
C67    H295    1.109   .     S
C67    H296    1.117   .     S
C68    C95     1.490   .     S
C68    C546    1.409   .     S
C69    H298    1.117   .     S
C69    O403    1.416   .     S
C69    H300    1.109   .     S
C69    H299    1.109   .     S
C70    H303    1.117   .     S
C70    H301    1.109   .     S
C70    O404    1.416   .     S
C70    H304    1.108   .     S
C71    O405    1.416   .     S
C71    H306    1.109   .     S
C71    H307    1.109   .     S
C71    H305    1.117   .     S
C72    O406    1.409   .     S
C72    H308    1.113   .     S
C72    H310    1.113   .     S
C72    H309    1.109   .     S
C73    O408    1.412   .     S
C73    H312    1.109   .     S
C73    H187    1.112   .     S
C73    H311    1.114   .     S
C74    H190    1.108   .     S
C74    O409    1.416   .     S
C74    H188    1.109   .     S
C74    H189    1.117   .     S
C75    O410    1.416   .     S
C75    H191    1.117   .     S
C75    H193    1.109   .     S
C75    H192    1.109   .     S
C76    H194    1.113   .     S
C76    O411    1.409   .     S
C76    H196    1.113   .     S
C76    H195    1.109   .     S
C77    H198    1.114   .     S
C77    H199    1.109   .     S
C77    O412    1.412   .     S
C77    H200    1.112   .     S
C78    O414    1.398   .     S
C78    O857    1.223   1_455 S
C79    C123    1.451   .     S
C79    C574    1.409   1_455 S
C80    O416    1.398   .     S
C80    C541    1.492   .     S
C80    O859    1.223   .     S
C81    O419    1.398   .     S
C81    C996    1.492   .     S
C81    O1305   1.223   .     S
C82    C119    1.490   .     S
C82    O421    1.398   .     S
C82    O1308   1.223   1_545 S
C83    C130    1.490   .     S
C83    O423    1.398   .     S
C83    O866    1.223   .     S
C84    O425    1.398   .     S
C84    C585    1.492   1_455 S
C84    O868    1.223   1_455 S
C85    O427    1.398   .     S
C85    C1040   1.492   1_545 S
C85    O1314   1.223   1_545 S
C86    C163    1.490   .     S
C86    O315    1.398   .     S
C86    O1316   1.223   .     S
C87    C174    1.490   .     S
C87    O317    1.398   .     S
C87    O316    1.223   .     D
C88    O319    1.398   .     S
C88    O318    1.223   .     D
C89    O320    1.223   .     D
C89    O321    1.398   .     S
C90    C585    1.410   1_455 A
C90    C124    1.454   .     S
C90    C97     1.410   .     S
C91    O323    1.398   .     S
C91    O322    1.223   .     D
C92    O324    1.223   .     D
C92    O326    1.398   .     S
C93    O327    1.223   .     D
C93    O328    1.398   .     S
C94    O329    1.223   .     D
C94    O330    1.398   .     S
C95    O332    1.398   .     S
C95    O331    1.223   .     D
C96    C108    1.410   .     A
C96    C121    1.454   .     S
C96    C1040   1.410   1_545 S
C97    C524    1.492   1_455 S
C98    C122    1.451   .     S
C98    C1051   1.409   1_545 A
C98    C119    1.409   .     S
C99    C127    1.451   .     S
C99    C923    1.409   1_545 A
C99    C174    1.409   .     S
C100   C128    1.454   .     S
C100   C890    1.410   1_545 S
C101   C125    1.454   .     S
C101   C457    1.410   1_455 A
C102   C126    1.451   .     S
C102   C512    1.409   1_455 S
C103   H185    1.082   .     S
C103   C109    1.384   .     A
C103   C182    1.404   .     A
C104   C183    1.406   .     A
C104   C107    1.384   .     A
C104   H225    1.081   .     S
C105   C184    1.406   .     A
C105   C111    1.384   .     A
C105   H236    1.081   .     S
C106   H247    1.082   .     S
C106   C110    1.384   .     A
C107   H258    1.082   .     S
C108   C969    1.492   1_545 S
C109   H269    1.081   .     S
C110   H280    1.081   .     S
C111   H291    1.082   .     S
C112   H302    1.082   .     S
C112   C117    1.384   1_556 S
C113   H186    1.081   .     S
C113   C116    1.384   1_554 S
C114   H197    1.081   .     S
C114   C120    1.384   1_556 S
C115   H208    1.082   .     S
C115   C118    1.384   1_554 S
C116   H218    1.082   .     S
C116   C113    1.384   1_556 S
C117   H219    1.081   .     S
C117   C112    1.384   1_554 S
C118   H220    1.081   .     S
C118   C115    1.384   1_556 S
C119   C895    1.409   1_545 S
C120   H221    1.082   .     S
C120   C114    1.384   1_554 S
C121   O418    1.277   .     A
C121   O1262   1.277   1_545 S
C122   O1202   1.276   1_545 A
C122   O385    1.276   .     S
C123   O396    1.276   .     A
C123   O769    1.276   1_455 S
C124   O851    1.277   1_455 A
C124   O333    1.277   .     S
C125   O334    1.277   .     A
C125   O338    1.277   .     A
C126   O335    1.276   .     S
C126   O339    1.276   .     S
C127   O340    1.276   .     A
C127   O336    1.276   .     A
C128   O337    1.277   .     A
C128   O342    1.277   .     A
C129   O343    1.281   .     A
C129   O371    1.281   .     A
C130   C523    1.409   .     S
C130   C626    1.409   .     S
C131   O372    1.281   .     A
C131   O344    1.281   .     A
C132   O369    1.282   .     A
C132   O345    1.282   .     A
C133   O370    1.281   .     A
C133   O346    1.281   .     A
C134   O347    1.281   .     A
C134   O376    1.281   .     A
C135   O348    1.281   .     A
C135   O377    1.281   .     A
C136   O349    1.282   .     A
C136   O373    1.282   .     A
C137   O350    1.281   .     A
C137   O375    1.281   .     A
C138   O362    1.282   .     A
C138   O351    1.282   .     A
C139   O353    1.281   .     A
C139   O364    1.281   .     A
C140   O354    1.281   .     A
C140   O360    1.281   .     A
C141   C534    1.410   .     A
C141   C183    1.410   .     A
C141   C528    1.492   .     S
C142   O361    1.281   .     A
C142   O355    1.281   .     A
C143   O367    1.282   .     A
C143   O356    1.282   .     A
C144   O357    1.281   .     A
C144   O368    1.281   .     A
C145   O365    1.281   .     A
C145   O358    1.281   .     A
C146   O366    1.281   .     A
C146   O359    1.281   .     A
C147   C164    1.396   .     A
C147   O378    1.383   .     S
C148   C162    1.396   .     A
C148   O379    1.385   .     S
C149   O380    1.386   .     S
C149   C161    1.400   .     A
C150   O381    1.386   .     S
C150   C160    1.400   .     A
C151   C159    1.396   .     A
C151   O382    1.384   .     S
C152   C184    1.410   .     A
C152   C984    1.410   .     S
C152   C973    1.492   .     S
C153   C158    1.396   .     A
C153   O383    1.385   .     S
C154   C157    1.400   .     A
C154   O384    1.386   .     S
C155   C156    1.400   .     A
C155   O386    1.386   .     S
C156   O387    1.386   .     S
C157   O388    1.386   .     S
C158   O389    1.383   .     S
C159   O390    1.385   .     S
C160   O391    1.386   .     S
C161   O392    1.386   .     S
C162   O393    1.383   .     S
C163   C986    1.409   .     A
C163   C891    1.409   .     S
C164   O394    1.385   .     S
C165   O395    1.383   .     S
C165   C181    1.396   .     A
C166   C180    1.396   .     A
C166   O397    1.385   .     S
C167   O398    1.386   .     S
C167   C179    1.400   .     A
C168   O399    1.386   .     S
C168   C178    1.400   .     A
C169   O400    1.383   .     S
C169   C177    1.396   .     A
C170   C176    1.396   .     A
C170   O401    1.385   .     S
C171   O402    1.386   .     S
C171   C175    1.400   .     A
C172   C173    1.400   .     A
C172   O403    1.386   .     S
C173   O404    1.386   .     S
C175   O405    1.386   .     S
C176   O406    1.383   .     S
C177   O408    1.385   .     S
C178   O409    1.386   .     S
C179   O410    1.386   .     S
C180   O411    1.384   .     S
C181   O412    1.385   .     S
C182   C574    1.409   1_455 S
C183   C480    1.417   .     A
C184   C925    1.417   .     S
H201   O414    1.014   .     S
H202   O416    1.014   .     S
H203   O419    1.014   .     S
H204   O421    1.014   .     S
H205   O423    1.014   .     S
H206   O425    1.014   .     S
H207   O427    1.014   .     S
H209   O315    1.014   .     S
H210   O317    1.014   .     S
H211   O319    1.014   .     S
H212   O321    1.014   .     S
H213   O323    1.014   .     S
H214   O326    1.014   .     S
H215   O328    1.014   .     S
H216   O330    1.014   .     S
H217   O332    1.014   .     S
O313   Zn432   1.949   .     S
O313   Zn429   1.949   .     S
O313   Zn1324  1.949   1_545 S
O313   Zn440   1.949   .     S
O314   Zn431   1.947   .     S
O314   C1010   1.276   .     A
O325   Zn434   1.947   .     S
O325   C567    1.276   .     S
O333   Zn433   1.947   .     S
O334   Zn443   1.947   .     S
O335   Zn442   1.947   .     S
O336   Zn437   1.947   .     S
O337   Zn429   1.947   .     S
O338   Zn439   1.947   .     S
O339   Zn438   1.947   .     S
O340   Zn441   1.947   .     S
O341   Zn435   1.949   .     S
O341   Zn441   1.949   .     S
O341   Zn437   1.949   .     S
O341   Zn1319  1.949   1_545 S
O342   Zn440   1.947   .     S
O343   Zn432   1.931   .     S
O344   Zn431   1.931   .     S
O345   Zn434   1.946   .     S
O346   Zn433   1.946   .     S
O347   Zn436   1.931   .     S
O348   Zn435   1.931   .     S
O349   Zn430   1.947   .     S
O350   Zn444   1.947   .     S
O351   Zn431   1.947   .     S
O352   Zn878   1.949   1_455 S
O352   Zn442   1.949   .     S
O352   Zn430   1.949   .     S
O352   Zn438   1.949   .     S
O353   Zn432   1.947   .     S
O354   Zn444   1.931   .     S
O355   Zn430   1.931   .     S
O356   Zn435   1.946   .     S
O357   Zn436   1.946   .     S
O358   Zn433   1.931   .     S
O359   Zn434   1.931   .     S
O360   Zn883   1.931   .     S
O361   Zn438   1.931   .     S
O362   Zn1329  1.946   .     S
O363   Zn443   1.949   .     S
O363   Zn439   1.949   .     S
O363   Zn888   1.949   1_455 S
O363   Zn433   1.949   .     S
O364   Zn440   1.946   .     S
O365   Zn443   1.931   .     S
O366   Zn886   1.931   .     S
O367   Zn437   1.947   .     S
O368   Zn1317  1.947   .     S
O369   Zn882   1.947   .     S
O370   Zn439   1.947   .     S
O371   Zn429   1.931   .     S
O372   Zn1325  1.931   .     S
O373   Zn442   1.946   .     S
O374   Zn436   1.947   .     S
O374   C1009   1.277   .     S
O375   Zn887   1.946   .     S
O376   Zn1328  1.931   .     S
O377   Zn441   1.931   .     S
O385   Zn435   1.947   .     S
O396   Zn430   1.947   .     S
O407   C568    1.277   .     A
O407   Zn444   1.947   .     S
O413   C522    1.223   .     S
O415   C524    1.223   1_455 S
O417   C969    1.223   1_545 S
O418   Zn432   1.947   .     S
O420   C970    1.223   .     S
O422   C527    1.223   1_455 S
O424   C528    1.223   .     S
O426   C973    1.223   .     S
O428   C974    1.223   1_545 S
Zn429  O1256   1.947   1_545 S
Zn431  O1229   1.949   .     S
Zn434  O796    1.949   .     S
Zn436  O1201   1.949   .     S
Zn437  O1260   1.931   1_545 S
Zn438  O813    1.947   1_455 S
Zn439  O804    1.931   1_455 S
Zn440  O1264   1.931   1_545 S
Zn441  O1250   1.946   1_545 S
Zn442  O810    1.931   1_455 S
Zn443  O819    1.946   1_455 S
Zn444  O807    1.949   .     S
C445   C523    1.409   .     A
C445   C522    1.490   .     S
C446   C458    1.410   .     A
C446   C532    1.492   .     S
C446   C1432   1.410   .     S
C447   C550    1.404   .     A
C447   C482    1.417   .     S
C447   C1495   1.409   1_545 S
C448   C551    1.404   .     A
C448   C1      1.409   1_655 S
C448   C34     1.417   1_655 S
C449   C541    1.410   .     A
C449   C553    1.406   .     A
C449   C480    1.417   .     S
C450   C554    1.406   .     A
C450   C481    1.417   .     A
C450   C552    1.410   .     A
C451   C555    1.404   .     A
C451   C1370   1.417   .     A
C451   C1451   1.409   .     S
C452   C479    1.409   .     A
C452   C556    1.404   .     A
C452   C1371   1.417   .     A
C453   C490    1.410   .     A
C453   C557    1.406   .     A
C453   C484    1.417   .     A
C454   C558    1.406   .     A
C454   C501    1.410   .     A
C454   C485    1.417   .     S
C455   C559    1.404   .     A
C455   C512    1.409   .     A
C455   C42     1.417   1_655 S
C456   C618    1.409   .     A
C456   C560    1.404   .     A
C456   C483    1.417   .     S
C457   C459    1.410   .     A
C457   C101    1.410   1_655 A
C457   C533    1.492   .     S
C458   C561    1.406   .     A
C458   C1372   1.417   .     S
C459   C562    1.406   .     A
C459   C41     1.417   1_655 A
C460   C564    1.404   .     A
C460   C468    1.409   .     A
C460   C486    1.417   .     A
C461   C608    1.412   .     A
C461   C610    1.412   .     A
C461   C580    1.465   .     S
C462   C581    1.462   .     S
C462   C609    1.409   .     A
C462   C606    1.409   .     A
C463   C573    1.451   .     S
C463   C605    1.408   .     A
C463   C612    1.408   .     A
C464   C575    1.452   .     S
C464   C604    1.408   .     A
C464   C611    1.408   .     A
C465   C614    1.412   .     A
C465   C603    1.412   .     A
C465   C576    1.465   .     S
C466   C577    1.462   .     S
C466   C602    1.409   .     A
C466   C613    1.409   .     A
C467   C578    1.451   .     S
C467   C601    1.408   .     A
C467   C616    1.408   .     A
C468   C546    1.409   .     A
C468   C535    1.490   .     S
C469   C615    1.408   .     A
C469   C600    1.408   .     A
C469   C579    1.452   .     S
C470   C589    1.451   .     S
C470   C599    1.408   .     A
C470   C619    1.408   .     A
C471   C598    1.408   .     A
C471   C617    1.408   .     A
C471   C590    1.452   .     S
C472   C597    1.412   .     A
C472   C621    1.412   .     A
C472   C582    1.465   .     S
C473   C595    1.409   .     A
C473   C620    1.409   .     A
C473   C583    1.462   .     S
C474   C594    1.408   .     A
C474   C584    1.451   .     S
C474   C623    1.408   .     A
C475   C622    1.408   .     A
C475   C593    1.408   .     A
C475   C586    1.452   .     S
C476   C625    1.412   .     A
C476   C592    1.412   .     A
C476   C587    1.465   .     S
C477   C591    1.409   .     A
C477   C588    1.462   .     S
C477   C624    1.409   .     A
C478   C626    1.417   .     A
C478   C480    1.418   .     S
C479   C536    1.490   .     S
C479   C1431   1.409   .     A
C481   C482    1.418   .     S
C481   C1516   1.417   1_545 S
C482   C1339   1.417   1_545 A
C483   C1340   1.417   1_545 A
C483   C484    1.418   1_556 S
C484   C1346   1.417   1_545 S
C484   C483    1.418   1_554 S
C485   C486    1.418   1_556 S
C486   C485    1.418   1_554 S
C487   H666    1.113   .     S
C487   H667    1.109   .     S
C487   O822    1.409   .     S
C487   H668    1.113   .     S
C488   H671    1.109   .     S
C488   H670    1.114   .     S
C488   O823    1.412   .     S
C488   H672    1.111   .     S
C489   O824    1.416   .     S
C489   H674    1.117   .     S
C489   H673    1.109   .     S
C489   H675    1.108   .     S
C490   C544    1.410   .     A
C490   C537    1.492   .     S
C491   H677    1.109   .     S
C491   O825    1.416   .     S
C491   H676    1.117   .     S
C491   H678    1.109   .     S
C492   H681    1.109   .     S
C492   O826    1.409   .     S
C492   H682    1.113   .     S
C492   H679    1.113   .     S
C493   H685    1.112   .     S
C493   O827    1.412   .     S
C493   H683    1.114   .     S
C493   H684    1.109   .     S
C494   O828    1.416   .     S
C494   H687    1.117   .     S
C494   H688    1.108   .     S
C494   H686    1.109   .     S
C495   H690    1.109   .     S
C495   O830    1.416   .     S
C495   H689    1.117   .     S
C495   H692    1.109   .     S
C496   O831    1.416   .     S
C496   H694    1.117   .     S
C496   H693    1.109   .     S
C496   H695    1.108   .     S
C497   H698    1.109   .     S
C497   O832    1.416   .     S
C497   H697    1.109   .     S
C497   H696    1.117   .     S
C498   H700    1.109   .     S
C498   O833    1.409   .     S
C498   H701    1.113   .     S
C498   H699    1.113   .     S
C499   H704    1.109   .     S
C499   O834    1.412   .     S
C499   H703    1.114   .     S
C499   H705    1.111   .     S
C500   H707    1.117   .     S
C500   O835    1.416   .     S
C500   H706    1.109   .     S
C500   H708    1.108   .     S
C501   C538    1.492   .     S
C501   C545    1.410   .     S
C502   H711    1.109   .     S
C502   H710    1.109   .     S
C502   H709    1.117   .     S
C502   O836    1.416   .     S
C503   O837    1.409   .     S
C503   H714    1.109   .     S
C503   H712    1.113   .     S
C503   H715    1.113   .     S
C504   H718    1.111   .     S
C504   O838    1.412   .     S
C504   H717    1.109   .     S
C504   H716    1.114   .     S
C505   O839    1.409   .     S
C505   H721    1.113   .     S
C505   H720    1.109   .     S
C505   H719    1.113   .     S
C506   H725    1.111   .     S
C506   H723    1.109   .     S
C506   O841    1.412   .     S
C506   H722    1.114   .     S
C507   H728    1.108   .     S
C507   H727    1.117   .     S
C507   O842    1.416   .     S
C507   H726    1.109   .     S
C508   O843    1.416   .     S
C508   H729    1.117   .     S
C508   H731    1.109   .     S
C508   H730    1.109   .     S
C509   H734    1.113   .     S
C509   O844    1.409   .     S
C509   H733    1.109   .     S
C509   H732    1.113   .     S
C510   H738    1.111   .     S
C510   O845    1.412   .     S
C510   H736    1.114   .     S
C510   H737    1.109   .     S
C511   O846    1.416   .     S
C511   H741    1.108   .     S
C511   H739    1.109   .     S
C511   H740    1.117   .     S
C512   C539    1.490   .     S
C512   C102    1.409   1_655 S
C513   H742    1.117   .     S
C513   O847    1.416   .     S
C513   H744    1.109   .     S
C513   H743    1.109   .     S
C514   H747    1.117   .     S
C514   H745    1.109   .     S
C514   O848    1.416   .     S
C514   H748    1.108   .     S
C515   O849    1.416   .     S
C515   H750    1.109   .     S
C515   H751    1.109   .     S
C515   H749    1.117   .     S
C516   O850    1.409   .     S
C516   H752    1.113   .     S
C516   H754    1.113   .     S
C516   H753    1.109   .     S
C517   O852    1.412   .     S
C517   H756    1.109   .     S
C517   H631    1.112   .     S
C517   H755    1.114   .     S
C518   H634    1.108   .     S
C518   O853    1.416   .     S
C518   H632    1.109   .     S
C518   H633    1.117   .     S
C519   O854    1.416   .     S
C519   H635    1.117   .     S
C519   H637    1.109   .     S
C519   H636    1.109   .     S
C520   H638    1.113   .     S
C520   O855    1.409   .     S
C520   H640    1.113   .     S
C520   H639    1.109   .     S
C521   H642    1.114   .     S
C521   H643    1.109   .     S
C521   O856    1.412   .     S
C521   H644    1.112   .     S
C522   O858    1.398   .     S
C523   C567    1.451   .     S
C524   O860    1.398   .     S
C524   C97     1.492   1_655 S
C524   O415    1.223   1_655 S
C525   O863    1.398   .     S
C525   C1440   1.492   .     S
C525   O1749   1.223   .     S
C526   C563    1.490   .     S
C526   O865    1.398   .     S
C526   O1752   1.223   1_545 S
C527   C574    1.490   .     S
C527   O867    1.398   .     S
C527   O422    1.223   1_655 S
C528   O869    1.398   .     S
C529   O871    1.398   .     S
C529   C1484   1.492   1_545 S
C529   O1758   1.223   1_545 S
C530   C607    1.490   .     S
C530   O759    1.398   .     S
C530   O1760   1.223   .     S
C531   C618    1.490   .     S
C531   O761    1.398   .     S
C531   O760    1.223   .     D
C532   O763    1.398   .     S
C532   O762    1.223   .     D
C533   O764    1.223   .     D
C533   O765    1.398   .     S
C534   C568    1.454   .     S
C534   C541    1.410   .     S
C535   O767    1.398   .     S
C535   O766    1.223   .     D
C536   O768    1.223   .     D
C536   O770    1.398   .     S
C537   O771    1.223   .     D
C537   O772    1.398   .     S
C538   O773    1.223   .     D
C538   O774    1.398   .     S
C539   O776    1.398   .     S
C539   O775    1.223   .     D
C540   C552    1.410   .     A
C540   C565    1.454   .     S
C540   C1484   1.410   1_545 S
C542   C566    1.451   .     S
C542   C1495   1.409   1_545 A
C542   C563    1.409   .     S
C543   C571    1.451   .     S
C543   C1367   1.409   1_545 A
C543   C618    1.409   .     S
C544   C572    1.454   .     S
C544   C1334   1.410   1_545 S
C545   C569    1.454   .     S
C546   C570    1.451   .     S
C547   H629    1.082   .     S
C547   C553    1.384   .     A
C547   C626    1.404   .     A
C548   C627    1.406   .     A
C548   C551    1.384   .     A
C548   H669    1.081   .     S
C549   C628    1.406   .     A
C549   C555    1.384   .     A
C549   H680    1.081   .     S
C550   H691    1.082   .     S
C550   C554    1.384   .     A
C551   H702    1.082   .     S
C552   C1413   1.492   1_545 S
C553   H713    1.081   .     S
C554   H724    1.081   .     S
C555   H735    1.082   .     S
C556   H746    1.082   .     S
C556   C561    1.384   1_556 S
C557   H630    1.081   .     S
C557   C560    1.384   1_554 S
C558   H641    1.081   .     S
C558   C564    1.384   1_556 S
C559   H652    1.082   .     S
C559   C562    1.384   1_554 S
C560   H662    1.082   .     S
C560   C557    1.384   1_556 S
C561   H663    1.081   .     S
C561   C556    1.384   1_554 S
C562   H664    1.081   .     S
C562   C559    1.384   1_556 S
C563   C1339   1.409   1_545 S
C564   H665    1.082   .     S
C564   C558    1.384   1_554 S
C565   O862    1.277   .     A
C565   O1706   1.277   1_545 S
C566   O1646   1.276   1_545 A
C566   O829    1.276   .     S
C567   O840    1.276   .     A
C568   O777    1.277   .     S
C569   O778    1.277   .     A
C569   O782    1.277   .     A
C570   O779    1.276   .     S
C570   O783    1.276   .     S
C571   O784    1.276   .     A
C571   O780    1.276   .     A
C572   O781    1.277   .     A
C572   O786    1.277   .     A
C573   O787    1.281   .     A
C573   O815    1.281   .     A
C574   C79     1.409   1_655 S
C574   C182    1.409   1_655 S
C575   O816    1.281   .     A
C575   O788    1.281   .     A
C576   O813    1.282   .     A
C576   O789    1.282   .     A
C577   O814    1.281   .     A
C577   O790    1.281   .     A
C578   O791    1.281   .     A
C578   O820    1.281   .     A
C579   O792    1.281   .     A
C579   O821    1.281   .     A
C580   O793    1.282   .     A
C580   O817    1.282   .     A
C581   O794    1.281   .     A
C581   O819    1.281   .     A
C582   O806    1.282   .     A
C582   O795    1.282   .     A
C583   O797    1.281   .     A
C583   O808    1.281   .     A
C584   O798    1.281   .     A
C584   O804    1.281   .     A
C585   C90     1.410   1_655 A
C585   C627    1.410   .     A
C585   C84     1.492   1_655 S
C586   O805    1.281   .     A
C586   O799    1.281   .     A
C587   O811    1.282   .     A
C587   O800    1.282   .     A
C588   O801    1.281   .     A
C588   O812    1.281   .     A
C589   O809    1.281   .     A
C589   O802    1.281   .     A
C590   O810    1.281   .     A
C590   O803    1.281   .     A
C591   C608    1.396   .     A
C591   O822    1.383   .     S
C592   C606    1.396   .     A
C592   O823    1.385   .     S
C593   O824    1.386   .     S
C593   C605    1.400   .     A
C594   O825    1.386   .     S
C594   C604    1.400   .     A
C595   C603    1.396   .     A
C595   O826    1.384   .     S
C596   C628    1.410   .     A
C596   C1428   1.410   .     S
C596   C1417   1.492   .     S
C597   C602    1.396   .     A
C597   O827    1.385   .     S
C598   C601    1.400   .     A
C598   O828    1.386   .     S
C599   C600    1.400   .     A
C599   O830    1.386   .     S
C600   O831    1.386   .     S
C601   O832    1.386   .     S
C602   O833    1.383   .     S
C603   O834    1.385   .     S
C604   O835    1.386   .     S
C605   O836    1.386   .     S
C606   O837    1.383   .     S
C607   C1430   1.409   .     A
C607   C1335   1.409   .     S
C608   O838    1.385   .     S
C609   O839    1.383   .     S
C609   C625    1.396   .     A
C610   C624    1.396   .     A
C610   O841    1.385   .     S
C611   O842    1.386   .     S
C611   C623    1.400   .     A
C612   O843    1.386   .     S
C612   C622    1.400   .     A
C613   O844    1.383   .     S
C613   C621    1.396   .     A
C614   C620    1.396   .     A
C614   O845    1.385   .     S
C615   O846    1.386   .     S
C615   C619    1.400   .     A
C616   C617    1.400   .     A
C616   O847    1.386   .     S
C617   O848    1.386   .     S
C619   O849    1.386   .     S
C620   O850    1.383   .     S
C621   O852    1.385   .     S
C622   O853    1.386   .     S
C623   O854    1.386   .     S
C624   O855    1.384   .     S
C625   O856    1.385   .     S
C627   C36     1.417   1_655 A
C628   C1369   1.417   .     S
H645   O858    1.014   .     S
H646   O860    1.014   .     S
H647   O863    1.014   .     S
H648   O865    1.014   .     S
H649   O867    1.014   .     S
H650   O869    1.014   .     S
H651   O871    1.014   .     S
H653   O759    1.014   .     S
H654   O761    1.014   .     S
H655   O763    1.014   .     S
H656   O765    1.014   .     S
H657   O767    1.014   .     S
H658   O770    1.014   .     S
H659   O772    1.014   .     S
H660   O774    1.014   .     S
H661   O776    1.014   .     S
O757   Zn876   1.949   .     S
O757   Zn873   1.949   .     S
O757   Zn1768  1.949   1_545 S
O757   Zn884   1.949   .     S
O758   Zn875   1.947   .     S
O758   C1454   1.276   .     A
O769   Zn878   1.947   .     S
O769   C123    1.276   1_655 S
O777   Zn877   1.947   .     S
O778   Zn887   1.947   .     S
O779   Zn886   1.947   .     S
O780   Zn881   1.947   .     S
O781   Zn873   1.947   .     S
O782   Zn883   1.947   .     S
O783   Zn882   1.947   .     S
O784   Zn885   1.947   .     S
O785   Zn879   1.949   .     S
O785   Zn885   1.949   .     S
O785   Zn881   1.949   .     S
O785   Zn1763  1.949   1_545 S
O786   Zn884   1.947   .     S
O787   Zn876   1.931   .     S
O788   Zn875   1.931   .     S
O789   Zn878   1.946   .     S
O790   Zn877   1.946   .     S
O791   Zn880   1.931   .     S
O792   Zn879   1.931   .     S
O793   Zn874   1.947   .     S
O794   Zn888   1.947   .     S
O795   Zn875   1.947   .     S
O796   Zn886   1.949   .     S
O796   Zn874   1.949   .     S
O796   Zn882   1.949   .     S
O797   Zn876   1.947   .     S
O798   Zn888   1.931   .     S
O799   Zn874   1.931   .     S
O800   Zn879   1.946   .     S
O801   Zn880   1.946   .     S
O802   Zn877   1.931   .     S
O803   Zn878   1.931   .     S
O804   Zn439   1.931   1_655 S
O805   Zn882   1.931   .     S
O806   Zn1773  1.946   .     S
O807   Zn887   1.949   .     S
O807   Zn883   1.949   .     S
O807   Zn877   1.949   .     S
O808   Zn884   1.946   .     S
O809   Zn887   1.931   .     S
O810   Zn442   1.931   1_655 S
O811   Zn881   1.947   .     S
O812   Zn1761  1.947   .     S
O813   Zn438   1.947   1_655 S
O814   Zn883   1.947   .     S
O815   Zn873   1.931   .     S
O816   Zn1769  1.931   .     S
O817   Zn886   1.946   .     S
O818   Zn880   1.947   .     S
O818   C1453   1.277   .     S
O819   Zn443   1.946   1_655 S
O820   Zn1772  1.931   .     S
O821   Zn885   1.931   .     S
O829   Zn879   1.947   .     S
O840   Zn874   1.947   .     S
O851   C124    1.277   1_655 A
O851   Zn888   1.947   .     S
O857   C78     1.223   1_655 S
O861   C1413   1.223   1_545 S
O862   Zn876   1.947   .     S
O864   C1414   1.223   .     S
O868   C84     1.223   1_655 S
O870   C1417   1.223   .     S
O872   C1418   1.223   1_545 S
Zn873  O1700   1.947   1_545 S
Zn875  O1673   1.949   .     S
Zn878  O352    1.949   1_655 S
Zn880  O1645   1.949   .     S
Zn881  O1704   1.931   1_545 S
Zn884  O1708   1.931   1_545 S
Zn885  O1694   1.946   1_545 S
Zn888  O363    1.949   1_655 S
C889   C967    1.409   .     A
C889   C966    1.490   .     S
C889   C1336   1.409   1_455 S
C890   C902    1.410   .     A
C890   C976    1.492   .     S
C890   C100    1.410   1_565 S
C891   C994    1.404   .     A
C891   C926    1.417   .     S
C892   C995    1.404   .     A
C892   C1333   1.409   .     S
C892   C1366   1.417   .     S
C893   C985    1.410   .     A
C893   C997    1.406   .     A
C893   C924    1.417   .     S
C894   C998    1.406   .     A
C894   C925    1.417   .     A
C894   C996    1.410   .     A
C895   C999    1.404   .     A
C895   C38     1.417   1_565 A
C895   C119    1.409   1_565 S
C896   C923    1.409   .     A
C896   C1000   1.404   .     A
C896   C39     1.417   1_565 A
C897   C934    1.410   .     A
C897   C1001   1.406   .     A
C897   C928    1.417   .     A
C898   C1002   1.406   .     A
C898   C945    1.410   .     A
C898   C929    1.417   .     S
C899   C1003   1.404   .     A
C899   C956    1.409   .     A
C899   C1374   1.417   .     S
C900   C1062   1.409   .     A
C900   C1004   1.404   .     A
C900   C927    1.417   .     S
C901   C903    1.410   .     A
C901   C1433   1.410   .     A
C901   C977    1.492   .     S
C902   C1005   1.406   .     A
C902   C40     1.417   1_565 S
C903   C1006   1.406   .     A
C903   C1373   1.417   .     A
C904   C1008   1.404   .     A
C904   C912    1.409   .     A
C904   C930    1.417   .     A
C905   C1052   1.412   .     A
C905   C1054   1.412   .     A
C905   C1024   1.465   .     S
C906   C1025   1.462   .     S
C906   C1053   1.409   .     A
C906   C1050   1.409   .     A
C907   C1017   1.451   .     S
C907   C1049   1.408   .     A
C907   C1056   1.408   .     A
C908   C1019   1.452   .     S
C908   C1048   1.408   .     A
C908   C1055   1.408   .     A
C909   C1058   1.412   .     A
C909   C1047   1.412   .     A
C909   C1020   1.465   .     S
C910   C1021   1.462   .     S
C910   C1046   1.409   .     A
C910   C1057   1.409   .     A
C911   C1022   1.451   .     S
C911   C1045   1.408   .     A
C911   C1060   1.408   .     A
C912   C990    1.409   .     A
C912   C979    1.490   .     S
C913   C1059   1.408   .     A
C913   C1044   1.408   .     A
C913   C1023   1.452   .     S
C914   C1033   1.451   .     S
C914   C1043   1.408   .     A
C914   C1063   1.408   .     A
C915   C1042   1.408   .     A
C915   C1061   1.408   .     A
C915   C1034   1.452   .     S
C916   C1041   1.412   .     A
C916   C1065   1.412   .     A
C916   C1026   1.465   .     S
C917   C1039   1.409   .     A
C917   C1064   1.409   .     A
C917   C1027   1.462   .     S
C918   C1038   1.408   .     A
C918   C1028   1.451   .     S
C918   C1067   1.408   .     A
C919   C1066   1.408   .     A
C919   C1037   1.408   .     A
C919   C1030   1.452   .     S
C920   C1069   1.412   .     A
C920   C1036   1.412   .     A
C920   C1031   1.465   .     S
C921   C1035   1.409   .     A
C921   C1032   1.462   .     S
C921   C1068   1.409   .     A
C922   C1070   1.417   .     A
C922   C1336   1.417   1_455 S
C922   C924    1.418   .     S
C923   C980    1.490   .     S
C923   C99     1.409   1_565 A
C924   C1515   1.417   1_455 A
C925   C926    1.418   .     S
C927   C928    1.418   1_556 S
C928   C927    1.418   1_554 S
C929   C1347   1.417   1_455 A
C929   C930    1.418   1_556 S
C930   C1343   1.417   1_455 S
C930   C929    1.418   1_554 S
C931   H1110   1.113   .     S
C931   H1111   1.109   .     S
C931   O1266   1.409   .     S
C931   H1112   1.113   .     S
C932   H1115   1.109   .     S
C932   H1114   1.114   .     S
C932   O1267   1.412   .     S
C932   H1116   1.111   .     S
C933   O1268   1.416   .     S
C933   H1118   1.117   .     S
C933   H1117   1.109   .     S
C933   H1119   1.108   .     S
C934   C988    1.410   .     A
C934   C981    1.492   .     S
C935   H1121   1.109   .     S
C935   O1269   1.416   .     S
C935   H1120   1.117   .     S
C935   H1122   1.109   .     S
C936   H1125   1.109   .     S
C936   O1270   1.409   .     S
C936   H1126   1.113   .     S
C936   H1123   1.113   .     S
C937   H1129   1.112   .     S
C937   O1271   1.412   .     S
C937   H1127   1.114   .     S
C937   H1128   1.109   .     S
C938   O1272   1.416   .     S
C938   H1131   1.117   .     S
C938   H1132   1.108   .     S
C938   H1130   1.109   .     S
C939   H1134   1.109   .     S
C939   O1274   1.416   .     S
C939   H1133   1.117   .     S
C939   H1136   1.109   .     S
C940   O1275   1.416   .     S
C940   H1138   1.117   .     S
C940   H1137   1.109   .     S
C940   H1139   1.108   .     S
C941   H1142   1.109   .     S
C941   O1276   1.416   .     S
C941   H1141   1.109   .     S
C941   H1140   1.117   .     S
C942   H1144   1.109   .     S
C942   O1277   1.409   .     S
C942   H1145   1.113   .     S
C942   H1143   1.113   .     S
C943   H1148   1.109   .     S
C943   O1278   1.412   .     S
C943   H1147   1.114   .     S
C943   H1149   1.111   .     S
C944   H1151   1.117   .     S
C944   O1279   1.416   .     S
C944   H1150   1.109   .     S
C944   H1152   1.108   .     S
C945   C982    1.492   .     S
C945   C989    1.410   .     S
C946   H1155   1.109   .     S
C946   H1154   1.109   .     S
C946   H1153   1.117   .     S
C946   O1280   1.416   .     S
C947   O1281   1.409   .     S
C947   H1158   1.109   .     S
C947   H1156   1.113   .     S
C947   H1159   1.113   .     S
C948   H1162   1.111   .     S
C948   O1282   1.412   .     S
C948   H1161   1.109   .     S
C948   H1160   1.114   .     S
C949   O1283   1.409   .     S
C949   H1165   1.113   .     S
C949   H1164   1.109   .     S
C949   H1163   1.113   .     S
C950   H1169   1.111   .     S
C950   H1167   1.109   .     S
C950   O1285   1.412   .     S
C950   H1166   1.114   .     S
C951   H1172   1.108   .     S
C951   H1171   1.117   .     S
C951   O1286   1.416   .     S
C951   H1170   1.109   .     S
C952   O1287   1.416   .     S
C952   H1173   1.117   .     S
C952   H1175   1.109   .     S
C952   H1174   1.109   .     S
C953   H1178   1.113   .     S
C953   O1288   1.409   .     S
C953   H1177   1.109   .     S
C953   H1176   1.113   .     S
C954   H1182   1.111   .     S
C954   O1289   1.412   .     S
C954   H1180   1.114   .     S
C954   H1181   1.109   .     S
C955   O1290   1.416   .     S
C955   H1185   1.108   .     S
C955   H1183   1.109   .     S
C955   H1184   1.117   .     S
C956   C983    1.490   .     S
C956   C1434   1.409   .     S
C957   H1186   1.117   .     S
C957   O1291   1.416   .     S
C957   H1188   1.109   .     S
C957   H1187   1.109   .     S
C958   H1191   1.117   .     S
C958   H1189   1.109   .     S
C958   O1292   1.416   .     S
C958   H1192   1.108   .     S
C959   O1293   1.416   .     S
C959   H1194   1.109   .     S
C959   H1195   1.109   .     S
C959   H1193   1.117   .     S
C960   O1294   1.409   .     S
C960   H1196   1.113   .     S
C960   H1198   1.113   .     S
C960   H1197   1.109   .     S
C961   O1296   1.412   .     S
C961   H1200   1.109   .     S
C961   H1075   1.112   .     S
C961   H1199   1.114   .     S
C962   H1078   1.108   .     S
C962   O1297   1.416   .     S
C962   H1076   1.109   .     S
C962   H1077   1.117   .     S
C963   O1298   1.416   .     S
C963   H1079   1.117   .     S
C963   H1081   1.109   .     S
C963   H1080   1.109   .     S
C964   H1082   1.113   .     S
C964   O1299   1.409   .     S
C964   H1084   1.113   .     S
C964   H1083   1.109   .     S
C965   H1086   1.114   .     S
C965   H1087   1.109   .     S
C965   O1300   1.412   .     S
C965   H1088   1.112   .     S
C966   O1302   1.398   .     S
C966   O1745   1.223   1_455 S
C967   C1011   1.451   .     S
C967   C1462   1.409   1_455 S
C968   O1304   1.398   .     S
C968   C1429   1.492   .     S
C968   O1747   1.223   .     S
C969   O1307   1.398   .     S
C969   C108    1.492   1_565 S
C969   O417    1.223   1_565 S
C970   C1007   1.490   .     S
C970   O1309   1.398   .     S
C971   C1018   1.490   .     S
C971   O1311   1.398   .     S
C971   O1754   1.223   .     S
C972   O1313   1.398   .     S
C972   C1473   1.492   1_455 S
C972   O1756   1.223   1_455 S
C973   O1315   1.398   .     S
C974   C1051   1.490   .     S
C974   O1203   1.398   .     S
C974   O428    1.223   1_565 S
C975   C1062   1.490   .     S
C975   O1205   1.398   .     S
C975   O1204   1.223   .     D
C976   O1207   1.398   .     S
C976   O1206   1.223   .     D
C977   O1208   1.223   .     D
C977   O1209   1.398   .     S
C978   C1473   1.410   1_455 A
C978   C1012   1.454   .     S
C978   C985    1.410   .     S
C979   O1211   1.398   .     S
C979   O1210   1.223   .     D
C980   O1212   1.223   .     D
C980   O1214   1.398   .     S
C981   O1215   1.223   .     D
C981   O1216   1.398   .     S
C982   O1217   1.223   .     D
C982   O1218   1.398   .     S
C983   O1220   1.398   .     S
C983   O1219   1.223   .     D
C984   C996    1.410   .     A
C984   C1009   1.454   .     S
C985   C1412   1.492   1_455 S
C986   C1010   1.451   .     S
C986   C1007   1.409   .     S
C987   C1015   1.451   .     S
C987   C1062   1.409   .     S
C988   C1016   1.454   .     S
C989   C1013   1.454   .     S
C989   C1345   1.410   1_455 A
C990   C1014   1.451   .     S
C990   C1400   1.409   1_455 S
C991   H1073   1.082   .     S
C991   C997    1.384   .     A
C991   C1070   1.404   .     A
C992   C1071   1.406   .     A
C992   C995    1.384   .     A
C992   H1113   1.081   .     S
C993   C1072   1.406   .     A
C993   C999    1.384   .     A
C993   H1124   1.081   .     S
C994   H1135   1.082   .     S
C994   C998    1.384   .     A
C995   H1146   1.082   .     S
C997   H1157   1.081   .     S
C998   H1168   1.081   .     S
C999   H1179   1.082   .     S
C1000  H1190   1.082   .     S
C1000  C1005   1.384   1_556 S
C1001  H1074   1.081   .     S
C1001  C1004   1.384   1_554 S
C1002  H1085   1.081   .     S
C1002  C1008   1.384   1_556 S
C1003  H1096   1.082   .     S
C1003  C1006   1.384   1_554 S
C1004  H1106   1.082   .     S
C1004  C1001   1.384   1_556 S
C1005  H1107   1.081   .     S
C1005  C1000   1.384   1_554 S
C1006  H1108   1.081   .     S
C1006  C1003   1.384   1_556 S
C1008  H1109   1.082   .     S
C1008  C1002   1.384   1_554 S
C1009  O1306   1.277   .     A
C1010  O1273   1.276   .     S
C1011  O1284   1.276   .     A
C1011  O1657   1.276   1_455 S
C1012  O1739   1.277   1_455 A
C1012  O1221   1.277   .     S
C1013  O1222   1.277   .     A
C1013  O1226   1.277   .     A
C1014  O1223   1.276   .     S
C1014  O1227   1.276   .     S
C1015  O1228   1.276   .     A
C1015  O1224   1.276   .     A
C1016  O1225   1.277   .     A
C1016  O1230   1.277   .     A
C1017  O1231   1.281   .     A
C1017  O1259   1.281   .     A
C1018  C1411   1.409   .     S
C1018  C1514   1.409   .     S
C1019  O1260   1.281   .     A
C1019  O1232   1.281   .     A
C1020  O1257   1.282   .     A
C1020  O1233   1.282   .     A
C1021  O1258   1.281   .     A
C1021  O1234   1.281   .     A
C1022  O1235   1.281   .     A
C1022  O1264   1.281   .     A
C1023  O1236   1.281   .     A
C1023  O1265   1.281   .     A
C1024  O1237   1.282   .     A
C1024  O1261   1.282   .     A
C1025  O1238   1.281   .     A
C1025  O1263   1.281   .     A
C1026  O1250   1.282   .     A
C1026  O1239   1.282   .     A
C1027  O1241   1.281   .     A
C1027  O1252   1.281   .     A
C1028  O1242   1.281   .     A
C1028  O1248   1.281   .     A
C1029  C1422   1.410   .     A
C1029  C1071   1.410   .     A
C1029  C1416   1.492   .     S
C1030  O1249   1.281   .     A
C1030  O1243   1.281   .     A
C1031  O1255   1.282   .     A
C1031  O1244   1.282   .     A
C1032  O1245   1.281   .     A
C1032  O1256   1.281   .     A
C1033  O1253   1.281   .     A
C1033  O1246   1.281   .     A
C1034  O1254   1.281   .     A
C1034  O1247   1.281   .     A
C1035  C1052   1.396   .     A
C1035  O1266   1.383   .     S
C1036  C1050   1.396   .     A
C1036  O1267   1.385   .     S
C1037  O1268   1.386   .     S
C1037  C1049   1.400   .     A
C1038  O1269   1.386   .     S
C1038  C1048   1.400   .     A
C1039  C1047   1.396   .     A
C1039  O1270   1.384   .     S
C1040  C1072   1.410   .     A
C1040  C96     1.410   1_565 S
C1040  C85     1.492   1_565 S
C1041  C1046   1.396   .     A
C1041  O1271   1.385   .     S
C1042  C1045   1.400   .     A
C1042  O1272   1.386   .     S
C1043  C1044   1.400   .     A
C1043  O1274   1.386   .     S
C1044  O1275   1.386   .     S
C1045  O1276   1.386   .     S
C1046  O1277   1.383   .     S
C1047  O1278   1.385   .     S
C1048  O1279   1.386   .     S
C1049  O1280   1.386   .     S
C1050  O1281   1.383   .     S
C1051  C98     1.409   1_565 A
C1051  C3      1.409   1_565 S
C1052  O1282   1.385   .     S
C1053  O1283   1.383   .     S
C1053  C1069   1.396   .     A
C1054  C1068   1.396   .     A
C1054  O1285   1.385   .     S
C1055  O1286   1.386   .     S
C1055  C1067   1.400   .     A
C1056  O1287   1.386   .     S
C1056  C1066   1.400   .     A
C1057  O1288   1.383   .     S
C1057  C1065   1.396   .     A
C1058  C1064   1.396   .     A
C1058  O1289   1.385   .     S
C1059  O1290   1.386   .     S
C1059  C1063   1.400   .     A
C1060  C1061   1.400   .     A
C1060  O1291   1.386   .     S
C1061  O1292   1.386   .     S
C1063  O1293   1.386   .     S
C1064  O1294   1.383   .     S
C1065  O1296   1.385   .     S
C1066  O1297   1.386   .     S
C1067  O1298   1.386   .     S
C1068  O1299   1.384   .     S
C1069  O1300   1.385   .     S
C1070  C1462   1.409   1_455 S
C1071  C1368   1.417   .     A
C1072  C37     1.417   1_565 S
H1089  O1302   1.014   .     S
H1090  O1304   1.014   .     S
H1091  O1307   1.014   .     S
H1092  O1309   1.014   .     S
H1093  O1311   1.014   .     S
H1094  O1313   1.014   .     S
H1095  O1315   1.014   .     S
H1097  O1203   1.014   .     S
H1098  O1205   1.014   .     S
H1099  O1207   1.014   .     S
H1100  O1209   1.014   .     S
H1101  O1211   1.014   .     S
H1102  O1214   1.014   .     S
H1103  O1216   1.014   .     S
H1104  O1218   1.014   .     S
H1105  O1220   1.014   .     S
O1201  Zn1320  1.949   .     S
O1201  Zn1317  1.949   .     S
O1201  Zn1328  1.949   .     S
O1202  Zn1319  1.947   .     S
O1202  C122    1.276   1_565 A
O1213  Zn1322  1.947   .     S
O1213  C1455   1.276   .     S
O1221  Zn1321  1.947   .     S
O1222  Zn1331  1.947   .     S
O1223  Zn1330  1.947   .     S
O1224  Zn1325  1.947   .     S
O1225  Zn1317  1.947   .     S
O1226  Zn1327  1.947   .     S
O1227  Zn1326  1.947   .     S
O1228  Zn1329  1.947   .     S
O1229  Zn1323  1.949   .     S
O1229  Zn1329  1.949   .     S
O1229  Zn1325  1.949   .     S
O1230  Zn1328  1.947   .     S
O1231  Zn1320  1.931   .     S
O1232  Zn1319  1.931   .     S
O1233  Zn1322  1.946   .     S
O1234  Zn1321  1.946   .     S
O1235  Zn1324  1.931   .     S
O1236  Zn1323  1.931   .     S
O1237  Zn1318  1.947   .     S
O1238  Zn1332  1.947   .     S
O1239  Zn1319  1.947   .     S
O1240  Zn1766  1.949   1_455 S
O1240  Zn1330  1.949   .     S
O1240  Zn1318  1.949   .     S
O1240  Zn1326  1.949   .     S
O1241  Zn1320  1.947   .     S
O1242  Zn1332  1.931   .     S
O1243  Zn1318  1.931   .     S
O1244  Zn1323  1.946   .     S
O1245  Zn1324  1.946   .     S
O1246  Zn1321  1.931   .     S
O1247  Zn1322  1.931   .     S
O1248  Zn1771  1.931   .     S
O1249  Zn1326  1.931   .     S
O1250  Zn441   1.946   1_565 S
O1251  Zn1331  1.949   .     S
O1251  Zn1327  1.949   .     S
O1251  Zn1776  1.949   1_455 S
O1251  Zn1321  1.949   .     S
O1252  Zn1328  1.946   .     S
O1253  Zn1331  1.931   .     S
O1254  Zn1774  1.931   .     S
O1255  Zn1325  1.947   .     S
O1256  Zn429   1.947   1_565 S
O1257  Zn1770  1.947   .     S
O1258  Zn1327  1.947   .     S
O1259  Zn1317  1.931   .     S
O1260  Zn437   1.931   1_565 S
O1261  Zn1330  1.946   .     S
O1262  Zn1324  1.947   .     S
O1262  C121    1.277   1_565 S
O1263  Zn1775  1.946   .     S
O1264  Zn440   1.931   1_565 S
O1265  Zn1329  1.931   .     S
O1273  Zn1323  1.947   .     S
O1284  Zn1318  1.947   .     S
O1295  C1456   1.277   .     A
O1295  Zn1332  1.947   .     S
O1301  C1410   1.223   .     S
O1303  C1412   1.223   1_455 S
O1306  Zn1320  1.947   .     S
O1308  C82     1.223   1_565 S
O1310  C1415   1.223   1_455 S
O1312  C1416   1.223   .     S
O1314  C85     1.223   1_565 S
Zn1319 O341    1.949   1_565 S
Zn1322 O1684   1.949   .     S
Zn1324 O313    1.949   1_565 S
Zn1326 O1701   1.947   1_455 S
Zn1327 O1692   1.931   1_455 S
Zn1330 O1698   1.931   1_455 S
Zn1331 O1707   1.946   1_455 S
Zn1332 O1695   1.949   .     S
C1333  C1411   1.409   .     A
C1333  C1410   1.490   .     S
C1334  C1346   1.410   .     A
C1334  C1420   1.492   .     S
C1334  C544    1.410   1_565 S
C1335  C1438   1.404   .     A
C1335  C1370   1.417   .     S
C1336  C1439   1.404   .     A
C1336  C889    1.409   1_655 S
C1336  C922    1.417   1_655 S
C1337  C1429   1.410   .     A
C1337  C1441   1.406   .     A
C1337  C1368   1.417   .     S
C1338  C1442   1.406   .     A
C1338  C1369   1.417   .     A
C1338  C1440   1.410   .     A
C1339  C1443   1.404   .     A
C1339  C482    1.417   1_565 A
C1339  C563    1.409   1_565 S
C1340  C1367   1.409   .     A
C1340  C1444   1.404   .     A
C1340  C483    1.417   1_565 A
C1341  C1378   1.410   .     A
C1341  C1445   1.406   .     A
C1341  C1372   1.417   .     A
C1342  C1446   1.406   .     A
C1342  C1389   1.410   .     A
C1342  C1373   1.417   .     S
C1343  C1447   1.404   .     A
C1343  C1400   1.409   .     A
C1343  C930    1.417   1_655 S
C1344  C1506   1.409   .     A
C1344  C1448   1.404   .     A
C1344  C1371   1.417   .     S
C1345  C1347   1.410   .     A
C1345  C989    1.410   1_655 A
C1345  C1421   1.492   .     S
C1346  C1449   1.406   .     A
C1346  C484    1.417   1_565 S
C1347  C1450   1.406   .     A
C1347  C929    1.417   1_655 A
C1348  C1452   1.404   .     A
C1348  C1356   1.409   .     A
C1348  C1374   1.417   .     A
C1349  C1496   1.412   .     A
C1349  C1498   1.412   .     A
C1349  C1468   1.465   .     S
C1350  C1469   1.462   .     S
C1350  C1497   1.409   .     A
C1350  C1494   1.409   .     A
C1351  C1461   1.451   .     S
C1351  C1493   1.408   .     A
C1351  C1500   1.408   .     A
C1352  C1463   1.452   .     S
C1352  C1492   1.408   .     A
C1352  C1499   1.408   .     A
C1353  C1502   1.412   .     A
C1353  C1491   1.412   .     A
C1353  C1464   1.465   .     S
C1354  C1465   1.462   .     S
C1354  C1490   1.409   .     A
C1354  C1501   1.409   .     A
C1355  C1466   1.451   .     S
C1355  C1489   1.408   .     A
C1355  C1504   1.408   .     A
C1356  C1434   1.409   .     A
C1356  C1423   1.490   .     S
C1357  C1503   1.408   .     A
C1357  C1488   1.408   .     A
C1357  C1467   1.452   .     S
C1358  C1477   1.451   .     S
C1358  C1487   1.408   .     A
C1358  C1507   1.408   .     A
C1359  C1486   1.408   .     A
C1359  C1505   1.408   .     A
C1359  C1478   1.452   .     S
C1360  C1485   1.412   .     A
C1360  C1509   1.412   .     A
C1360  C1470   1.465   .     S
C1361  C1483   1.409   .     A
C1361  C1508   1.409   .     A
C1361  C1471   1.462   .     S
C1362  C1482   1.408   .     A
C1362  C1472   1.451   .     S
C1362  C1511   1.408   .     A
C1363  C1510   1.408   .     A
C1363  C1481   1.408   .     A
C1363  C1474   1.452   .     S
C1364  C1513   1.412   .     A
C1364  C1480   1.412   .     A
C1364  C1475   1.465   .     S
C1365  C1479   1.409   .     A
C1365  C1476   1.462   .     S
C1365  C1512   1.409   .     A
C1366  C1514   1.417   .     A
C1366  C1368   1.418   .     S
C1367  C1424   1.490   .     S
C1367  C543    1.409   1_565 A
C1369  C1370   1.418   .     S
C1371  C1372   1.418   1_556 S
C1372  C1371   1.418   1_554 S
C1373  C1374   1.418   1_556 S
C1374  C1373   1.418   1_554 S
C1375  H1554   1.113   .     S
C1375  H1555   1.109   .     S
C1375  O1710   1.409   .     S
C1375  H1556   1.113   .     S
C1376  H1559   1.109   .     S
C1376  H1558   1.114   .     S
C1376  O1711   1.412   .     S
C1376  H1560   1.111   .     S
C1377  O1712   1.416   .     S
C1377  H1562   1.117   .     S
C1377  H1561   1.109   .     S
C1377  H1563   1.108   .     S
C1378  C1432   1.410   .     A
C1378  C1425   1.492   .     S
C1379  H1565   1.109   .     S
C1379  O1713   1.416   .     S
C1379  H1564   1.117   .     S
C1379  H1566   1.109   .     S
C1380  H1569   1.109   .     S
C1380  O1714   1.409   .     S
C1380  H1570   1.113   .     S
C1380  H1567   1.113   .     S
C1381  H1573   1.112   .     S
C1381  O1715   1.412   .     S
C1381  H1571   1.114   .     S
C1381  H1572   1.109   .     S
C1382  O1716   1.416   .     S
C1382  H1575   1.117   .     S
C1382  H1576   1.108   .     S
C1382  H1574   1.109   .     S
C1383  H1578   1.109   .     S
C1383  O1718   1.416   .     S
C1383  H1577   1.117   .     S
C1383  H1580   1.109   .     S
C1384  O1719   1.416   .     S
C1384  H1582   1.117   .     S
C1384  H1581   1.109   .     S
C1384  H1583   1.108   .     S
C1385  H1586   1.109   .     S
C1385  O1720   1.416   .     S
C1385  H1585   1.109   .     S
C1385  H1584   1.117   .     S
C1386  H1588   1.109   .     S
C1386  O1721   1.409   .     S
C1386  H1589   1.113   .     S
C1386  H1587   1.113   .     S
C1387  H1592   1.109   .     S
C1387  O1722   1.412   .     S
C1387  H1591   1.114   .     S
C1387  H1593   1.111   .     S
C1388  H1595   1.117   .     S
C1388  O1723   1.416   .     S
C1388  H1594   1.109   .     S
C1388  H1596   1.108   .     S
C1389  C1426   1.492   .     S
C1389  C1433   1.410   .     S
C1390  H1599   1.109   .     S
C1390  H1598   1.109   .     S
C1390  H1597   1.117   .     S
C1390  O1724   1.416   .     S
C1391  O1725   1.409   .     S
C1391  H1602   1.109   .     S
C1391  H1600   1.113   .     S
C1391  H1603   1.113   .     S
C1392  H1606   1.111   .     S
C1392  O1726   1.412   .     S
C1392  H1605   1.109   .     S
C1392  H1604   1.114   .     S
C1393  O1727   1.409   .     S
C1393  H1609   1.113   .     S
C1393  H1608   1.109   .     S
C1393  H1607   1.113   .     S
C1394  H1613   1.111   .     S
C1394  H1611   1.109   .     S
C1394  O1729   1.412   .     S
C1394  H1610   1.114   .     S
C1395  H1616   1.108   .     S
C1395  H1615   1.117   .     S
C1395  O1730   1.416   .     S
C1395  H1614   1.109   .     S
C1396  O1731   1.416   .     S
C1396  H1617   1.117   .     S
C1396  H1619   1.109   .     S
C1396  H1618   1.109   .     S
C1397  H1622   1.113   .     S
C1397  O1732   1.409   .     S
C1397  H1621   1.109   .     S
C1397  H1620   1.113   .     S
C1398  H1626   1.111   .     S
C1398  O1733   1.412   .     S
C1398  H1624   1.114   .     S
C1398  H1625   1.109   .     S
C1399  O1734   1.416   .     S
C1399  H1629   1.108   .     S
C1399  H1627   1.109   .     S
C1399  H1628   1.117   .     S
C1400  C1427   1.490   .     S
C1400  C990    1.409   1_655 S
C1401  H1630   1.117   .     S
C1401  O1735   1.416   .     S
C1401  H1632   1.109   .     S
C1401  H1631   1.109   .     S
C1402  H1635   1.117   .     S
C1402  H1633   1.109   .     S
C1402  O1736   1.416   .     S
C1402  H1636   1.108   .     S
C1403  O1737   1.416   .     S
C1403  H1638   1.109   .     S
C1403  H1639   1.109   .     S
C1403  H1637   1.117   .     S
C1404  O1738   1.409   .     S
C1404  H1640   1.113   .     S
C1404  H1642   1.113   .     S
C1404  H1641   1.109   .     S
C1405  O1740   1.412   .     S
C1405  H1644   1.109   .     S
C1405  H1519   1.112   .     S
C1405  H1643   1.114   .     S
C1406  H1522   1.108   .     S
C1406  O1741   1.416   .     S
C1406  H1520   1.109   .     S
C1406  H1521   1.117   .     S
C1407  O1742   1.416   .     S
C1407  H1523   1.117   .     S
C1407  H1525   1.109   .     S
C1407  H1524   1.109   .     S
C1408  H1526   1.113   .     S
C1408  O1743   1.409   .     S
C1408  H1528   1.113   .     S
C1408  H1527   1.109   .     S
C1409  H1530   1.114   .     S
C1409  H1531   1.109   .     S
C1409  O1744   1.412   .     S
C1409  H1532   1.112   .     S
C1410  O1746   1.398   .     S
C1411  C1455   1.451   .     S
C1412  O1748   1.398   .     S
C1412  C985    1.492   1_655 S
C1412  O1303   1.223   1_655 S
C1413  O1751   1.398   .     S
C1413  C552    1.492   1_565 S
C1413  O861    1.223   1_565 S
C1414  C1451   1.490   .     S
C1414  O1753   1.398   .     S
C1415  C1462   1.490   .     S
C1415  O1755   1.398   .     S
C1415  O1310   1.223   1_655 S
C1416  O1757   1.398   .     S
C1417  O1759   1.398   .     S
C1418  C1495   1.490   .     S
C1418  O1647   1.398   .     S
C1418  O872    1.223   1_565 S
C1419  C1506   1.490   .     S
C1419  O1649   1.398   .     S
C1419  O1648   1.223   .     D
C1420  O1651   1.398   .     S
C1420  O1650   1.223   .     D
C1421  O1652   1.223   .     D
C1421  O1653   1.398   .     S
C1422  C1456   1.454   .     S
C1422  C1429   1.410   .     S
C1423  O1655   1.398   .     S
C1423  O1654   1.223   .     D
C1424  O1656   1.223   .     D
C1424  O1658   1.398   .     S
C1425  O1659   1.223   .     D
C1425  O1660   1.398   .     S
C1426  O1661   1.223   .     D
C1426  O1662   1.398   .     S
C1427  O1664   1.398   .     S
C1427  O1663   1.223   .     D
C1428  C1440   1.410   .     A
C1428  C1453   1.454   .     S
C1430  C1454   1.451   .     S
C1430  C1451   1.409   .     S
C1431  C1459   1.451   .     S
C1431  C1506   1.409   .     S
C1432  C1460   1.454   .     S
C1433  C1457   1.454   .     S
C1434  C1458   1.451   .     S
C1435  H1517   1.082   .     S
C1435  C1441   1.384   .     A
C1435  C1514   1.404   .     A
C1436  C1515   1.406   .     A
C1436  C1439   1.384   .     A
C1436  H1557   1.081   .     S
C1437  C1516   1.406   .     A
C1437  C1443   1.384   .     A
C1437  H1568   1.081   .     S
C1438  H1579   1.082   .     S
C1438  C1442   1.384   .     A
C1439  H1590   1.082   .     S
C1441  H1601   1.081   .     S
C1442  H1612   1.081   .     S
C1443  H1623   1.082   .     S
C1444  H1634   1.082   .     S
C1444  C1449   1.384   1_556 S
C1445  H1518   1.081   .     S
C1445  C1448   1.384   1_554 S
C1446  H1529   1.081   .     S
C1446  C1452   1.384   1_556 S
C1447  H1540   1.082   .     S
C1447  C1450   1.384   1_554 S
C1448  H1550   1.082   .     S
C1448  C1445   1.384   1_556 S
C1449  H1551   1.081   .     S
C1449  C1444   1.384   1_554 S
C1450  H1552   1.081   .     S
C1450  C1447   1.384   1_556 S
C1452  H1553   1.082   .     S
C1452  C1446   1.384   1_554 S
C1453  O1750   1.277   .     A
C1454  O1717   1.276   .     S
C1455  O1728   1.276   .     A
C1456  O1665   1.277   .     S
C1457  O1666   1.277   .     A
C1457  O1670   1.277   .     A
C1458  O1667   1.276   .     S
C1458  O1671   1.276   .     S
C1459  O1672   1.276   .     A
C1459  O1668   1.276   .     A
C1460  O1669   1.277   .     A
C1460  O1674   1.277   .     A
C1461  O1675   1.281   .     A
C1461  O1703   1.281   .     A
C1462  C967    1.409   1_655 S
C1462  C1070   1.409   1_655 S
C1463  O1704   1.281   .     A
C1463  O1676   1.281   .     A
C1464  O1701   1.282   .     A
C1464  O1677   1.282   .     A
C1465  O1702   1.281   .     A
C1465  O1678   1.281   .     A
C1466  O1679   1.281   .     A
C1466  O1708   1.281   .     A
C1467  O1680   1.281   .     A
C1467  O1709   1.281   .     A
C1468  O1681   1.282   .     A
C1468  O1705   1.282   .     A
C1469  O1682   1.281   .     A
C1469  O1707   1.281   .     A
C1470  O1694   1.282   .     A
C1470  O1683   1.282   .     A
C1471  O1685   1.281   .     A
C1471  O1696   1.281   .     A
C1472  O1686   1.281   .     A
C1472  O1692   1.281   .     A
C1473  C978    1.410   1_655 A
C1473  C1515   1.410   .     A
C1473  C972    1.492   1_655 S
C1474  O1693   1.281   .     A
C1474  O1687   1.281   .     A
C1475  O1699   1.282   .     A
C1475  O1688   1.282   .     A
C1476  O1689   1.281   .     A
C1476  O1700   1.281   .     A
C1477  O1697   1.281   .     A
C1477  O1690   1.281   .     A
C1478  O1698   1.281   .     A
C1478  O1691   1.281   .     A
C1479  C1496   1.396   .     A
C1479  O1710   1.383   .     S
C1480  C1494   1.396   .     A
C1480  O1711   1.385   .     S
C1481  O1712   1.386   .     S
C1481  C1493   1.400   .     A
C1482  O1713   1.386   .     S
C1482  C1492   1.400   .     A
C1483  C1491   1.396   .     A
C1483  O1714   1.384   .     S
C1484  C1516   1.410   .     A
C1484  C540    1.410   1_565 S
C1484  C529    1.492   1_565 S
C1485  C1490   1.396   .     A
C1485  O1715   1.385   .     S
C1486  C1489   1.400   .     A
C1486  O1716   1.386   .     S
C1487  C1488   1.400   .     A
C1487  O1718   1.386   .     S
C1488  O1719   1.386   .     S
C1489  O1720   1.386   .     S
C1490  O1721   1.383   .     S
C1491  O1722   1.385   .     S
C1492  O1723   1.386   .     S
C1493  O1724   1.386   .     S
C1494  O1725   1.383   .     S
C1495  C542    1.409   1_565 A
C1495  C447    1.409   1_565 S
C1496  O1726   1.385   .     S
C1497  O1727   1.383   .     S
C1497  C1513   1.396   .     A
C1498  C1512   1.396   .     A
C1498  O1729   1.385   .     S
C1499  O1730   1.386   .     S
C1499  C1511   1.400   .     A
C1500  O1731   1.386   .     S
C1500  C1510   1.400   .     A
C1501  O1732   1.383   .     S
C1501  C1509   1.396   .     A
C1502  C1508   1.396   .     A
C1502  O1733   1.385   .     S
C1503  O1734   1.386   .     S
C1503  C1507   1.400   .     A
C1504  C1505   1.400   .     A
C1504  O1735   1.386   .     S
C1505  O1736   1.386   .     S
C1507  O1737   1.386   .     S
C1508  O1738   1.383   .     S
C1509  O1740   1.385   .     S
C1510  O1741   1.386   .     S
C1511  O1742   1.386   .     S
C1512  O1743   1.384   .     S
C1513  O1744   1.385   .     S
C1515  C924    1.417   1_655 A
C1516  C481    1.417   1_565 S
H1533  O1746   1.014   .     S
H1534  O1748   1.014   .     S
H1535  O1751   1.014   .     S
H1536  O1753   1.014   .     S
H1537  O1755   1.014   .     S
H1538  O1757   1.014   .     S
H1539  O1759   1.014   .     S
H1541  O1647   1.014   .     S
H1542  O1649   1.014   .     S
H1543  O1651   1.014   .     S
H1544  O1653   1.014   .     S
H1545  O1655   1.014   .     S
H1546  O1658   1.014   .     S
H1547  O1660   1.014   .     S
H1548  O1662   1.014   .     S
H1549  O1664   1.014   .     S
O1645  Zn1764  1.949   .     S
O1645  Zn1761  1.949   .     S
O1645  Zn1772  1.949   .     S
O1646  Zn1763  1.947   .     S
O1646  C566    1.276   1_565 A
O1657  Zn1766  1.947   .     S
O1657  C1011   1.276   1_655 S
O1665  Zn1765  1.947   .     S
O1666  Zn1775  1.947   .     S
O1667  Zn1774  1.947   .     S
O1668  Zn1769  1.947   .     S
O1669  Zn1761  1.947   .     S
O1670  Zn1771  1.947   .     S
O1671  Zn1770  1.947   .     S
O1672  Zn1773  1.947   .     S
O1673  Zn1767  1.949   .     S
O1673  Zn1773  1.949   .     S
O1673  Zn1769  1.949   .     S
O1674  Zn1772  1.947   .     S
O1675  Zn1764  1.931   .     S
O1676  Zn1763  1.931   .     S
O1677  Zn1766  1.946   .     S
O1678  Zn1765  1.946   .     S
O1679  Zn1768  1.931   .     S
O1680  Zn1767  1.931   .     S
O1681  Zn1762  1.947   .     S
O1682  Zn1776  1.947   .     S
O1683  Zn1763  1.947   .     S
O1684  Zn1774  1.949   .     S
O1684  Zn1762  1.949   .     S
O1684  Zn1770  1.949   .     S
O1685  Zn1764  1.947   .     S
O1686  Zn1776  1.931   .     S
O1687  Zn1762  1.931   .     S
O1688  Zn1767  1.946   .     S
O1689  Zn1768  1.946   .     S
O1690  Zn1765  1.931   .     S
O1691  Zn1766  1.931   .     S
O1692  Zn1327  1.931   1_655 S
O1693  Zn1770  1.931   .     S
O1694  Zn885   1.946   1_565 S
O1695  Zn1775  1.949   .     S
O1695  Zn1771  1.949   .     S
O1695  Zn1765  1.949   .     S
O1696  Zn1772  1.946   .     S
O1697  Zn1775  1.931   .     S
O1698  Zn1330  1.931   1_655 S
O1699  Zn1769  1.947   .     S
O1700  Zn873   1.947   1_565 S
O1701  Zn1326  1.947   1_655 S
O1702  Zn1771  1.947   .     S
O1703  Zn1761  1.931   .     S
O1704  Zn881   1.931   1_565 S
O1705  Zn1774  1.946   .     S
O1706  Zn1768  1.947   .     S
O1706  C565    1.277   1_565 S
O1707  Zn1331  1.946   1_655 S
O1708  Zn884   1.931   1_565 S
O1709  Zn1773  1.931   .     S
O1717  Zn1767  1.947   .     S
O1728  Zn1762  1.947   .     S
O1739  C1012   1.277   1_655 A
O1739  Zn1776  1.947   .     S
O1745  C966    1.223   1_655 S
O1750  Zn1764  1.947   .     S
O1752  C526    1.223   1_565 S
O1756  C972    1.223   1_655 S
O1758  C529    1.223   1_565 S
Zn1763 O785    1.949   1_565 S
Zn1766 O1240   1.949   1_655 S
Zn1768 O757    1.949   1_565 S
Zn1776 O1251   1.949   1_655 S
