data_str_m3_o10_o17_pcu_sym.70
_audit_creation_date              2020-01-03
_audit_creation_method            'Materials Studio'
_symmetry_space_group_name_H-M    'P1'
_symmetry_Int_Tables_number       1
_symmetry_cell_setting            triclinic
loop_
_symmetry_equiv_pos_as_xyz
  x,y,z
_cell_length_a                    23.1968
_cell_length_b                    25.8147
_cell_length_c                    30.0010
_cell_angle_alpha                 91.0592
_cell_angle_beta                  86.1773
_cell_angle_gamma                 93.2294
loop_
_atom_site_label
_atom_site_type_symbol
_atom_site_fract_x
_atom_site_fract_y
_atom_site_fract_z
_atom_site_U_iso_or_equiv
_atom_site_adp_type
_atom_site_occupancy
C1     C     0.18149   0.26476   0.24835   0.00000  Uiso   1.00
C2     C     0.21950   0.18614   0.40521   0.00000  Uiso   1.00
C3     C     0.16381   0.16550   0.11564   0.00000  Uiso   1.00
C4     C     0.16952   0.16783   0.38436   0.00000  Uiso   1.00
C5     C     0.21364   0.18375   0.09102   0.00000  Uiso   1.00
C6     C     0.11970   0.14958   0.40898   0.00000  Uiso   1.00
C7     C     0.21505   0.18429   0.04513   0.00000  Uiso   1.00
C8     C     0.11829   0.14904   0.45487   0.00000  Uiso   1.00
C9     C     0.16569   0.16641   0.02331   0.00000  Uiso   1.00
C10    C     0.16765   0.16692   0.47669   0.00000  Uiso   1.00
C11    C     0.11457   0.14788   0.04800   0.00000  Uiso   1.00
C12    C     0.15184   0.06857   0.25165   0.00000  Uiso   1.00
C13    C     0.21877   0.18545   0.45200   0.00000  Uiso   1.00
C14    C     0.26529   0.20270   0.02095   0.00000  Uiso   1.00
C15    C     0.06804   0.13062   0.47905   0.00000  Uiso   1.00
C16    C     0.06305   0.07258   0.12980   0.00000  Uiso   1.00
C17    C     0.27029   0.26075   0.37021   0.00000  Uiso   1.00
C18    C     0.22914   0.00146   0.20079   0.00000  Uiso   1.00
C19    C     0.10420   0.33187   0.29921   0.00000  Uiso   1.00
C20    C     0.26716   0.20355   0.47476   0.00000  Uiso   1.00
C21    C     0.06617   0.12977   0.02523   0.00000  Uiso   1.00
C22    C     0.18669   0.31813   0.23961   0.00000  Uiso   1.00
C23    C     0.14664   0.01520   0.26039   0.00000  Uiso   1.00
C24    C     0.16775   0.16738   0.33657   0.00000  Uiso   1.00
C25    C     0.16559   0.16595   0.16343   0.00000  Uiso   1.00
C26    C     0.11383   0.14719   0.09479   0.00000  Uiso   1.00
H27    H     0.25155   0.19814   0.10776   0.00000  Uiso   1.00
H28    H     0.06051   0.04987   0.09810   0.00000  Uiso   1.00
H29    H     0.02463   0.06143   0.15235   0.00000  Uiso   1.00
H30    H     0.10247   0.06301   0.14637   0.00000  Uiso   1.00
H31    H     0.30825   0.19292   0.38733   0.00000  Uiso   1.00
H32    H     0.27284   0.28346   0.40190   0.00000  Uiso   1.00
H33    H     0.23086   0.27032   0.35364   0.00000  Uiso   1.00
H34    H     0.30870   0.27190   0.34765   0.00000  Uiso   1.00
H35    H     0.24449   0.30088   0.18094   0.00000  Uiso   1.00
H36    H     0.20810   0.02610   0.17734   0.00000  Uiso   1.00
H37    H     0.26788   0.02260   0.21346   0.00000  Uiso   1.00
H38    H     0.08178   0.13519   0.39224   0.00000  Uiso   1.00
H39    H     0.08885   0.03245   0.31906   0.00000  Uiso   1.00
H40    H     0.06545   0.31073   0.28654   0.00000  Uiso   1.00
H41    H     0.12523   0.30724   0.32266   0.00000  Uiso   1.00
H42    H     0.30322   0.21661   0.03781   0.00000  Uiso   1.00
H43    H     0.03011   0.11671   0.46219   0.00000  Uiso   1.00
H44    H     0.30672   0.21876   0.45750   0.00000  Uiso   1.00
H45    H     0.02662   0.11456   0.04249   0.00000  Uiso   1.00
H46    H     0.00487   0.12758   0.21637   0.00000  Uiso   1.00
H47    H     0.32847   0.20576   0.28363   0.00000  Uiso   1.00
H48    H     0.02508   0.14041   0.11267   0.00000  Uiso   1.00
N49    N     0.31678   0.15265   0.23783   0.00000  Uiso   1.00
N50    N     0.01656   0.18068   0.26217   0.00000  Uiso   1.00
N51    N     0.06413   0.12758   0.12113   0.00000  Uiso   1.00
N52    N     0.26920   0.20575   0.37887   0.00000  Uiso   1.00
O53    O     0.12975   0.24619   0.25298   0.00000  Uiso   1.00
O54    O     0.20358   0.08714   0.24701   0.00000  Uiso   1.00
O55    O     0.22613   0.23721   0.24518   0.00000  Uiso   1.00
O56    O     0.10720   0.09613   0.25481   0.00000  Uiso   1.00
O57    O     0.11847   0.17117   0.31997   0.00000  Uiso   1.00
O58    O     0.21486   0.16216   0.18002   0.00000  Uiso   1.00
O59    O     0.21485   0.16219   0.31217   0.00000  Uiso   1.00
O60    O     0.11848   0.17115   0.18782   0.00000  Uiso   1.00
Zn61   Zn    0.10231   0.17266   0.25521   0.00000  Uiso   1.00
Zn62   Zn    0.23102   0.16067   0.24479   0.00000  Uiso   1.00
C63    C     0.51482   0.26476   0.24835   0.00000  Uiso   1.00
C64    C     0.55284   0.18614   0.40521   0.00000  Uiso   1.00
C65    C     0.49714   0.16550   0.11564   0.00000  Uiso   1.00
C66    C     0.50286   0.16783   0.38436   0.00000  Uiso   1.00
C67    C     0.54697   0.18375   0.09102   0.00000  Uiso   1.00
C68    C     0.45303   0.14958   0.40898   0.00000  Uiso   1.00
C69    C     0.54838   0.18429   0.04513   0.00000  Uiso   1.00
C70    C     0.45162   0.14904   0.45487   0.00000  Uiso   1.00
C71    C     0.49902   0.16641   0.02331   0.00000  Uiso   1.00
C72    C     0.50098   0.16692   0.47669   0.00000  Uiso   1.00
C73    C     0.44790   0.14788   0.04800   0.00000  Uiso   1.00
C74    C     0.48518   0.06857   0.25165   0.00000  Uiso   1.00
C75    C     0.55210   0.18545   0.45200   0.00000  Uiso   1.00
C76    C     0.59863   0.20270   0.02095   0.00000  Uiso   1.00
C77    C     0.40138   0.13062   0.47905   0.00000  Uiso   1.00
C78    C     0.39638   0.07258   0.12980   0.00000  Uiso   1.00
C79    C     0.60362   0.26075   0.37021   0.00000  Uiso   1.00
C80    C     0.56247   0.00146   0.20079   0.00000  Uiso   1.00
C81    C     0.43753   0.33187   0.29921   0.00000  Uiso   1.00
C82    C     0.60050   0.20355   0.47476   0.00000  Uiso   1.00
C83    C     0.39951   0.12977   0.02523   0.00000  Uiso   1.00
C84    C     0.52002   0.31813   0.23961   0.00000  Uiso   1.00
C85    C     0.47998   0.01520   0.26039   0.00000  Uiso   1.00
C86    C     0.50108   0.16738   0.33657   0.00000  Uiso   1.00
C87    C     0.49892   0.16595   0.16343   0.00000  Uiso   1.00
C88    C     0.44716   0.14719   0.09479   0.00000  Uiso   1.00
H89    H     0.58489   0.19814   0.10776   0.00000  Uiso   1.00
H90    H     0.39384   0.04987   0.09810   0.00000  Uiso   1.00
H91    H     0.35796   0.06143   0.15235   0.00000  Uiso   1.00
H92    H     0.43581   0.06301   0.14637   0.00000  Uiso   1.00
H93    H     0.64158   0.19292   0.38733   0.00000  Uiso   1.00
H94    H     0.60617   0.28346   0.40190   0.00000  Uiso   1.00
H95    H     0.56419   0.27032   0.35364   0.00000  Uiso   1.00
H96    H     0.64203   0.27190   0.34765   0.00000  Uiso   1.00
H97    H     0.57782   0.30088   0.18094   0.00000  Uiso   1.00
H98    H     0.54143   0.02610   0.17734   0.00000  Uiso   1.00
H99    H     0.60121   0.02260   0.21346   0.00000  Uiso   1.00
H100   H     0.41511   0.13519   0.39224   0.00000  Uiso   1.00
H101   H     0.42218   0.03245   0.31906   0.00000  Uiso   1.00
H102   H     0.39879   0.31073   0.28654   0.00000  Uiso   1.00
H103   H     0.45857   0.30724   0.32266   0.00000  Uiso   1.00
H104   H     0.63656   0.21661   0.03781   0.00000  Uiso   1.00
H105   H     0.36344   0.11671   0.46219   0.00000  Uiso   1.00
H106   H     0.64005   0.21876   0.45750   0.00000  Uiso   1.00
H107   H     0.35995   0.11456   0.04249   0.00000  Uiso   1.00
H108   H     0.33820   0.12758   0.21637   0.00000  Uiso   1.00
H109   H     0.66180   0.20576   0.28363   0.00000  Uiso   1.00
H110   H     0.35842   0.14041   0.11267   0.00000  Uiso   1.00
N111   N     0.65011   0.15265   0.23783   0.00000  Uiso   1.00
N112   N     0.34989   0.18068   0.26217   0.00000  Uiso   1.00
N113   N     0.39747   0.12758   0.12113   0.00000  Uiso   1.00
N114   N     0.60253   0.20575   0.37887   0.00000  Uiso   1.00
O115   O     0.46308   0.24619   0.25298   0.00000  Uiso   1.00
O116   O     0.53692   0.08714   0.24701   0.00000  Uiso   1.00
O117   O     0.55946   0.23721   0.24518   0.00000  Uiso   1.00
O118   O     0.44054   0.09613   0.25481   0.00000  Uiso   1.00
O119   O     0.45181   0.17117   0.31997   0.00000  Uiso   1.00
O120   O     0.54819   0.16216   0.18002   0.00000  Uiso   1.00
O121   O     0.54819   0.16219   0.31217   0.00000  Uiso   1.00
O122   O     0.45181   0.17115   0.18782   0.00000  Uiso   1.00
Zn123  Zn    0.43565   0.17266   0.25521   0.00000  Uiso   1.00
Zn124  Zn    0.56435   0.16067   0.24479   0.00000  Uiso   1.00
C125   C     0.84816   0.26476   0.24835   0.00000  Uiso   1.00
C126   C     0.88617   0.18614   0.40521   0.00000  Uiso   1.00
C127   C     0.83048   0.16550   0.11564   0.00000  Uiso   1.00
C128   C     0.83619   0.16783   0.38436   0.00000  Uiso   1.00
C129   C     0.88031   0.18375   0.09102   0.00000  Uiso   1.00
C130   C     0.78636   0.14958   0.40898   0.00000  Uiso   1.00
C131   C     0.88171   0.18429   0.04513   0.00000  Uiso   1.00
C132   C     0.78496   0.14904   0.45487   0.00000  Uiso   1.00
C133   C     0.83235   0.16641   0.02331   0.00000  Uiso   1.00
C134   C     0.83432   0.16692   0.47669   0.00000  Uiso   1.00
C135   C     0.78124   0.14788   0.04800   0.00000  Uiso   1.00
C136   C     0.81851   0.06857   0.25165   0.00000  Uiso   1.00
C137   C     0.88543   0.18545   0.45200   0.00000  Uiso   1.00
C138   C     0.93196   0.20270   0.02095   0.00000  Uiso   1.00
C139   C     0.73471   0.13062   0.47905   0.00000  Uiso   1.00
C140   C     0.72971   0.07258   0.12980   0.00000  Uiso   1.00
C141   C     0.93695   0.26075   0.37021   0.00000  Uiso   1.00
C142   C     0.89580   0.00146   0.20079   0.00000  Uiso   1.00
C143   C     0.77086   0.33187   0.29921   0.00000  Uiso   1.00
C144   C     0.93383   0.20355   0.47476   0.00000  Uiso   1.00
C145   C     0.73284   0.12977   0.02523   0.00000  Uiso   1.00
C146   C     0.85336   0.31813   0.23961   0.00000  Uiso   1.00
C147   C     0.81331   0.01520   0.26039   0.00000  Uiso   1.00
C148   C     0.83441   0.16738   0.33657   0.00000  Uiso   1.00
C149   C     0.83225   0.16595   0.16343   0.00000  Uiso   1.00
C150   C     0.78050   0.14719   0.09479   0.00000  Uiso   1.00
H151   H     0.91822   0.19814   0.10776   0.00000  Uiso   1.00
H152   H     0.72717   0.04987   0.09810   0.00000  Uiso   1.00
H153   H     0.69130   0.06143   0.15235   0.00000  Uiso   1.00
H154   H     0.76914   0.06301   0.14637   0.00000  Uiso   1.00
H155   H     0.97492   0.19292   0.38733   0.00000  Uiso   1.00
H156   H     0.93950   0.28346   0.40190   0.00000  Uiso   1.00
H157   H     0.89752   0.27032   0.35364   0.00000  Uiso   1.00
H158   H     0.97537   0.27190   0.34765   0.00000  Uiso   1.00
H159   H     0.91115   0.30088   0.18094   0.00000  Uiso   1.00
H160   H     0.87477   0.02610   0.17734   0.00000  Uiso   1.00
H161   H     0.93455   0.02260   0.21346   0.00000  Uiso   1.00
H162   H     0.74845   0.13519   0.39224   0.00000  Uiso   1.00
H163   H     0.75551   0.03245   0.31906   0.00000  Uiso   1.00
H164   H     0.73212   0.31073   0.28654   0.00000  Uiso   1.00
H165   H     0.79190   0.30724   0.32266   0.00000  Uiso   1.00
H166   H     0.96989   0.21661   0.03781   0.00000  Uiso   1.00
H167   H     0.69678   0.11671   0.46219   0.00000  Uiso   1.00
H168   H     0.97338   0.21876   0.45750   0.00000  Uiso   1.00
H169   H     0.69328   0.11456   0.04249   0.00000  Uiso   1.00
H170   H     0.67153   0.12758   0.21637   0.00000  Uiso   1.00
H171   H     0.99513   0.20576   0.28363   0.00000  Uiso   1.00
H172   H     0.69175   0.14041   0.11267   0.00000  Uiso   1.00
N173   N     0.98344   0.15265   0.23783   0.00000  Uiso   1.00
N174   N     0.68322   0.18068   0.26217   0.00000  Uiso   1.00
N175   N     0.73080   0.12758   0.12113   0.00000  Uiso   1.00
N176   N     0.93587   0.20575   0.37887   0.00000  Uiso   1.00
O177   O     0.79642   0.24619   0.25298   0.00000  Uiso   1.00
O178   O     0.87025   0.08714   0.24701   0.00000  Uiso   1.00
O179   O     0.89280   0.23721   0.24518   0.00000  Uiso   1.00
O180   O     0.77387   0.09613   0.25481   0.00000  Uiso   1.00
O181   O     0.78514   0.17117   0.31997   0.00000  Uiso   1.00
O182   O     0.88153   0.16216   0.18002   0.00000  Uiso   1.00
O183   O     0.88152   0.16219   0.31217   0.00000  Uiso   1.00
O184   O     0.78515   0.17115   0.18782   0.00000  Uiso   1.00
Zn185  Zn    0.76898   0.17266   0.25521   0.00000  Uiso   1.00
Zn186  Zn    0.89769   0.16067   0.24479   0.00000  Uiso   1.00
C187   C     0.18149   0.59810   0.24835   0.00000  Uiso   1.00
C188   C     0.21950   0.51947   0.40521   0.00000  Uiso   1.00
C189   C     0.16381   0.49883   0.11564   0.00000  Uiso   1.00
C190   C     0.16952   0.50116   0.38436   0.00000  Uiso   1.00
C191   C     0.21364   0.51708   0.09102   0.00000  Uiso   1.00
C192   C     0.11970   0.48291   0.40898   0.00000  Uiso   1.00
C193   C     0.21505   0.51762   0.04513   0.00000  Uiso   1.00
C194   C     0.11829   0.48237   0.45487   0.00000  Uiso   1.00
C195   C     0.16569   0.49974   0.02331   0.00000  Uiso   1.00
C196   C     0.16765   0.50025   0.47669   0.00000  Uiso   1.00
C197   C     0.11457   0.48121   0.04800   0.00000  Uiso   1.00
C198   C     0.15184   0.40190   0.25165   0.00000  Uiso   1.00
C199   C     0.21877   0.51878   0.45200   0.00000  Uiso   1.00
C200   C     0.26529   0.53604   0.02095   0.00000  Uiso   1.00
C201   C     0.06804   0.46396   0.47905   0.00000  Uiso   1.00
C202   C     0.06305   0.40591   0.12980   0.00000  Uiso   1.00
C203   C     0.27029   0.59409   0.37021   0.00000  Uiso   1.00
C204   C     0.22914   0.33480   0.20079   0.00000  Uiso   1.00
C205   C     0.10420   0.66520   0.29921   0.00000  Uiso   1.00
C206   C     0.26716   0.53689   0.47476   0.00000  Uiso   1.00
C207   C     0.06617   0.46311   0.02523   0.00000  Uiso   1.00
C208   C     0.18669   0.65146   0.23961   0.00000  Uiso   1.00
C209   C     0.14664   0.34854   0.26039   0.00000  Uiso   1.00
C210   C     0.16775   0.50071   0.33657   0.00000  Uiso   1.00
C211   C     0.16559   0.49929   0.16343   0.00000  Uiso   1.00
C212   C     0.11383   0.48053   0.09479   0.00000  Uiso   1.00
H213   H     0.25155   0.53147   0.10776   0.00000  Uiso   1.00
H214   H     0.06051   0.38320   0.09810   0.00000  Uiso   1.00
H215   H     0.02463   0.39477   0.15235   0.00000  Uiso   1.00
H216   H     0.10247   0.39635   0.14637   0.00000  Uiso   1.00
H217   H     0.30825   0.52625   0.38733   0.00000  Uiso   1.00
H218   H     0.27284   0.61679   0.40190   0.00000  Uiso   1.00
H219   H     0.23086   0.60366   0.35364   0.00000  Uiso   1.00
H220   H     0.30870   0.60524   0.34765   0.00000  Uiso   1.00
H221   H     0.24449   0.63421   0.18094   0.00000  Uiso   1.00
H222   H     0.20810   0.35943   0.17734   0.00000  Uiso   1.00
H223   H     0.26788   0.35593   0.21346   0.00000  Uiso   1.00
H224   H     0.08178   0.46852   0.39224   0.00000  Uiso   1.00
H225   H     0.08885   0.36579   0.31906   0.00000  Uiso   1.00
H226   H     0.06545   0.64407   0.28654   0.00000  Uiso   1.00
H227   H     0.12523   0.64057   0.32266   0.00000  Uiso   1.00
H228   H     0.30322   0.54995   0.03781   0.00000  Uiso   1.00
H229   H     0.03011   0.45005   0.46219   0.00000  Uiso   1.00
H230   H     0.30672   0.55210   0.45750   0.00000  Uiso   1.00
H231   H     0.02662   0.44790   0.04249   0.00000  Uiso   1.00
H232   H     0.00487   0.46091   0.21637   0.00000  Uiso   1.00
H233   H     0.32847   0.53909   0.28363   0.00000  Uiso   1.00
H234   H     0.02508   0.47374   0.11267   0.00000  Uiso   1.00
N235   N     0.31678   0.48598   0.23783   0.00000  Uiso   1.00
N236   N     0.01656   0.51402   0.26217   0.00000  Uiso   1.00
N237   N     0.06413   0.46091   0.12113   0.00000  Uiso   1.00
N238   N     0.26920   0.53909   0.37887   0.00000  Uiso   1.00
O239   O     0.12975   0.57952   0.25298   0.00000  Uiso   1.00
O240   O     0.20358   0.42048   0.24701   0.00000  Uiso   1.00
O241   O     0.22613   0.57054   0.24518   0.00000  Uiso   1.00
O242   O     0.10720   0.42946   0.25481   0.00000  Uiso   1.00
O243   O     0.11847   0.50450   0.31997   0.00000  Uiso   1.00
O244   O     0.21486   0.49550   0.18002   0.00000  Uiso   1.00
O245   O     0.21485   0.49552   0.31217   0.00000  Uiso   1.00
O246   O     0.11848   0.50448   0.18782   0.00000  Uiso   1.00
Zn247  Zn    0.10231   0.50600   0.25521   0.00000  Uiso   1.00
Zn248  Zn    0.23102   0.49400   0.24479   0.00000  Uiso   1.00
C249   C     0.51482   0.59810   0.24835   0.00000  Uiso   1.00
C250   C     0.55284   0.51947   0.40521   0.00000  Uiso   1.00
C251   C     0.49714   0.49883   0.11564   0.00000  Uiso   1.00
C252   C     0.50286   0.50116   0.38436   0.00000  Uiso   1.00
C253   C     0.54697   0.51708   0.09102   0.00000  Uiso   1.00
C254   C     0.45303   0.48291   0.40898   0.00000  Uiso   1.00
C255   C     0.54838   0.51762   0.04513   0.00000  Uiso   1.00
C256   C     0.45162   0.48237   0.45487   0.00000  Uiso   1.00
C257   C     0.49902   0.49974   0.02331   0.00000  Uiso   1.00
C258   C     0.50098   0.50025   0.47669   0.00000  Uiso   1.00
C259   C     0.44790   0.48121   0.04800   0.00000  Uiso   1.00
C260   C     0.48518   0.40190   0.25165   0.00000  Uiso   1.00
C261   C     0.55210   0.51878   0.45200   0.00000  Uiso   1.00
C262   C     0.59863   0.53604   0.02095   0.00000  Uiso   1.00
C263   C     0.40138   0.46396   0.47905   0.00000  Uiso   1.00
C264   C     0.39638   0.40591   0.12980   0.00000  Uiso   1.00
C265   C     0.60362   0.59409   0.37021   0.00000  Uiso   1.00
C266   C     0.56247   0.33480   0.20079   0.00000  Uiso   1.00
C267   C     0.43753   0.66520   0.29921   0.00000  Uiso   1.00
C268   C     0.60050   0.53689   0.47476   0.00000  Uiso   1.00
C269   C     0.39951   0.46311   0.02523   0.00000  Uiso   1.00
C270   C     0.52002   0.65146   0.23961   0.00000  Uiso   1.00
C271   C     0.47998   0.34854   0.26039   0.00000  Uiso   1.00
C272   C     0.50108   0.50071   0.33657   0.00000  Uiso   1.00
C273   C     0.49892   0.49929   0.16343   0.00000  Uiso   1.00
C274   C     0.44716   0.48053   0.09479   0.00000  Uiso   1.00
H275   H     0.58489   0.53147   0.10776   0.00000  Uiso   1.00
H276   H     0.39384   0.38320   0.09810   0.00000  Uiso   1.00
H277   H     0.35796   0.39477   0.15235   0.00000  Uiso   1.00
H278   H     0.43581   0.39635   0.14637   0.00000  Uiso   1.00
H279   H     0.64158   0.52625   0.38733   0.00000  Uiso   1.00
H280   H     0.60617   0.61679   0.40190   0.00000  Uiso   1.00
H281   H     0.56419   0.60366   0.35364   0.00000  Uiso   1.00
H282   H     0.64203   0.60524   0.34765   0.00000  Uiso   1.00
H283   H     0.57782   0.63421   0.18094   0.00000  Uiso   1.00
H284   H     0.54143   0.35943   0.17734   0.00000  Uiso   1.00
H285   H     0.60121   0.35593   0.21346   0.00000  Uiso   1.00
H286   H     0.41511   0.46852   0.39224   0.00000  Uiso   1.00
H287   H     0.42218   0.36579   0.31906   0.00000  Uiso   1.00
H288   H     0.39879   0.64407   0.28654   0.00000  Uiso   1.00
H289   H     0.45857   0.64057   0.32266   0.00000  Uiso   1.00
H290   H     0.63656   0.54995   0.03781   0.00000  Uiso   1.00
H291   H     0.36344   0.45005   0.46219   0.00000  Uiso   1.00
H292   H     0.64005   0.55210   0.45750   0.00000  Uiso   1.00
H293   H     0.35995   0.44790   0.04249   0.00000  Uiso   1.00
H294   H     0.33820   0.46091   0.21637   0.00000  Uiso   1.00
H295   H     0.66180   0.53909   0.28363   0.00000  Uiso   1.00
H296   H     0.35842   0.47374   0.11267   0.00000  Uiso   1.00
N297   N     0.65011   0.48598   0.23783   0.00000  Uiso   1.00
N298   N     0.34989   0.51402   0.26217   0.00000  Uiso   1.00
N299   N     0.39747   0.46091   0.12113   0.00000  Uiso   1.00
N300   N     0.60253   0.53909   0.37887   0.00000  Uiso   1.00
O301   O     0.46308   0.57952   0.25298   0.00000  Uiso   1.00
O302   O     0.53692   0.42048   0.24701   0.00000  Uiso   1.00
O303   O     0.55946   0.57054   0.24518   0.00000  Uiso   1.00
O304   O     0.44054   0.42946   0.25481   0.00000  Uiso   1.00
O305   O     0.45181   0.50450   0.31997   0.00000  Uiso   1.00
O306   O     0.54819   0.49550   0.18002   0.00000  Uiso   1.00
O307   O     0.54819   0.49552   0.31217   0.00000  Uiso   1.00
O308   O     0.45181   0.50448   0.18782   0.00000  Uiso   1.00
Zn309  Zn    0.43565   0.50600   0.25521   0.00000  Uiso   1.00
Zn310  Zn    0.56435   0.49400   0.24479   0.00000  Uiso   1.00
C311   C     0.84816   0.59810   0.24835   0.00000  Uiso   1.00
C312   C     0.88617   0.51947   0.40521   0.00000  Uiso   1.00
C313   C     0.83048   0.49883   0.11564   0.00000  Uiso   1.00
C314   C     0.83619   0.50116   0.38436   0.00000  Uiso   1.00
C315   C     0.88031   0.51708   0.09102   0.00000  Uiso   1.00
C316   C     0.78636   0.48291   0.40898   0.00000  Uiso   1.00
C317   C     0.88171   0.51762   0.04513   0.00000  Uiso   1.00
C318   C     0.78496   0.48237   0.45487   0.00000  Uiso   1.00
C319   C     0.83235   0.49974   0.02331   0.00000  Uiso   1.00
C320   C     0.83432   0.50025   0.47669   0.00000  Uiso   1.00
C321   C     0.78124   0.48121   0.04800   0.00000  Uiso   1.00
C322   C     0.81851   0.40190   0.25165   0.00000  Uiso   1.00
C323   C     0.88543   0.51878   0.45200   0.00000  Uiso   1.00
C324   C     0.93196   0.53604   0.02095   0.00000  Uiso   1.00
C325   C     0.73471   0.46396   0.47905   0.00000  Uiso   1.00
C326   C     0.72971   0.40591   0.12980   0.00000  Uiso   1.00
C327   C     0.93695   0.59409   0.37021   0.00000  Uiso   1.00
C328   C     0.89580   0.33480   0.20079   0.00000  Uiso   1.00
C329   C     0.77086   0.66520   0.29921   0.00000  Uiso   1.00
C330   C     0.93383   0.53689   0.47476   0.00000  Uiso   1.00
C331   C     0.73284   0.46311   0.02523   0.00000  Uiso   1.00
C332   C     0.85336   0.65146   0.23961   0.00000  Uiso   1.00
C333   C     0.81331   0.34854   0.26039   0.00000  Uiso   1.00
C334   C     0.83441   0.50071   0.33657   0.00000  Uiso   1.00
C335   C     0.83225   0.49929   0.16343   0.00000  Uiso   1.00
C336   C     0.78050   0.48053   0.09479   0.00000  Uiso   1.00
H337   H     0.91822   0.53147   0.10776   0.00000  Uiso   1.00
H338   H     0.72717   0.38320   0.09810   0.00000  Uiso   1.00
H339   H     0.69130   0.39477   0.15235   0.00000  Uiso   1.00
H340   H     0.76914   0.39635   0.14637   0.00000  Uiso   1.00
H341   H     0.97492   0.52625   0.38733   0.00000  Uiso   1.00
H342   H     0.93950   0.61679   0.40190   0.00000  Uiso   1.00
H343   H     0.89752   0.60366   0.35364   0.00000  Uiso   1.00
H344   H     0.97537   0.60524   0.34765   0.00000  Uiso   1.00
H345   H     0.91115   0.63421   0.18094   0.00000  Uiso   1.00
H346   H     0.87477   0.35943   0.17734   0.00000  Uiso   1.00
H347   H     0.93455   0.35593   0.21346   0.00000  Uiso   1.00
H348   H     0.74845   0.46852   0.39224   0.00000  Uiso   1.00
H349   H     0.75551   0.36579   0.31906   0.00000  Uiso   1.00
H350   H     0.73212   0.64407   0.28654   0.00000  Uiso   1.00
H351   H     0.79190   0.64057   0.32266   0.00000  Uiso   1.00
H352   H     0.96989   0.54995   0.03781   0.00000  Uiso   1.00
H353   H     0.69678   0.45005   0.46219   0.00000  Uiso   1.00
H354   H     0.97338   0.55210   0.45750   0.00000  Uiso   1.00
H355   H     0.69328   0.44790   0.04249   0.00000  Uiso   1.00
H356   H     0.67153   0.46091   0.21637   0.00000  Uiso   1.00
H357   H     0.99513   0.53909   0.28363   0.00000  Uiso   1.00
H358   H     0.69175   0.47374   0.11267   0.00000  Uiso   1.00
N359   N     0.98344   0.48598   0.23783   0.00000  Uiso   1.00
N360   N     0.68322   0.51402   0.26217   0.00000  Uiso   1.00
N361   N     0.73080   0.46091   0.12113   0.00000  Uiso   1.00
N362   N     0.93587   0.53909   0.37887   0.00000  Uiso   1.00
O363   O     0.79642   0.57952   0.25298   0.00000  Uiso   1.00
O364   O     0.87025   0.42048   0.24701   0.00000  Uiso   1.00
O365   O     0.89280   0.57054   0.24518   0.00000  Uiso   1.00
O366   O     0.77387   0.42946   0.25481   0.00000  Uiso   1.00
O367   O     0.78514   0.50450   0.31997   0.00000  Uiso   1.00
O368   O     0.88153   0.49550   0.18002   0.00000  Uiso   1.00
O369   O     0.88152   0.49552   0.31217   0.00000  Uiso   1.00
O370   O     0.78515   0.50448   0.18782   0.00000  Uiso   1.00
Zn371  Zn    0.76898   0.50600   0.25521   0.00000  Uiso   1.00
Zn372  Zn    0.89769   0.49400   0.24479   0.00000  Uiso   1.00
C373   C     0.18149   0.93143   0.24835   0.00000  Uiso   1.00
C374   C     0.21950   0.85280   0.40521   0.00000  Uiso   1.00
C375   C     0.16381   0.83217   0.11564   0.00000  Uiso   1.00
C376   C     0.16952   0.83450   0.38436   0.00000  Uiso   1.00
C377   C     0.21364   0.85042   0.09102   0.00000  Uiso   1.00
C378   C     0.11970   0.81625   0.40898   0.00000  Uiso   1.00
C379   C     0.21505   0.85095   0.04513   0.00000  Uiso   1.00
C380   C     0.11829   0.81571   0.45487   0.00000  Uiso   1.00
C381   C     0.16569   0.83308   0.02331   0.00000  Uiso   1.00
C382   C     0.16765   0.83358   0.47669   0.00000  Uiso   1.00
C383   C     0.11457   0.81454   0.04800   0.00000  Uiso   1.00
C384   C     0.15184   0.73524   0.25165   0.00000  Uiso   1.00
C385   C     0.21877   0.85212   0.45200   0.00000  Uiso   1.00
C386   C     0.26529   0.86937   0.02095   0.00000  Uiso   1.00
C387   C     0.06804   0.79729   0.47905   0.00000  Uiso   1.00
C388   C     0.06305   0.73925   0.12980   0.00000  Uiso   1.00
C389   C     0.27029   0.92742   0.37021   0.00000  Uiso   1.00
C390   C     0.22914   0.66813   0.20079   0.00000  Uiso   1.00
C391   C     0.10420   0.99854   0.29921   0.00000  Uiso   1.00
C392   C     0.26716   0.87022   0.47476   0.00000  Uiso   1.00
C393   C     0.06617   0.79644   0.02523   0.00000  Uiso   1.00
C394   C     0.18669   0.98480   0.23961   0.00000  Uiso   1.00
C395   C     0.14664   0.68187   0.26039   0.00000  Uiso   1.00
C396   C     0.16775   0.83405   0.33657   0.00000  Uiso   1.00
C397   C     0.16559   0.83262   0.16343   0.00000  Uiso   1.00
C398   C     0.11383   0.81386   0.09479   0.00000  Uiso   1.00
H399   H     0.25155   0.86481   0.10776   0.00000  Uiso   1.00
H400   H     0.06051   0.71654   0.09810   0.00000  Uiso   1.00
H401   H     0.02463   0.72810   0.15235   0.00000  Uiso   1.00
H402   H     0.10247   0.72968   0.14637   0.00000  Uiso   1.00
H403   H     0.30825   0.85958   0.38733   0.00000  Uiso   1.00
H404   H     0.27284   0.95012   0.40190   0.00000  Uiso   1.00
H405   H     0.23086   0.93699   0.35364   0.00000  Uiso   1.00
H406   H     0.30870   0.93857   0.34765   0.00000  Uiso   1.00
H407   H     0.24449   0.96755   0.18094   0.00000  Uiso   1.00
H408   H     0.20810   0.69276   0.17734   0.00000  Uiso   1.00
H409   H     0.26788   0.68927   0.21346   0.00000  Uiso   1.00
H410   H     0.08178   0.80186   0.39224   0.00000  Uiso   1.00
H411   H     0.08885   0.69912   0.31906   0.00000  Uiso   1.00
H412   H     0.06545   0.97740   0.28654   0.00000  Uiso   1.00
H413   H     0.12523   0.97390   0.32266   0.00000  Uiso   1.00
H414   H     0.30322   0.88328   0.03781   0.00000  Uiso   1.00
H415   H     0.03011   0.78338   0.46219   0.00000  Uiso   1.00
H416   H     0.30672   0.88543   0.45750   0.00000  Uiso   1.00
H417   H     0.02662   0.78123   0.04249   0.00000  Uiso   1.00
H418   H     0.00487   0.79424   0.21637   0.00000  Uiso   1.00
H419   H     0.32847   0.87242   0.28363   0.00000  Uiso   1.00
H420   H     0.02508   0.80708   0.11267   0.00000  Uiso   1.00
N421   N     0.31678   0.81932   0.23783   0.00000  Uiso   1.00
N422   N     0.01656   0.84735   0.26217   0.00000  Uiso   1.00
N423   N     0.06413   0.79425   0.12113   0.00000  Uiso   1.00
N424   N     0.26920   0.87242   0.37887   0.00000  Uiso   1.00
O425   O     0.12975   0.91286   0.25298   0.00000  Uiso   1.00
O426   O     0.20358   0.75381   0.24701   0.00000  Uiso   1.00
O427   O     0.22613   0.90387   0.24518   0.00000  Uiso   1.00
O428   O     0.10720   0.76279   0.25481   0.00000  Uiso   1.00
O429   O     0.11847   0.83784   0.31997   0.00000  Uiso   1.00
O430   O     0.21486   0.82883   0.18002   0.00000  Uiso   1.00
O431   O     0.21485   0.82885   0.31217   0.00000  Uiso   1.00
O432   O     0.11848   0.83781   0.18782   0.00000  Uiso   1.00
Zn433  Zn    0.10231   0.83933   0.25521   0.00000  Uiso   1.00
Zn434  Zn    0.23102   0.82734   0.24479   0.00000  Uiso   1.00
C435   C     0.51482   0.93143   0.24835   0.00000  Uiso   1.00
C436   C     0.55284   0.85280   0.40521   0.00000  Uiso   1.00
C437   C     0.49714   0.83217   0.11564   0.00000  Uiso   1.00
C438   C     0.50286   0.83450   0.38436   0.00000  Uiso   1.00
C439   C     0.54697   0.85042   0.09102   0.00000  Uiso   1.00
C440   C     0.45303   0.81625   0.40898   0.00000  Uiso   1.00
C441   C     0.54838   0.85095   0.04513   0.00000  Uiso   1.00
C442   C     0.45162   0.81571   0.45487   0.00000  Uiso   1.00
C443   C     0.49902   0.83308   0.02331   0.00000  Uiso   1.00
C444   C     0.50098   0.83358   0.47669   0.00000  Uiso   1.00
C445   C     0.44790   0.81454   0.04800   0.00000  Uiso   1.00
C446   C     0.48518   0.73524   0.25165   0.00000  Uiso   1.00
C447   C     0.55210   0.85212   0.45200   0.00000  Uiso   1.00
C448   C     0.59863   0.86937   0.02095   0.00000  Uiso   1.00
C449   C     0.40138   0.79729   0.47905   0.00000  Uiso   1.00
C450   C     0.39638   0.73925   0.12980   0.00000  Uiso   1.00
C451   C     0.60362   0.92742   0.37021   0.00000  Uiso   1.00
C452   C     0.56247   0.66813   0.20079   0.00000  Uiso   1.00
C453   C     0.43753   0.99854   0.29921   0.00000  Uiso   1.00
C454   C     0.60050   0.87022   0.47476   0.00000  Uiso   1.00
C455   C     0.39951   0.79644   0.02523   0.00000  Uiso   1.00
C456   C     0.52002   0.98480   0.23961   0.00000  Uiso   1.00
C457   C     0.47998   0.68187   0.26039   0.00000  Uiso   1.00
C458   C     0.50108   0.83405   0.33657   0.00000  Uiso   1.00
C459   C     0.49892   0.83262   0.16343   0.00000  Uiso   1.00
C460   C     0.44716   0.81386   0.09479   0.00000  Uiso   1.00
H461   H     0.58489   0.86481   0.10776   0.00000  Uiso   1.00
H462   H     0.39384   0.71654   0.09810   0.00000  Uiso   1.00
H463   H     0.35796   0.72810   0.15235   0.00000  Uiso   1.00
H464   H     0.43581   0.72968   0.14637   0.00000  Uiso   1.00
H465   H     0.64158   0.85958   0.38733   0.00000  Uiso   1.00
H466   H     0.60617   0.95012   0.40190   0.00000  Uiso   1.00
H467   H     0.56419   0.93699   0.35364   0.00000  Uiso   1.00
H468   H     0.64203   0.93857   0.34765   0.00000  Uiso   1.00
H469   H     0.57782   0.96755   0.18094   0.00000  Uiso   1.00
H470   H     0.54143   0.69276   0.17734   0.00000  Uiso   1.00
H471   H     0.60121   0.68927   0.21346   0.00000  Uiso   1.00
H472   H     0.41511   0.80186   0.39224   0.00000  Uiso   1.00
H473   H     0.42218   0.69912   0.31906   0.00000  Uiso   1.00
H474   H     0.39879   0.97740   0.28654   0.00000  Uiso   1.00
H475   H     0.45857   0.97390   0.32266   0.00000  Uiso   1.00
H476   H     0.63656   0.88328   0.03781   0.00000  Uiso   1.00
H477   H     0.36344   0.78338   0.46219   0.00000  Uiso   1.00
H478   H     0.64005   0.88543   0.45750   0.00000  Uiso   1.00
H479   H     0.35995   0.78123   0.04249   0.00000  Uiso   1.00
H480   H     0.33820   0.79424   0.21637   0.00000  Uiso   1.00
H481   H     0.66180   0.87242   0.28363   0.00000  Uiso   1.00
H482   H     0.35842   0.80708   0.11267   0.00000  Uiso   1.00
N483   N     0.65011   0.81932   0.23783   0.00000  Uiso   1.00
N484   N     0.34989   0.84735   0.26217   0.00000  Uiso   1.00
N485   N     0.39747   0.79425   0.12113   0.00000  Uiso   1.00
N486   N     0.60253   0.87242   0.37887   0.00000  Uiso   1.00
O487   O     0.46308   0.91286   0.25298   0.00000  Uiso   1.00
O488   O     0.53692   0.75381   0.24701   0.00000  Uiso   1.00
O489   O     0.55946   0.90387   0.24518   0.00000  Uiso   1.00
O490   O     0.44054   0.76279   0.25481   0.00000  Uiso   1.00
O491   O     0.45181   0.83784   0.31997   0.00000  Uiso   1.00
O492   O     0.54819   0.82883   0.18002   0.00000  Uiso   1.00
O493   O     0.54819   0.82885   0.31217   0.00000  Uiso   1.00
O494   O     0.45181   0.83781   0.18782   0.00000  Uiso   1.00
Zn495  Zn    0.43565   0.83933   0.25521   0.00000  Uiso   1.00
Zn496  Zn    0.56435   0.82734   0.24479   0.00000  Uiso   1.00
C497   C     0.84816   0.93143   0.24835   0.00000  Uiso   1.00
C498   C     0.88617   0.85280   0.40521   0.00000  Uiso   1.00
C499   C     0.83048   0.83217   0.11564   0.00000  Uiso   1.00
C500   C     0.83619   0.83450   0.38436   0.00000  Uiso   1.00
C501   C     0.88031   0.85042   0.09102   0.00000  Uiso   1.00
C502   C     0.78636   0.81625   0.40898   0.00000  Uiso   1.00
C503   C     0.88171   0.85095   0.04513   0.00000  Uiso   1.00
C504   C     0.78496   0.81571   0.45487   0.00000  Uiso   1.00
C505   C     0.83235   0.83308   0.02331   0.00000  Uiso   1.00
C506   C     0.83432   0.83358   0.47669   0.00000  Uiso   1.00
C507   C     0.78124   0.81454   0.04800   0.00000  Uiso   1.00
C508   C     0.81851   0.73524   0.25165   0.00000  Uiso   1.00
C509   C     0.88543   0.85212   0.45200   0.00000  Uiso   1.00
C510   C     0.93196   0.86937   0.02095   0.00000  Uiso   1.00
C511   C     0.73471   0.79729   0.47905   0.00000  Uiso   1.00
C512   C     0.72971   0.73925   0.12980   0.00000  Uiso   1.00
C513   C     0.93695   0.92742   0.37021   0.00000  Uiso   1.00
C514   C     0.89580   0.66813   0.20079   0.00000  Uiso   1.00
C515   C     0.77086   0.99854   0.29921   0.00000  Uiso   1.00
C516   C     0.93383   0.87022   0.47476   0.00000  Uiso   1.00
C517   C     0.73284   0.79644   0.02523   0.00000  Uiso   1.00
C518   C     0.85336   0.98480   0.23961   0.00000  Uiso   1.00
C519   C     0.81331   0.68187   0.26039   0.00000  Uiso   1.00
C520   C     0.83441   0.83405   0.33657   0.00000  Uiso   1.00
C521   C     0.83225   0.83262   0.16343   0.00000  Uiso   1.00
C522   C     0.78050   0.81386   0.09479   0.00000  Uiso   1.00
H523   H     0.91822   0.86481   0.10776   0.00000  Uiso   1.00
H524   H     0.72717   0.71654   0.09810   0.00000  Uiso   1.00
H525   H     0.69130   0.72810   0.15235   0.00000  Uiso   1.00
H526   H     0.76914   0.72968   0.14637   0.00000  Uiso   1.00
H527   H     0.97492   0.85958   0.38733   0.00000  Uiso   1.00
H528   H     0.93950   0.95012   0.40190   0.00000  Uiso   1.00
H529   H     0.89752   0.93699   0.35364   0.00000  Uiso   1.00
H530   H     0.97537   0.93857   0.34765   0.00000  Uiso   1.00
H531   H     0.91115   0.96755   0.18094   0.00000  Uiso   1.00
H532   H     0.87477   0.69276   0.17734   0.00000  Uiso   1.00
H533   H     0.93455   0.68927   0.21346   0.00000  Uiso   1.00
H534   H     0.74845   0.80186   0.39224   0.00000  Uiso   1.00
H535   H     0.75551   0.69912   0.31906   0.00000  Uiso   1.00
H536   H     0.73212   0.97740   0.28654   0.00000  Uiso   1.00
H537   H     0.79190   0.97390   0.32266   0.00000  Uiso   1.00
H538   H     0.96989   0.88328   0.03781   0.00000  Uiso   1.00
H539   H     0.69678   0.78338   0.46219   0.00000  Uiso   1.00
H540   H     0.97338   0.88543   0.45750   0.00000  Uiso   1.00
H541   H     0.69328   0.78123   0.04249   0.00000  Uiso   1.00
H542   H     0.67153   0.79424   0.21637   0.00000  Uiso   1.00
H543   H     0.99513   0.87242   0.28363   0.00000  Uiso   1.00
H544   H     0.69175   0.80708   0.11267   0.00000  Uiso   1.00
N545   N     0.98344   0.81932   0.23783   0.00000  Uiso   1.00
N546   N     0.68322   0.84735   0.26217   0.00000  Uiso   1.00
N547   N     0.73080   0.79425   0.12113   0.00000  Uiso   1.00
N548   N     0.93587   0.87242   0.37887   0.00000  Uiso   1.00
O549   O     0.79642   0.91286   0.25298   0.00000  Uiso   1.00
O550   O     0.87025   0.75381   0.24701   0.00000  Uiso   1.00
O551   O     0.89280   0.90387   0.24518   0.00000  Uiso   1.00
O552   O     0.77387   0.76279   0.25481   0.00000  Uiso   1.00
O553   O     0.78514   0.83784   0.31997   0.00000  Uiso   1.00
O554   O     0.88153   0.82883   0.18002   0.00000  Uiso   1.00
O555   O     0.88152   0.82885   0.31217   0.00000  Uiso   1.00
O556   O     0.78515   0.83781   0.18782   0.00000  Uiso   1.00
Zn557  Zn    0.76898   0.83933   0.25521   0.00000  Uiso   1.00
Zn558  Zn    0.89769   0.82734   0.24479   0.00000  Uiso   1.00
C559   C     0.18149   0.26476   0.74835   0.00000  Uiso   1.00
C560   C     0.21950   0.18614   0.90521   0.00000  Uiso   1.00
C561   C     0.16381   0.16550   0.61564   0.00000  Uiso   1.00
C562   C     0.16952   0.16783   0.88436   0.00000  Uiso   1.00
C563   C     0.21364   0.18375   0.59102   0.00000  Uiso   1.00
C564   C     0.11970   0.14958   0.90898   0.00000  Uiso   1.00
C565   C     0.21505   0.18429   0.54513   0.00000  Uiso   1.00
C566   C     0.11829   0.14904   0.95487   0.00000  Uiso   1.00
C567   C     0.16569   0.16641   0.52331   0.00000  Uiso   1.00
C568   C     0.16765   0.16692   0.97669   0.00000  Uiso   1.00
C569   C     0.11457   0.14788   0.54800   0.00000  Uiso   1.00
C570   C     0.15184   0.06857   0.75165   0.00000  Uiso   1.00
C571   C     0.21877   0.18545   0.95200   0.00000  Uiso   1.00
C572   C     0.26529   0.20270   0.52095   0.00000  Uiso   1.00
C573   C     0.06804   0.13062   0.97905   0.00000  Uiso   1.00
C574   C     0.06305   0.07258   0.62980   0.00000  Uiso   1.00
C575   C     0.27029   0.26075   0.87021   0.00000  Uiso   1.00
C576   C     0.22914   0.00146   0.70079   0.00000  Uiso   1.00
C577   C     0.10420   0.33187   0.79921   0.00000  Uiso   1.00
C578   C     0.26716   0.20355   0.97476   0.00000  Uiso   1.00
C579   C     0.06617   0.12977   0.52523   0.00000  Uiso   1.00
C580   C     0.18669   0.31813   0.73961   0.00000  Uiso   1.00
C581   C     0.14664   0.01520   0.76039   0.00000  Uiso   1.00
C582   C     0.16775   0.16738   0.83657   0.00000  Uiso   1.00
C583   C     0.16559   0.16595   0.66343   0.00000  Uiso   1.00
C584   C     0.11383   0.14719   0.59479   0.00000  Uiso   1.00
H585   H     0.25155   0.19814   0.60776   0.00000  Uiso   1.00
H586   H     0.06051   0.04987   0.59810   0.00000  Uiso   1.00
H587   H     0.02463   0.06143   0.65235   0.00000  Uiso   1.00
H588   H     0.10247   0.06301   0.64637   0.00000  Uiso   1.00
H589   H     0.30825   0.19292   0.88733   0.00000  Uiso   1.00
H590   H     0.27284   0.28346   0.90190   0.00000  Uiso   1.00
H591   H     0.23086   0.27032   0.85364   0.00000  Uiso   1.00
H592   H     0.30870   0.27190   0.84765   0.00000  Uiso   1.00
H593   H     0.24449   0.30088   0.68094   0.00000  Uiso   1.00
H594   H     0.20810   0.02610   0.67734   0.00000  Uiso   1.00
H595   H     0.26788   0.02260   0.71346   0.00000  Uiso   1.00
H596   H     0.08178   0.13519   0.89224   0.00000  Uiso   1.00
H597   H     0.08885   0.03245   0.81906   0.00000  Uiso   1.00
H598   H     0.06545   0.31073   0.78654   0.00000  Uiso   1.00
H599   H     0.12523   0.30724   0.82266   0.00000  Uiso   1.00
H600   H     0.30322   0.21661   0.53781   0.00000  Uiso   1.00
H601   H     0.03011   0.11671   0.96219   0.00000  Uiso   1.00
H602   H     0.30672   0.21876   0.95750   0.00000  Uiso   1.00
H603   H     0.02662   0.11456   0.54249   0.00000  Uiso   1.00
H604   H     0.00487   0.12758   0.71637   0.00000  Uiso   1.00
H605   H     0.32847   0.20576   0.78363   0.00000  Uiso   1.00
H606   H     0.02508   0.14041   0.61267   0.00000  Uiso   1.00
N607   N     0.31678   0.15265   0.73783   0.00000  Uiso   1.00
N608   N     0.01656   0.18068   0.76217   0.00000  Uiso   1.00
N609   N     0.06413   0.12758   0.62113   0.00000  Uiso   1.00
N610   N     0.26920   0.20575   0.87887   0.00000  Uiso   1.00
O611   O     0.12975   0.24619   0.75298   0.00000  Uiso   1.00
O612   O     0.20358   0.08714   0.74701   0.00000  Uiso   1.00
O613   O     0.22613   0.23721   0.74518   0.00000  Uiso   1.00
O614   O     0.10720   0.09613   0.75481   0.00000  Uiso   1.00
O615   O     0.11847   0.17117   0.81997   0.00000  Uiso   1.00
O616   O     0.21486   0.16216   0.68002   0.00000  Uiso   1.00
O617   O     0.21485   0.16219   0.81217   0.00000  Uiso   1.00
O618   O     0.11848   0.17115   0.68782   0.00000  Uiso   1.00
Zn619  Zn    0.10231   0.17266   0.75521   0.00000  Uiso   1.00
Zn620  Zn    0.23102   0.16067   0.74479   0.00000  Uiso   1.00
C621   C     0.51482   0.26476   0.74835   0.00000  Uiso   1.00
C622   C     0.55284   0.18614   0.90521   0.00000  Uiso   1.00
C623   C     0.49714   0.16550   0.61564   0.00000  Uiso   1.00
C624   C     0.50286   0.16783   0.88436   0.00000  Uiso   1.00
C625   C     0.54697   0.18375   0.59102   0.00000  Uiso   1.00
C626   C     0.45303   0.14958   0.90898   0.00000  Uiso   1.00
C627   C     0.54838   0.18429   0.54513   0.00000  Uiso   1.00
C628   C     0.45162   0.14904   0.95487   0.00000  Uiso   1.00
C629   C     0.49902   0.16641   0.52331   0.00000  Uiso   1.00
C630   C     0.50098   0.16692   0.97669   0.00000  Uiso   1.00
C631   C     0.44790   0.14788   0.54800   0.00000  Uiso   1.00
C632   C     0.48518   0.06857   0.75165   0.00000  Uiso   1.00
C633   C     0.55210   0.18545   0.95200   0.00000  Uiso   1.00
C634   C     0.59863   0.20270   0.52095   0.00000  Uiso   1.00
C635   C     0.40138   0.13062   0.97905   0.00000  Uiso   1.00
C636   C     0.39638   0.07258   0.62980   0.00000  Uiso   1.00
C637   C     0.60362   0.26075   0.87021   0.00000  Uiso   1.00
C638   C     0.56247   0.00146   0.70079   0.00000  Uiso   1.00
C639   C     0.43753   0.33187   0.79921   0.00000  Uiso   1.00
C640   C     0.60050   0.20355   0.97476   0.00000  Uiso   1.00
C641   C     0.39951   0.12977   0.52523   0.00000  Uiso   1.00
C642   C     0.52002   0.31813   0.73961   0.00000  Uiso   1.00
C643   C     0.47998   0.01520   0.76039   0.00000  Uiso   1.00
C644   C     0.50108   0.16738   0.83657   0.00000  Uiso   1.00
C645   C     0.49892   0.16595   0.66343   0.00000  Uiso   1.00
C646   C     0.44716   0.14719   0.59479   0.00000  Uiso   1.00
H647   H     0.58489   0.19814   0.60776   0.00000  Uiso   1.00
H648   H     0.39384   0.04987   0.59810   0.00000  Uiso   1.00
H649   H     0.35796   0.06143   0.65235   0.00000  Uiso   1.00
H650   H     0.43581   0.06301   0.64637   0.00000  Uiso   1.00
H651   H     0.64158   0.19292   0.88733   0.00000  Uiso   1.00
H652   H     0.60617   0.28346   0.90190   0.00000  Uiso   1.00
H653   H     0.56419   0.27032   0.85364   0.00000  Uiso   1.00
H654   H     0.64203   0.27190   0.84765   0.00000  Uiso   1.00
H655   H     0.57782   0.30088   0.68094   0.00000  Uiso   1.00
H656   H     0.54143   0.02610   0.67734   0.00000  Uiso   1.00
H657   H     0.60121   0.02260   0.71346   0.00000  Uiso   1.00
H658   H     0.41511   0.13519   0.89224   0.00000  Uiso   1.00
H659   H     0.42218   0.03245   0.81906   0.00000  Uiso   1.00
H660   H     0.39879   0.31073   0.78654   0.00000  Uiso   1.00
H661   H     0.45857   0.30724   0.82266   0.00000  Uiso   1.00
H662   H     0.63656   0.21661   0.53781   0.00000  Uiso   1.00
H663   H     0.36344   0.11671   0.96219   0.00000  Uiso   1.00
H664   H     0.64005   0.21876   0.95750   0.00000  Uiso   1.00
H665   H     0.35995   0.11456   0.54249   0.00000  Uiso   1.00
H666   H     0.33820   0.12758   0.71637   0.00000  Uiso   1.00
H667   H     0.66180   0.20576   0.78363   0.00000  Uiso   1.00
H668   H     0.35842   0.14041   0.61267   0.00000  Uiso   1.00
N669   N     0.65011   0.15265   0.73783   0.00000  Uiso   1.00
N670   N     0.34989   0.18068   0.76217   0.00000  Uiso   1.00
N671   N     0.39747   0.12758   0.62113   0.00000  Uiso   1.00
N672   N     0.60253   0.20575   0.87887   0.00000  Uiso   1.00
O673   O     0.46308   0.24619   0.75298   0.00000  Uiso   1.00
O674   O     0.53692   0.08714   0.74701   0.00000  Uiso   1.00
O675   O     0.55946   0.23721   0.74518   0.00000  Uiso   1.00
O676   O     0.44054   0.09613   0.75481   0.00000  Uiso   1.00
O677   O     0.45181   0.17117   0.81997   0.00000  Uiso   1.00
O678   O     0.54819   0.16216   0.68002   0.00000  Uiso   1.00
O679   O     0.54819   0.16219   0.81217   0.00000  Uiso   1.00
O680   O     0.45181   0.17115   0.68782   0.00000  Uiso   1.00
Zn681  Zn    0.43565   0.17266   0.75521   0.00000  Uiso   1.00
Zn682  Zn    0.56435   0.16067   0.74479   0.00000  Uiso   1.00
C683   C     0.84816   0.26476   0.74835   0.00000  Uiso   1.00
C684   C     0.88617   0.18614   0.90521   0.00000  Uiso   1.00
C685   C     0.83048   0.16550   0.61564   0.00000  Uiso   1.00
C686   C     0.83619   0.16783   0.88436   0.00000  Uiso   1.00
C687   C     0.88031   0.18375   0.59102   0.00000  Uiso   1.00
C688   C     0.78636   0.14958   0.90898   0.00000  Uiso   1.00
C689   C     0.88171   0.18429   0.54513   0.00000  Uiso   1.00
C690   C     0.78496   0.14904   0.95487   0.00000  Uiso   1.00
C691   C     0.83235   0.16641   0.52331   0.00000  Uiso   1.00
C692   C     0.83432   0.16692   0.97669   0.00000  Uiso   1.00
C693   C     0.78124   0.14788   0.54800   0.00000  Uiso   1.00
C694   C     0.81851   0.06857   0.75165   0.00000  Uiso   1.00
C695   C     0.88543   0.18545   0.95200   0.00000  Uiso   1.00
C696   C     0.93196   0.20270   0.52095   0.00000  Uiso   1.00
C697   C     0.73471   0.13062   0.97905   0.00000  Uiso   1.00
C698   C     0.72971   0.07258   0.62980   0.00000  Uiso   1.00
C699   C     0.93695   0.26075   0.87021   0.00000  Uiso   1.00
C700   C     0.89580   0.00146   0.70079   0.00000  Uiso   1.00
C701   C     0.77086   0.33187   0.79921   0.00000  Uiso   1.00
C702   C     0.93383   0.20355   0.97476   0.00000  Uiso   1.00
C703   C     0.73284   0.12977   0.52523   0.00000  Uiso   1.00
C704   C     0.85336   0.31813   0.73961   0.00000  Uiso   1.00
C705   C     0.81331   0.01520   0.76039   0.00000  Uiso   1.00
C706   C     0.83441   0.16738   0.83657   0.00000  Uiso   1.00
C707   C     0.83225   0.16595   0.66343   0.00000  Uiso   1.00
C708   C     0.78050   0.14719   0.59479   0.00000  Uiso   1.00
H709   H     0.91822   0.19814   0.60776   0.00000  Uiso   1.00
H710   H     0.72717   0.04987   0.59810   0.00000  Uiso   1.00
H711   H     0.69130   0.06143   0.65235   0.00000  Uiso   1.00
H712   H     0.76914   0.06301   0.64637   0.00000  Uiso   1.00
H713   H     0.97492   0.19292   0.88733   0.00000  Uiso   1.00
H714   H     0.93950   0.28346   0.90190   0.00000  Uiso   1.00
H715   H     0.89752   0.27032   0.85364   0.00000  Uiso   1.00
H716   H     0.97537   0.27190   0.84765   0.00000  Uiso   1.00
H717   H     0.91115   0.30088   0.68094   0.00000  Uiso   1.00
H718   H     0.87477   0.02610   0.67734   0.00000  Uiso   1.00
H719   H     0.93455   0.02260   0.71346   0.00000  Uiso   1.00
H720   H     0.74845   0.13519   0.89224   0.00000  Uiso   1.00
H721   H     0.75551   0.03245   0.81906   0.00000  Uiso   1.00
H722   H     0.73212   0.31073   0.78654   0.00000  Uiso   1.00
H723   H     0.79190   0.30724   0.82266   0.00000  Uiso   1.00
H724   H     0.96989   0.21661   0.53781   0.00000  Uiso   1.00
H725   H     0.69678   0.11671   0.96219   0.00000  Uiso   1.00
H726   H     0.97338   0.21876   0.95750   0.00000  Uiso   1.00
H727   H     0.69328   0.11456   0.54249   0.00000  Uiso   1.00
H728   H     0.67153   0.12758   0.71637   0.00000  Uiso   1.00
H729   H     0.99513   0.20576   0.78363   0.00000  Uiso   1.00
H730   H     0.69175   0.14041   0.61267   0.00000  Uiso   1.00
N731   N     0.98344   0.15265   0.73783   0.00000  Uiso   1.00
N732   N     0.68322   0.18068   0.76217   0.00000  Uiso   1.00
N733   N     0.73080   0.12758   0.62113   0.00000  Uiso   1.00
N734   N     0.93587   0.20575   0.87887   0.00000  Uiso   1.00
O735   O     0.79642   0.24619   0.75298   0.00000  Uiso   1.00
O736   O     0.87025   0.08714   0.74701   0.00000  Uiso   1.00
O737   O     0.89280   0.23721   0.74518   0.00000  Uiso   1.00
O738   O     0.77387   0.09613   0.75481   0.00000  Uiso   1.00
O739   O     0.78514   0.17117   0.81997   0.00000  Uiso   1.00
O740   O     0.88153   0.16216   0.68002   0.00000  Uiso   1.00
O741   O     0.88152   0.16219   0.81217   0.00000  Uiso   1.00
O742   O     0.78515   0.17115   0.68782   0.00000  Uiso   1.00
Zn743  Zn    0.76898   0.17266   0.75521   0.00000  Uiso   1.00
Zn744  Zn    0.89769   0.16067   0.74479   0.00000  Uiso   1.00
C745   C     0.18149   0.59810   0.74835   0.00000  Uiso   1.00
C746   C     0.21950   0.51947   0.90521   0.00000  Uiso   1.00
C747   C     0.16381   0.49883   0.61564   0.00000  Uiso   1.00
C748   C     0.16952   0.50116   0.88436   0.00000  Uiso   1.00
C749   C     0.21364   0.51708   0.59102   0.00000  Uiso   1.00
C750   C     0.11970   0.48291   0.90898   0.00000  Uiso   1.00
C751   C     0.21505   0.51762   0.54513   0.00000  Uiso   1.00
C752   C     0.11829   0.48237   0.95487   0.00000  Uiso   1.00
C753   C     0.16569   0.49974   0.52331   0.00000  Uiso   1.00
C754   C     0.16765   0.50025   0.97669   0.00000  Uiso   1.00
C755   C     0.11457   0.48121   0.54800   0.00000  Uiso   1.00
C756   C     0.15184   0.40190   0.75165   0.00000  Uiso   1.00
C757   C     0.21877   0.51878   0.95200   0.00000  Uiso   1.00
C758   C     0.26529   0.53604   0.52095   0.00000  Uiso   1.00
C759   C     0.06804   0.46396   0.97905   0.00000  Uiso   1.00
C760   C     0.06305   0.40591   0.62980   0.00000  Uiso   1.00
C761   C     0.27029   0.59409   0.87021   0.00000  Uiso   1.00
C762   C     0.22914   0.33480   0.70079   0.00000  Uiso   1.00
C763   C     0.10420   0.66520   0.79921   0.00000  Uiso   1.00
C764   C     0.26716   0.53689   0.97476   0.00000  Uiso   1.00
C765   C     0.06617   0.46311   0.52523   0.00000  Uiso   1.00
C766   C     0.18669   0.65146   0.73961   0.00000  Uiso   1.00
C767   C     0.14664   0.34854   0.76039   0.00000  Uiso   1.00
C768   C     0.16775   0.50071   0.83657   0.00000  Uiso   1.00
C769   C     0.16559   0.49929   0.66343   0.00000  Uiso   1.00
C770   C     0.11383   0.48053   0.59479   0.00000  Uiso   1.00
H771   H     0.25155   0.53147   0.60776   0.00000  Uiso   1.00
H772   H     0.06051   0.38320   0.59810   0.00000  Uiso   1.00
H773   H     0.02463   0.39477   0.65235   0.00000  Uiso   1.00
H774   H     0.10247   0.39635   0.64637   0.00000  Uiso   1.00
H775   H     0.30825   0.52625   0.88733   0.00000  Uiso   1.00
H776   H     0.27284   0.61679   0.90190   0.00000  Uiso   1.00
H777   H     0.23086   0.60366   0.85364   0.00000  Uiso   1.00
H778   H     0.30870   0.60524   0.84765   0.00000  Uiso   1.00
H779   H     0.24449   0.63421   0.68094   0.00000  Uiso   1.00
H780   H     0.20810   0.35943   0.67734   0.00000  Uiso   1.00
H781   H     0.26788   0.35593   0.71346   0.00000  Uiso   1.00
H782   H     0.08178   0.46852   0.89224   0.00000  Uiso   1.00
H783   H     0.08885   0.36579   0.81906   0.00000  Uiso   1.00
H784   H     0.06545   0.64407   0.78654   0.00000  Uiso   1.00
H785   H     0.12523   0.64057   0.82266   0.00000  Uiso   1.00
H786   H     0.30322   0.54995   0.53781   0.00000  Uiso   1.00
H787   H     0.03011   0.45005   0.96219   0.00000  Uiso   1.00
H788   H     0.30672   0.55210   0.95750   0.00000  Uiso   1.00
H789   H     0.02662   0.44790   0.54249   0.00000  Uiso   1.00
H790   H     0.00487   0.46091   0.71637   0.00000  Uiso   1.00
H791   H     0.32847   0.53909   0.78363   0.00000  Uiso   1.00
H792   H     0.02508   0.47374   0.61267   0.00000  Uiso   1.00
N793   N     0.31678   0.48598   0.73783   0.00000  Uiso   1.00
N794   N     0.01656   0.51402   0.76217   0.00000  Uiso   1.00
N795   N     0.06413   0.46091   0.62113   0.00000  Uiso   1.00
N796   N     0.26920   0.53909   0.87887   0.00000  Uiso   1.00
O797   O     0.12975   0.57952   0.75298   0.00000  Uiso   1.00
O798   O     0.20358   0.42048   0.74701   0.00000  Uiso   1.00
O799   O     0.22613   0.57054   0.74518   0.00000  Uiso   1.00
O800   O     0.10720   0.42946   0.75481   0.00000  Uiso   1.00
O801   O     0.11847   0.50450   0.81997   0.00000  Uiso   1.00
O802   O     0.21486   0.49550   0.68002   0.00000  Uiso   1.00
O803   O     0.21485   0.49552   0.81217   0.00000  Uiso   1.00
O804   O     0.11848   0.50448   0.68782   0.00000  Uiso   1.00
Zn805  Zn    0.10231   0.50600   0.75521   0.00000  Uiso   1.00
Zn806  Zn    0.23102   0.49400   0.74479   0.00000  Uiso   1.00
C807   C     0.51482   0.59810   0.74835   0.00000  Uiso   1.00
C808   C     0.55284   0.51947   0.90521   0.00000  Uiso   1.00
C809   C     0.49714   0.49883   0.61564   0.00000  Uiso   1.00
C810   C     0.50286   0.50116   0.88436   0.00000  Uiso   1.00
C811   C     0.54697   0.51708   0.59102   0.00000  Uiso   1.00
C812   C     0.45303   0.48291   0.90898   0.00000  Uiso   1.00
C813   C     0.54838   0.51762   0.54513   0.00000  Uiso   1.00
C814   C     0.45162   0.48237   0.95487   0.00000  Uiso   1.00
C815   C     0.49902   0.49974   0.52331   0.00000  Uiso   1.00
C816   C     0.50098   0.50025   0.97669   0.00000  Uiso   1.00
C817   C     0.44790   0.48121   0.54800   0.00000  Uiso   1.00
C818   C     0.48518   0.40190   0.75165   0.00000  Uiso   1.00
C819   C     0.55210   0.51878   0.95200   0.00000  Uiso   1.00
C820   C     0.59863   0.53604   0.52095   0.00000  Uiso   1.00
C821   C     0.40138   0.46396   0.97905   0.00000  Uiso   1.00
C822   C     0.39638   0.40591   0.62980   0.00000  Uiso   1.00
C823   C     0.60362   0.59409   0.87021   0.00000  Uiso   1.00
C824   C     0.56247   0.33480   0.70079   0.00000  Uiso   1.00
C825   C     0.43753   0.66520   0.79921   0.00000  Uiso   1.00
C826   C     0.60050   0.53689   0.97476   0.00000  Uiso   1.00
C827   C     0.39951   0.46311   0.52523   0.00000  Uiso   1.00
C828   C     0.52002   0.65146   0.73961   0.00000  Uiso   1.00
C829   C     0.47998   0.34854   0.76039   0.00000  Uiso   1.00
C830   C     0.50108   0.50071   0.83657   0.00000  Uiso   1.00
C831   C     0.49892   0.49929   0.66343   0.00000  Uiso   1.00
C832   C     0.44716   0.48053   0.59479   0.00000  Uiso   1.00
H833   H     0.58489   0.53147   0.60776   0.00000  Uiso   1.00
H834   H     0.39384   0.38320   0.59810   0.00000  Uiso   1.00
H835   H     0.35796   0.39477   0.65235   0.00000  Uiso   1.00
H836   H     0.43581   0.39635   0.64637   0.00000  Uiso   1.00
H837   H     0.64158   0.52625   0.88733   0.00000  Uiso   1.00
H838   H     0.60617   0.61679   0.90190   0.00000  Uiso   1.00
H839   H     0.56419   0.60366   0.85364   0.00000  Uiso   1.00
H840   H     0.64203   0.60524   0.84765   0.00000  Uiso   1.00
H841   H     0.57782   0.63421   0.68094   0.00000  Uiso   1.00
H842   H     0.54143   0.35943   0.67734   0.00000  Uiso   1.00
H843   H     0.60121   0.35593   0.71346   0.00000  Uiso   1.00
H844   H     0.41511   0.46852   0.89224   0.00000  Uiso   1.00
H845   H     0.42218   0.36579   0.81906   0.00000  Uiso   1.00
H846   H     0.39879   0.64407   0.78654   0.00000  Uiso   1.00
H847   H     0.45857   0.64057   0.82266   0.00000  Uiso   1.00
H848   H     0.63656   0.54995   0.53781   0.00000  Uiso   1.00
H849   H     0.36344   0.45005   0.96219   0.00000  Uiso   1.00
H850   H     0.64005   0.55210   0.95750   0.00000  Uiso   1.00
H851   H     0.35995   0.44790   0.54249   0.00000  Uiso   1.00
H852   H     0.33820   0.46091   0.71637   0.00000  Uiso   1.00
H853   H     0.66180   0.53909   0.78363   0.00000  Uiso   1.00
H854   H     0.35842   0.47374   0.61267   0.00000  Uiso   1.00
N855   N     0.65011   0.48598   0.73783   0.00000  Uiso   1.00
N856   N     0.34989   0.51402   0.76217   0.00000  Uiso   1.00
N857   N     0.39747   0.46091   0.62113   0.00000  Uiso   1.00
N858   N     0.60253   0.53909   0.87887   0.00000  Uiso   1.00
O859   O     0.46308   0.57952   0.75298   0.00000  Uiso   1.00
O860   O     0.53692   0.42048   0.74701   0.00000  Uiso   1.00
O861   O     0.55946   0.57054   0.74518   0.00000  Uiso   1.00
O862   O     0.44054   0.42946   0.75481   0.00000  Uiso   1.00
O863   O     0.45181   0.50450   0.81997   0.00000  Uiso   1.00
O864   O     0.54819   0.49550   0.68002   0.00000  Uiso   1.00
O865   O     0.54819   0.49552   0.81217   0.00000  Uiso   1.00
O866   O     0.45181   0.50448   0.68782   0.00000  Uiso   1.00
Zn867  Zn    0.43565   0.50600   0.75521   0.00000  Uiso   1.00
Zn868  Zn    0.56435   0.49400   0.74479   0.00000  Uiso   1.00
C869   C     0.84816   0.59810   0.74835   0.00000  Uiso   1.00
C870   C     0.88617   0.51947   0.90521   0.00000  Uiso   1.00
C871   C     0.83048   0.49883   0.61564   0.00000  Uiso   1.00
C872   C     0.83619   0.50116   0.88436   0.00000  Uiso   1.00
C873   C     0.88031   0.51708   0.59102   0.00000  Uiso   1.00
C874   C     0.78636   0.48291   0.90898   0.00000  Uiso   1.00
C875   C     0.88171   0.51762   0.54513   0.00000  Uiso   1.00
C876   C     0.78496   0.48237   0.95487   0.00000  Uiso   1.00
C877   C     0.83235   0.49974   0.52331   0.00000  Uiso   1.00
C878   C     0.83432   0.50025   0.97669   0.00000  Uiso   1.00
C879   C     0.78124   0.48121   0.54800   0.00000  Uiso   1.00
C880   C     0.81851   0.40190   0.75165   0.00000  Uiso   1.00
C881   C     0.88543   0.51878   0.95200   0.00000  Uiso   1.00
C882   C     0.93196   0.53604   0.52095   0.00000  Uiso   1.00
C883   C     0.73471   0.46396   0.97905   0.00000  Uiso   1.00
C884   C     0.72971   0.40591   0.62980   0.00000  Uiso   1.00
C885   C     0.93695   0.59409   0.87021   0.00000  Uiso   1.00
C886   C     0.89580   0.33480   0.70079   0.00000  Uiso   1.00
C887   C     0.77086   0.66520   0.79921   0.00000  Uiso   1.00
C888   C     0.93383   0.53689   0.97476   0.00000  Uiso   1.00
C889   C     0.73284   0.46311   0.52523   0.00000  Uiso   1.00
C890   C     0.85336   0.65146   0.73961   0.00000  Uiso   1.00
C891   C     0.81331   0.34854   0.76039   0.00000  Uiso   1.00
C892   C     0.83441   0.50071   0.83657   0.00000  Uiso   1.00
C893   C     0.83225   0.49929   0.66343   0.00000  Uiso   1.00
C894   C     0.78050   0.48053   0.59479   0.00000  Uiso   1.00
H895   H     0.91822   0.53147   0.60776   0.00000  Uiso   1.00
H896   H     0.72717   0.38320   0.59810   0.00000  Uiso   1.00
H897   H     0.69130   0.39477   0.65235   0.00000  Uiso   1.00
H898   H     0.76914   0.39635   0.64637   0.00000  Uiso   1.00
H899   H     0.97492   0.52625   0.88733   0.00000  Uiso   1.00
H900   H     0.93950   0.61679   0.90190   0.00000  Uiso   1.00
H901   H     0.89752   0.60366   0.85364   0.00000  Uiso   1.00
H902   H     0.97537   0.60524   0.84765   0.00000  Uiso   1.00
H903   H     0.91115   0.63421   0.68094   0.00000  Uiso   1.00
H904   H     0.87477   0.35943   0.67734   0.00000  Uiso   1.00
H905   H     0.93455   0.35593   0.71346   0.00000  Uiso   1.00
H906   H     0.74845   0.46852   0.89224   0.00000  Uiso   1.00
H907   H     0.75551   0.36579   0.81906   0.00000  Uiso   1.00
H908   H     0.73212   0.64407   0.78654   0.00000  Uiso   1.00
H909   H     0.79190   0.64057   0.82266   0.00000  Uiso   1.00
H910   H     0.96989   0.54995   0.53781   0.00000  Uiso   1.00
H911   H     0.69678   0.45005   0.96219   0.00000  Uiso   1.00
H912   H     0.97338   0.55210   0.95750   0.00000  Uiso   1.00
H913   H     0.69328   0.44790   0.54249   0.00000  Uiso   1.00
H914   H     0.67153   0.46091   0.71637   0.00000  Uiso   1.00
H915   H     0.99513   0.53909   0.78363   0.00000  Uiso   1.00
H916   H     0.69175   0.47374   0.61267   0.00000  Uiso   1.00
N917   N     0.98344   0.48598   0.73783   0.00000  Uiso   1.00
N918   N     0.68322   0.51402   0.76217   0.00000  Uiso   1.00
N919   N     0.73080   0.46091   0.62113   0.00000  Uiso   1.00
N920   N     0.93587   0.53909   0.87887   0.00000  Uiso   1.00
O921   O     0.79642   0.57952   0.75298   0.00000  Uiso   1.00
O922   O     0.87025   0.42048   0.74701   0.00000  Uiso   1.00
O923   O     0.89280   0.57054   0.74518   0.00000  Uiso   1.00
O924   O     0.77387   0.42946   0.75481   0.00000  Uiso   1.00
O925   O     0.78514   0.50450   0.81997   0.00000  Uiso   1.00
O926   O     0.88153   0.49550   0.68002   0.00000  Uiso   1.00
O927   O     0.88152   0.49552   0.81217   0.00000  Uiso   1.00
O928   O     0.78515   0.50448   0.68782   0.00000  Uiso   1.00
Zn929  Zn    0.76898   0.50600   0.75521   0.00000  Uiso   1.00
Zn930  Zn    0.89769   0.49400   0.74479   0.00000  Uiso   1.00
C931   C     0.18149   0.93143   0.74835   0.00000  Uiso   1.00
C932   C     0.21950   0.85280   0.90521   0.00000  Uiso   1.00
C933   C     0.16381   0.83217   0.61564   0.00000  Uiso   1.00
C934   C     0.16952   0.83450   0.88436   0.00000  Uiso   1.00
C935   C     0.21364   0.85042   0.59102   0.00000  Uiso   1.00
C936   C     0.11970   0.81625   0.90898   0.00000  Uiso   1.00
C937   C     0.21505   0.85095   0.54513   0.00000  Uiso   1.00
C938   C     0.11829   0.81571   0.95487   0.00000  Uiso   1.00
C939   C     0.16569   0.83308   0.52331   0.00000  Uiso   1.00
C940   C     0.16765   0.83358   0.97669   0.00000  Uiso   1.00
C941   C     0.11457   0.81454   0.54800   0.00000  Uiso   1.00
C942   C     0.15184   0.73524   0.75165   0.00000  Uiso   1.00
C943   C     0.21877   0.85212   0.95200   0.00000  Uiso   1.00
C944   C     0.26529   0.86937   0.52095   0.00000  Uiso   1.00
C945   C     0.06804   0.79729   0.97905   0.00000  Uiso   1.00
C946   C     0.06305   0.73925   0.62980   0.00000  Uiso   1.00
C947   C     0.27029   0.92742   0.87021   0.00000  Uiso   1.00
C948   C     0.22914   0.66813   0.70079   0.00000  Uiso   1.00
C949   C     0.10420   0.99854   0.79921   0.00000  Uiso   1.00
C950   C     0.26716   0.87022   0.97476   0.00000  Uiso   1.00
C951   C     0.06617   0.79644   0.52523   0.00000  Uiso   1.00
C952   C     0.18669   0.98480   0.73961   0.00000  Uiso   1.00
C953   C     0.14664   0.68187   0.76039   0.00000  Uiso   1.00
C954   C     0.16775   0.83405   0.83657   0.00000  Uiso   1.00
C955   C     0.16559   0.83262   0.66343   0.00000  Uiso   1.00
C956   C     0.11383   0.81386   0.59479   0.00000  Uiso   1.00
H957   H     0.25155   0.86481   0.60776   0.00000  Uiso   1.00
H958   H     0.06051   0.71654   0.59810   0.00000  Uiso   1.00
H959   H     0.02463   0.72810   0.65235   0.00000  Uiso   1.00
H960   H     0.10247   0.72968   0.64637   0.00000  Uiso   1.00
H961   H     0.30825   0.85958   0.88733   0.00000  Uiso   1.00
H962   H     0.27284   0.95012   0.90190   0.00000  Uiso   1.00
H963   H     0.23086   0.93699   0.85364   0.00000  Uiso   1.00
H964   H     0.30870   0.93857   0.84765   0.00000  Uiso   1.00
H965   H     0.24449   0.96755   0.68094   0.00000  Uiso   1.00
H966   H     0.20810   0.69276   0.67734   0.00000  Uiso   1.00
H967   H     0.26788   0.68927   0.71346   0.00000  Uiso   1.00
H968   H     0.08178   0.80186   0.89224   0.00000  Uiso   1.00
H969   H     0.08885   0.69912   0.81906   0.00000  Uiso   1.00
H970   H     0.06545   0.97740   0.78654   0.00000  Uiso   1.00
H971   H     0.12523   0.97390   0.82266   0.00000  Uiso   1.00
H972   H     0.30322   0.88328   0.53781   0.00000  Uiso   1.00
H973   H     0.03011   0.78338   0.96219   0.00000  Uiso   1.00
H974   H     0.30672   0.88543   0.95750   0.00000  Uiso   1.00
H975   H     0.02662   0.78123   0.54249   0.00000  Uiso   1.00
H976   H     0.00487   0.79424   0.71637   0.00000  Uiso   1.00
H977   H     0.32847   0.87242   0.78363   0.00000  Uiso   1.00
H978   H     0.02508   0.80708   0.61267   0.00000  Uiso   1.00
N979   N     0.31678   0.81932   0.73783   0.00000  Uiso   1.00
N980   N     0.01656   0.84735   0.76217   0.00000  Uiso   1.00
N981   N     0.06413   0.79425   0.62113   0.00000  Uiso   1.00
N982   N     0.26920   0.87242   0.87887   0.00000  Uiso   1.00
O983   O     0.12975   0.91286   0.75298   0.00000  Uiso   1.00
O984   O     0.20358   0.75381   0.74701   0.00000  Uiso   1.00
O985   O     0.22613   0.90387   0.74518   0.00000  Uiso   1.00
O986   O     0.10720   0.76279   0.75481   0.00000  Uiso   1.00
O987   O     0.11847   0.83784   0.81997   0.00000  Uiso   1.00
O988   O     0.21486   0.82883   0.68002   0.00000  Uiso   1.00
O989   O     0.21485   0.82885   0.81217   0.00000  Uiso   1.00
O990   O     0.11848   0.83781   0.68782   0.00000  Uiso   1.00
Zn991  Zn    0.10231   0.83933   0.75521   0.00000  Uiso   1.00
Zn992  Zn    0.23102   0.82734   0.74479   0.00000  Uiso   1.00
C993   C     0.51482   0.93143   0.74835   0.00000  Uiso   1.00
C994   C     0.55284   0.85280   0.90521   0.00000  Uiso   1.00
C995   C     0.49714   0.83217   0.61564   0.00000  Uiso   1.00
C996   C     0.50286   0.83450   0.88436   0.00000  Uiso   1.00
C997   C     0.54697   0.85042   0.59102   0.00000  Uiso   1.00
C998   C     0.45303   0.81625   0.90898   0.00000  Uiso   1.00
C999   C     0.54838   0.85095   0.54513   0.00000  Uiso   1.00
C1000  C     0.45162   0.81571   0.95487   0.00000  Uiso   1.00
C1001  C     0.49902   0.83308   0.52331   0.00000  Uiso   1.00
C1002  C     0.50098   0.83358   0.97669   0.00000  Uiso   1.00
C1003  C     0.44790   0.81454   0.54800   0.00000  Uiso   1.00
C1004  C     0.48518   0.73524   0.75165   0.00000  Uiso   1.00
C1005  C     0.55210   0.85212   0.95200   0.00000  Uiso   1.00
C1006  C     0.59863   0.86937   0.52095   0.00000  Uiso   1.00
C1007  C     0.40138   0.79729   0.97905   0.00000  Uiso   1.00
C1008  C     0.39638   0.73925   0.62980   0.00000  Uiso   1.00
C1009  C     0.60362   0.92742   0.87021   0.00000  Uiso   1.00
C1010  C     0.56247   0.66813   0.70079   0.00000  Uiso   1.00
C1011  C     0.43753   0.99854   0.79921   0.00000  Uiso   1.00
C1012  C     0.60050   0.87022   0.97476   0.00000  Uiso   1.00
C1013  C     0.39951   0.79644   0.52523   0.00000  Uiso   1.00
C1014  C     0.52002   0.98480   0.73961   0.00000  Uiso   1.00
C1015  C     0.47998   0.68187   0.76039   0.00000  Uiso   1.00
C1016  C     0.50108   0.83405   0.83657   0.00000  Uiso   1.00
C1017  C     0.49892   0.83262   0.66343   0.00000  Uiso   1.00
C1018  C     0.44716   0.81386   0.59479   0.00000  Uiso   1.00
H1019  H     0.58489   0.86481   0.60776   0.00000  Uiso   1.00
H1020  H     0.39384   0.71654   0.59810   0.00000  Uiso   1.00
H1021  H     0.35796   0.72810   0.65235   0.00000  Uiso   1.00
H1022  H     0.43581   0.72968   0.64637   0.00000  Uiso   1.00
H1023  H     0.64158   0.85958   0.88733   0.00000  Uiso   1.00
H1024  H     0.60617   0.95012   0.90190   0.00000  Uiso   1.00
H1025  H     0.56419   0.93699   0.85364   0.00000  Uiso   1.00
H1026  H     0.64203   0.93857   0.84765   0.00000  Uiso   1.00
H1027  H     0.57782   0.96755   0.68094   0.00000  Uiso   1.00
H1028  H     0.54143   0.69276   0.67734   0.00000  Uiso   1.00
H1029  H     0.60121   0.68927   0.71346   0.00000  Uiso   1.00
H1030  H     0.41511   0.80186   0.89224   0.00000  Uiso   1.00
H1031  H     0.42218   0.69912   0.81906   0.00000  Uiso   1.00
H1032  H     0.39879   0.97740   0.78654   0.00000  Uiso   1.00
H1033  H     0.45857   0.97390   0.82266   0.00000  Uiso   1.00
H1034  H     0.63656   0.88328   0.53781   0.00000  Uiso   1.00
H1035  H     0.36344   0.78338   0.96219   0.00000  Uiso   1.00
H1036  H     0.64005   0.88543   0.95750   0.00000  Uiso   1.00
H1037  H     0.35995   0.78123   0.54249   0.00000  Uiso   1.00
H1038  H     0.33820   0.79424   0.71637   0.00000  Uiso   1.00
H1039  H     0.66180   0.87242   0.78363   0.00000  Uiso   1.00
H1040  H     0.35842   0.80708   0.61267   0.00000  Uiso   1.00
N1041  N     0.65011   0.81932   0.73783   0.00000  Uiso   1.00
N1042  N     0.34989   0.84735   0.76217   0.00000  Uiso   1.00
N1043  N     0.39747   0.79425   0.62113   0.00000  Uiso   1.00
N1044  N     0.60253   0.87242   0.87887   0.00000  Uiso   1.00
O1045  O     0.46308   0.91286   0.75298   0.00000  Uiso   1.00
O1046  O     0.53692   0.75381   0.74701   0.00000  Uiso   1.00
O1047  O     0.55946   0.90387   0.74518   0.00000  Uiso   1.00
O1048  O     0.44054   0.76279   0.75481   0.00000  Uiso   1.00
O1049  O     0.45181   0.83784   0.81997   0.00000  Uiso   1.00
O1050  O     0.54819   0.82883   0.68002   0.00000  Uiso   1.00
O1051  O     0.54819   0.82885   0.81217   0.00000  Uiso   1.00
O1052  O     0.45181   0.83781   0.68782   0.00000  Uiso   1.00
Zn1053 Zn    0.43565   0.83933   0.75521   0.00000  Uiso   1.00
Zn1054 Zn    0.56435   0.82734   0.74479   0.00000  Uiso   1.00
C1055  C     0.84816   0.93143   0.74835   0.00000  Uiso   1.00
C1056  C     0.88617   0.85280   0.90521   0.00000  Uiso   1.00
C1057  C     0.83048   0.83217   0.61564   0.00000  Uiso   1.00
C1058  C     0.83619   0.83450   0.88436   0.00000  Uiso   1.00
C1059  C     0.88031   0.85042   0.59102   0.00000  Uiso   1.00
C1060  C     0.78636   0.81625   0.90898   0.00000  Uiso   1.00
C1061  C     0.88171   0.85095   0.54513   0.00000  Uiso   1.00
C1062  C     0.78496   0.81571   0.95487   0.00000  Uiso   1.00
C1063  C     0.83235   0.83308   0.52331   0.00000  Uiso   1.00
C1064  C     0.83432   0.83358   0.97669   0.00000  Uiso   1.00
C1065  C     0.78124   0.81454   0.54800   0.00000  Uiso   1.00
C1066  C     0.81851   0.73524   0.75165   0.00000  Uiso   1.00
C1067  C     0.88543   0.85212   0.95200   0.00000  Uiso   1.00
C1068  C     0.93196   0.86937   0.52095   0.00000  Uiso   1.00
C1069  C     0.73471   0.79729   0.97905   0.00000  Uiso   1.00
C1070  C     0.72971   0.73925   0.62980   0.00000  Uiso   1.00
C1071  C     0.93695   0.92742   0.87021   0.00000  Uiso   1.00
C1072  C     0.89580   0.66813   0.70079   0.00000  Uiso   1.00
C1073  C     0.77086   0.99854   0.79921   0.00000  Uiso   1.00
C1074  C     0.93383   0.87022   0.97476   0.00000  Uiso   1.00
C1075  C     0.73284   0.79644   0.52523   0.00000  Uiso   1.00
C1076  C     0.85336   0.98480   0.73961   0.00000  Uiso   1.00
C1077  C     0.81331   0.68187   0.76039   0.00000  Uiso   1.00
C1078  C     0.83441   0.83405   0.83657   0.00000  Uiso   1.00
C1079  C     0.83225   0.83262   0.66343   0.00000  Uiso   1.00
C1080  C     0.78050   0.81386   0.59479   0.00000  Uiso   1.00
H1081  H     0.91822   0.86481   0.60776   0.00000  Uiso   1.00
H1082  H     0.72717   0.71654   0.59810   0.00000  Uiso   1.00
H1083  H     0.69130   0.72810   0.65235   0.00000  Uiso   1.00
H1084  H     0.76914   0.72968   0.64637   0.00000  Uiso   1.00
H1085  H     0.97492   0.85958   0.88733   0.00000  Uiso   1.00
H1086  H     0.93950   0.95012   0.90190   0.00000  Uiso   1.00
H1087  H     0.89752   0.93699   0.85364   0.00000  Uiso   1.00
H1088  H     0.97537   0.93857   0.84765   0.00000  Uiso   1.00
H1089  H     0.91115   0.96755   0.68094   0.00000  Uiso   1.00
H1090  H     0.87477   0.69276   0.67734   0.00000  Uiso   1.00
H1091  H     0.93455   0.68927   0.71346   0.00000  Uiso   1.00
H1092  H     0.74845   0.80186   0.89224   0.00000  Uiso   1.00
H1093  H     0.75551   0.69912   0.81906   0.00000  Uiso   1.00
H1094  H     0.73212   0.97740   0.78654   0.00000  Uiso   1.00
H1095  H     0.79190   0.97390   0.82266   0.00000  Uiso   1.00
H1096  H     0.96989   0.88328   0.53781   0.00000  Uiso   1.00
H1097  H     0.69678   0.78338   0.96219   0.00000  Uiso   1.00
H1098  H     0.97338   0.88543   0.95750   0.00000  Uiso   1.00
H1099  H     0.69328   0.78123   0.54249   0.00000  Uiso   1.00
H1100  H     0.67153   0.79424   0.71637   0.00000  Uiso   1.00
H1101  H     0.99513   0.87242   0.78363   0.00000  Uiso   1.00
H1102  H     0.69175   0.80708   0.61267   0.00000  Uiso   1.00
N1103  N     0.98344   0.81932   0.73783   0.00000  Uiso   1.00
N1104  N     0.68322   0.84735   0.76217   0.00000  Uiso   1.00
N1105  N     0.73080   0.79425   0.62113   0.00000  Uiso   1.00
N1106  N     0.93587   0.87242   0.87887   0.00000  Uiso   1.00
O1107  O     0.79642   0.91286   0.75298   0.00000  Uiso   1.00
O1108  O     0.87025   0.75381   0.74701   0.00000  Uiso   1.00
O1109  O     0.89280   0.90387   0.74518   0.00000  Uiso   1.00
O1110  O     0.77387   0.76279   0.75481   0.00000  Uiso   1.00
O1111  O     0.78514   0.83784   0.81997   0.00000  Uiso   1.00
O1112  O     0.88153   0.82883   0.68002   0.00000  Uiso   1.00
O1113  O     0.88152   0.82885   0.81217   0.00000  Uiso   1.00
O1114  O     0.78515   0.83781   0.68782   0.00000  Uiso   1.00
Zn1115 Zn    0.76898   0.83933   0.75521   0.00000  Uiso   1.00
Zn1116 Zn    0.89769   0.82734   0.74479   0.00000  Uiso   1.00
loop_
_geom_bond_atom_site_label_1
_geom_bond_atom_site_label_2
_geom_bond_distance
_geom_bond_site_symmetry_2
_ccdc_geom_bond_type
C1     O55     1.286   .     A
C1     C22     1.404   .     S
C1     O53     1.267   .     A
C2     N52     1.427   .     S
C2     C4      1.408   .     A
C2     C13     1.403   .     A
C3     C26     1.408   .     A
C3     C25     1.437   .     S
C3     C5      1.393   .     A
C4     C6      1.393   .     A
C4     C24     1.437   .     S
C5     C7      1.375   .     A
C5     H27     1.086   .     S
C6     H38     1.086   .     S
C6     C8      1.375   .     A
C7     C9      1.408   .     A
C7     C14     1.396   .     A
C8     C15     1.396   .     A
C8     C10     1.408   .     A
C9     C11     1.420   .     A
C9     C568    1.396   1_554 S
C10    C13     1.420   .     A
C10    C567    1.396   .     S
C11    C26     1.403   .     A
C11    C21     1.406   .     A
C12    C23     1.404   .     S
C12    O56     1.286   .     A
C12    O54     1.267   .     A
C13    C20     1.406   .     A
C14    H42     1.084   .     S
C14    C578    1.384   1_554 S
C15    H43     1.084   .     S
C15    C579    1.384   .     S
C16    H28     1.111   .     S
C16    N51     1.447   .     S
C16    H30     1.111   .     S
C16    H29     1.110   .     S
C17    H34     1.110   .     S
C17    H33     1.111   .     S
C17    N52     1.447   .     S
C17    H32     1.111   .     S
C18    H37     1.110   .     S
C18    H36     1.111   .     S
C18    C394    1.526   1_545 S
C18    H407    1.112   1_545 S
C19    H40     1.110   .     S
C19    H41     1.111   .     S
C19    C209    1.526   .     S
C19    H225    1.112   .     S
C20    H44     1.081   .     S
C20    C572    1.384   .     S
C21    H45     1.081   .     S
C21    C573    1.384   1_554 S
C22    C204    1.526   .     S
C22    C209    1.362   .     S
C23    C394    1.362   1_545 S
C23    C391    1.526   1_545 S
C24    O59     1.286   .     A
C24    O57     1.286   .     A
C25    O60     1.286   .     A
C25    O58     1.286   .     A
C26    N51     1.427   .     S
H31    N52     1.031   .     S
H35    C204    1.112   .     S
H39    C391    1.112   1_545 S
H46    N173    1.029   1_455 S
H47    N112    1.029   .     S
H48    N51     1.031   .     S
N49    Zn62    2.008   .     S
N49    H108    1.029   .     S
N49    N112    1.280   .     S
N50    Zn61    2.008   .     S
N50    N173    1.280   1_455 S
N50    H171    1.029   1_455 S
O53    Zn61    1.969   .     S
O54    Zn62    1.969   .     S
O55    Zn62    1.985   .     S
O56    Zn61    1.985   .     S
O57    Zn61    2.005   .     S
O58    Zn62    2.005   .     S
O59    Zn62    2.031   .     S
O60    Zn61    2.031   .     S
C63    O117    1.286   .     A
C63    C84     1.404   .     S
C63    O115    1.267   .     A
C64    N114    1.427   .     S
C64    C66     1.408   .     A
C64    C75     1.403   .     A
C65    C88     1.408   .     A
C65    C87     1.437   .     S
C65    C67     1.393   .     A
C66    C68     1.393   .     A
C66    C86     1.437   .     S
C67    C69     1.375   .     A
C67    H89     1.086   .     S
C68    H100    1.086   .     S
C68    C70     1.375   .     A
C69    C71     1.408   .     A
C69    C76     1.396   .     A
C70    C77     1.396   .     A
C70    C72     1.408   .     A
C71    C73     1.420   .     A
C71    C630    1.396   1_554 S
C72    C75     1.420   .     A
C72    C629    1.396   .     S
C73    C88     1.403   .     A
C73    C83     1.406   .     A
C74    C85     1.404   .     S
C74    O118    1.286   .     A
C74    O116    1.267   .     A
C75    C82     1.406   .     A
C76    H104    1.084   .     S
C76    C640    1.384   1_554 S
C77    H105    1.084   .     S
C77    C641    1.384   .     S
C78    H90     1.111   .     S
C78    N113    1.447   .     S
C78    H92     1.111   .     S
C78    H91     1.110   .     S
C79    H96     1.110   .     S
C79    H95     1.111   .     S
C79    N114    1.447   .     S
C79    H94     1.111   .     S
C80    H99     1.110   .     S
C80    H98     1.111   .     S
C80    C456    1.526   1_545 S
C80    H469    1.112   1_545 S
C81    H102    1.110   .     S
C81    H103    1.111   .     S
C81    C271    1.526   .     S
C81    H287    1.112   .     S
C82    H106    1.081   .     S
C82    C634    1.384   .     S
C83    H107    1.081   .     S
C83    C635    1.384   1_554 S
C84    C266    1.526   .     S
C84    C271    1.362   .     S
C85    C456    1.362   1_545 S
C85    C453    1.526   1_545 S
C86    O121    1.286   .     A
C86    O119    1.286   .     A
C87    O122    1.286   .     A
C87    O120    1.286   .     A
C88    N113    1.427   .     S
H93    N114    1.031   .     S
H97    C266    1.112   .     S
H101   C453    1.112   1_545 S
H109   N174    1.029   .     S
H110   N113    1.031   .     S
N111   Zn124   2.008   .     S
N111   H170    1.029   .     S
N111   N174    1.280   .     S
N112   Zn123   2.008   .     S
O115   Zn123   1.969   .     S
O116   Zn124   1.969   .     S
O117   Zn124   1.985   .     S
O118   Zn123   1.985   .     S
O119   Zn123   2.005   .     S
O120   Zn124   2.005   .     S
O121   Zn124   2.031   .     S
O122   Zn123   2.031   .     S
C125   O179    1.286   .     A
C125   C146    1.404   .     S
C125   O177    1.267   .     A
C126   N176    1.427   .     S
C126   C128    1.408   .     A
C126   C137    1.403   .     A
C127   C150    1.408   .     A
C127   C149    1.437   .     S
C127   C129    1.393   .     A
C128   C130    1.393   .     A
C128   C148    1.437   .     S
C129   C131    1.375   .     A
C129   H151    1.086   .     S
C130   H162    1.086   .     S
C130   C132    1.375   .     A
C131   C133    1.408   .     A
C131   C138    1.396   .     A
C132   C139    1.396   .     A
C132   C134    1.408   .     A
C133   C135    1.420   .     A
C133   C692    1.396   1_554 S
C134   C137    1.420   .     A
C134   C691    1.396   .     S
C135   C150    1.403   .     A
C135   C145    1.406   .     A
C136   C147    1.404   .     S
C136   O180    1.286   .     A
C136   O178    1.267   .     A
C137   C144    1.406   .     A
C138   H166    1.084   .     S
C138   C702    1.384   1_554 S
C139   H167    1.084   .     S
C139   C703    1.384   .     S
C140   H152    1.111   .     S
C140   N175    1.447   .     S
C140   H154    1.111   .     S
C140   H153    1.110   .     S
C141   H158    1.110   .     S
C141   H157    1.111   .     S
C141   N176    1.447   .     S
C141   H156    1.111   .     S
C142   H161    1.110   .     S
C142   H160    1.111   .     S
C142   C518    1.526   1_545 S
C142   H531    1.112   1_545 S
C143   H164    1.110   .     S
C143   H165    1.111   .     S
C143   C333    1.526   .     S
C143   H349    1.112   .     S
C144   H168    1.081   .     S
C144   C696    1.384   .     S
C145   H169    1.081   .     S
C145   C697    1.384   1_554 S
C146   C328    1.526   .     S
C146   C333    1.362   .     S
C147   C518    1.362   1_545 S
C147   C515    1.526   1_545 S
C148   O183    1.286   .     A
C148   O181    1.286   .     A
C149   O184    1.286   .     A
C149   O182    1.286   .     A
C150   N175    1.427   .     S
H155   N176    1.031   .     S
H159   C328    1.112   .     S
H163   C515    1.112   1_545 S
H171   N50     1.029   1_655 S
H172   N175    1.031   .     S
N173   Zn186   2.008   .     S
N173   H46     1.029   1_655 S
N173   N50     1.280   1_655 S
N174   Zn185   2.008   .     S
O177   Zn185   1.969   .     S
O178   Zn186   1.969   .     S
O179   Zn186   1.985   .     S
O180   Zn185   1.985   .     S
O181   Zn185   2.005   .     S
O182   Zn186   2.005   .     S
O183   Zn186   2.031   .     S
O184   Zn185   2.031   .     S
C187   O241    1.286   .     A
C187   C208    1.404   .     S
C187   O239    1.267   .     A
C188   N238    1.427   .     S
C188   C190    1.408   .     A
C188   C199    1.403   .     A
C189   C212    1.408   .     A
C189   C211    1.437   .     S
C189   C191    1.393   .     A
C190   C192    1.393   .     A
C190   C210    1.437   .     S
C191   C193    1.375   .     A
C191   H213    1.086   .     S
C192   H224    1.086   .     S
C192   C194    1.375   .     A
C193   C195    1.408   .     A
C193   C200    1.396   .     A
C194   C201    1.396   .     A
C194   C196    1.408   .     A
C195   C197    1.420   .     A
C195   C754    1.396   1_554 S
C196   C199    1.420   .     A
C196   C753    1.396   .     S
C197   C212    1.403   .     A
C197   C207    1.406   .     A
C198   C209    1.404   .     S
C198   O242    1.286   .     A
C198   O240    1.267   .     A
C199   C206    1.406   .     A
C200   H228    1.084   .     S
C200   C764    1.384   1_554 S
C201   H229    1.084   .     S
C201   C765    1.384   .     S
C202   H214    1.111   .     S
C202   N237    1.447   .     S
C202   H216    1.111   .     S
C202   H215    1.110   .     S
C203   H220    1.110   .     S
C203   H219    1.111   .     S
C203   N238    1.447   .     S
C203   H218    1.111   .     S
C204   H223    1.110   .     S
C204   H222    1.111   .     S
C205   H226    1.110   .     S
C205   H227    1.111   .     S
C205   C395    1.526   .     S
C205   H411    1.112   .     S
C206   H230    1.081   .     S
C206   C758    1.384   .     S
C207   H231    1.081   .     S
C207   C759    1.384   1_554 S
C208   C390    1.526   .     S
C208   C395    1.362   .     S
C210   O245    1.286   .     A
C210   O243    1.286   .     A
C211   O246    1.286   .     A
C211   O244    1.286   .     A
C212   N237    1.427   .     S
H217   N238    1.031   .     S
H221   C390    1.112   .     S
H232   N359    1.029   1_455 S
H233   N298    1.029   .     S
H234   N237    1.031   .     S
N235   Zn248   2.008   .     S
N235   H294    1.029   .     S
N235   N298    1.280   .     S
N236   Zn247   2.008   .     S
N236   N359    1.280   1_455 S
N236   H357    1.029   1_455 S
O239   Zn247   1.969   .     S
O240   Zn248   1.969   .     S
O241   Zn248   1.985   .     S
O242   Zn247   1.985   .     S
O243   Zn247   2.005   .     S
O244   Zn248   2.005   .     S
O245   Zn248   2.031   .     S
O246   Zn247   2.031   .     S
C249   O303    1.286   .     A
C249   C270    1.404   .     S
C249   O301    1.267   .     A
C250   N300    1.427   .     S
C250   C252    1.408   .     A
C250   C261    1.403   .     A
C251   C274    1.408   .     A
C251   C273    1.437   .     S
C251   C253    1.393   .     A
C252   C254    1.393   .     A
C252   C272    1.437   .     S
C253   C255    1.375   .     A
C253   H275    1.086   .     S
C254   H286    1.086   .     S
C254   C256    1.375   .     A
C255   C257    1.408   .     A
C255   C262    1.396   .     A
C256   C263    1.396   .     A
C256   C258    1.408   .     A
C257   C259    1.420   .     A
C257   C816    1.396   1_554 S
C258   C261    1.420   .     A
C258   C815    1.396   .     S
C259   C274    1.403   .     A
C259   C269    1.406   .     A
C260   C271    1.404   .     S
C260   O304    1.286   .     A
C260   O302    1.267   .     A
C261   C268    1.406   .     A
C262   H290    1.084   .     S
C262   C826    1.384   1_554 S
C263   H291    1.084   .     S
C263   C827    1.384   .     S
C264   H276    1.111   .     S
C264   N299    1.447   .     S
C264   H278    1.111   .     S
C264   H277    1.110   .     S
C265   H282    1.110   .     S
C265   H281    1.111   .     S
C265   N300    1.447   .     S
C265   H280    1.111   .     S
C266   H285    1.110   .     S
C266   H284    1.111   .     S
C267   H288    1.110   .     S
C267   H289    1.111   .     S
C267   C457    1.526   .     S
C267   H473    1.112   .     S
C268   H292    1.081   .     S
C268   C820    1.384   .     S
C269   H293    1.081   .     S
C269   C821    1.384   1_554 S
C270   C452    1.526   .     S
C270   C457    1.362   .     S
C272   O307    1.286   .     A
C272   O305    1.286   .     A
C273   O308    1.286   .     A
C273   O306    1.286   .     A
C274   N299    1.427   .     S
H279   N300    1.031   .     S
H283   C452    1.112   .     S
H295   N360    1.029   .     S
H296   N299    1.031   .     S
N297   Zn310   2.008   .     S
N297   H356    1.029   .     S
N297   N360    1.280   .     S
N298   Zn309   2.008   .     S
O301   Zn309   1.969   .     S
O302   Zn310   1.969   .     S
O303   Zn310   1.985   .     S
O304   Zn309   1.985   .     S
O305   Zn309   2.005   .     S
O306   Zn310   2.005   .     S
O307   Zn310   2.031   .     S
O308   Zn309   2.031   .     S
C311   O365    1.286   .     A
C311   C332    1.404   .     S
C311   O363    1.267   .     A
C312   N362    1.427   .     S
C312   C314    1.408   .     A
C312   C323    1.403   .     A
C313   C336    1.408   .     A
C313   C335    1.437   .     S
C313   C315    1.393   .     A
C314   C316    1.393   .     A
C314   C334    1.437   .     S
C315   C317    1.375   .     A
C315   H337    1.086   .     S
C316   H348    1.086   .     S
C316   C318    1.375   .     A
C317   C319    1.408   .     A
C317   C324    1.396   .     A
C318   C325    1.396   .     A
C318   C320    1.408   .     A
C319   C321    1.420   .     A
C319   C878    1.396   1_554 S
C320   C323    1.420   .     A
C320   C877    1.396   .     S
C321   C336    1.403   .     A
C321   C331    1.406   .     A
C322   C333    1.404   .     S
C322   O366    1.286   .     A
C322   O364    1.267   .     A
C323   C330    1.406   .     A
C324   H352    1.084   .     S
C324   C888    1.384   1_554 S
C325   H353    1.084   .     S
C325   C889    1.384   .     S
C326   H338    1.111   .     S
C326   N361    1.447   .     S
C326   H340    1.111   .     S
C326   H339    1.110   .     S
C327   H344    1.110   .     S
C327   H343    1.111   .     S
C327   N362    1.447   .     S
C327   H342    1.111   .     S
C328   H347    1.110   .     S
C328   H346    1.111   .     S
C329   H350    1.110   .     S
C329   H351    1.111   .     S
C329   C519    1.526   .     S
C329   H535    1.112   .     S
C330   H354    1.081   .     S
C330   C882    1.384   .     S
C331   H355    1.081   .     S
C331   C883    1.384   1_554 S
C332   C514    1.526   .     S
C332   C519    1.362   .     S
C334   O369    1.286   .     A
C334   O367    1.286   .     A
C335   O370    1.286   .     A
C335   O368    1.286   .     A
C336   N361    1.427   .     S
H341   N362    1.031   .     S
H345   C514    1.112   .     S
H357   N236    1.029   1_655 S
H358   N361    1.031   .     S
N359   Zn372   2.008   .     S
N359   H232    1.029   1_655 S
N359   N236    1.280   1_655 S
N360   Zn371   2.008   .     S
O363   Zn371   1.969   .     S
O364   Zn372   1.969   .     S
O365   Zn372   1.985   .     S
O366   Zn371   1.985   .     S
O367   Zn371   2.005   .     S
O368   Zn372   2.005   .     S
O369   Zn372   2.031   .     S
O370   Zn371   2.031   .     S
C373   O427    1.286   .     A
C373   C394    1.404   .     S
C373   O425    1.267   .     A
C374   N424    1.427   .     S
C374   C376    1.408   .     A
C374   C385    1.403   .     A
C375   C398    1.408   .     A
C375   C397    1.437   .     S
C375   C377    1.393   .     A
C376   C378    1.393   .     A
C376   C396    1.437   .     S
C377   C379    1.375   .     A
C377   H399    1.086   .     S
C378   H410    1.086   .     S
C378   C380    1.375   .     A
C379   C381    1.408   .     A
C379   C386    1.396   .     A
C380   C387    1.396   .     A
C380   C382    1.408   .     A
C381   C383    1.420   .     A
C381   C940    1.396   1_554 S
C382   C385    1.420   .     A
C382   C939    1.396   .     S
C383   C398    1.403   .     A
C383   C393    1.406   .     A
C384   C395    1.404   .     S
C384   O428    1.286   .     A
C384   O426    1.267   .     A
C385   C392    1.406   .     A
C386   H414    1.084   .     S
C386   C950    1.384   1_554 S
C387   H415    1.084   .     S
C387   C951    1.384   .     S
C388   H400    1.111   .     S
C388   N423    1.447   .     S
C388   H402    1.111   .     S
C388   H401    1.110   .     S
C389   H406    1.110   .     S
C389   H405    1.111   .     S
C389   N424    1.447   .     S
C389   H404    1.111   .     S
C390   H409    1.110   .     S
C390   H408    1.111   .     S
C391   H412    1.110   .     S
C391   H413    1.111   .     S
C391   C23     1.526   1_565 S
C391   H39     1.112   1_565 S
C392   H416    1.081   .     S
C392   C944    1.384   .     S
C393   H417    1.081   .     S
C393   C945    1.384   1_554 S
C394   C18     1.526   1_565 S
C394   C23     1.362   1_565 S
C396   O431    1.286   .     A
C396   O429    1.286   .     A
C397   O432    1.286   .     A
C397   O430    1.286   .     A
C398   N423    1.427   .     S
H403   N424    1.031   .     S
H407   C18     1.112   1_565 S
H418   N545    1.029   1_455 S
H419   N484    1.029   .     S
H420   N423    1.031   .     S
N421   Zn434   2.008   .     S
N421   H480    1.029   .     S
N421   N484    1.280   .     S
N422   Zn433   2.008   .     S
N422   N545    1.280   1_455 S
N422   H543    1.029   1_455 S
O425   Zn433   1.969   .     S
O426   Zn434   1.969   .     S
O427   Zn434   1.985   .     S
O428   Zn433   1.985   .     S
O429   Zn433   2.005   .     S
O430   Zn434   2.005   .     S
O431   Zn434   2.031   .     S
O432   Zn433   2.031   .     S
C435   O489    1.286   .     A
C435   C456    1.404   .     S
C435   O487    1.267   .     A
C436   N486    1.427   .     S
C436   C438    1.408   .     A
C436   C447    1.403   .     A
C437   C460    1.408   .     A
C437   C459    1.437   .     S
C437   C439    1.393   .     A
C438   C440    1.393   .     A
C438   C458    1.437   .     S
C439   C441    1.375   .     A
C439   H461    1.086   .     S
C440   H472    1.086   .     S
C440   C442    1.375   .     A
C441   C443    1.408   .     A
C441   C448    1.396   .     A
C442   C449    1.396   .     A
C442   C444    1.408   .     A
C443   C445    1.420   .     A
C443   C1002   1.396   1_554 S
C444   C447    1.420   .     A
C444   C1001   1.396   .     S
C445   C460    1.403   .     A
C445   C455    1.406   .     A
C446   C457    1.404   .     S
C446   O490    1.286   .     A
C446   O488    1.267   .     A
C447   C454    1.406   .     A
C448   H476    1.084   .     S
C448   C1012   1.384   1_554 S
C449   H477    1.084   .     S
C449   C1013   1.384   .     S
C450   H462    1.111   .     S
C450   N485    1.447   .     S
C450   H464    1.111   .     S
C450   H463    1.110   .     S
C451   H468    1.110   .     S
C451   H467    1.111   .     S
C451   N486    1.447   .     S
C451   H466    1.111   .     S
C452   H471    1.110   .     S
C452   H470    1.111   .     S
C453   H474    1.110   .     S
C453   H475    1.111   .     S
C453   C85     1.526   1_565 S
C453   H101    1.112   1_565 S
C454   H478    1.081   .     S
C454   C1006   1.384   .     S
C455   H479    1.081   .     S
C455   C1007   1.384   1_554 S
C456   C80     1.526   1_565 S
C456   C85     1.362   1_565 S
C458   O493    1.286   .     A
C458   O491    1.286   .     A
C459   O494    1.286   .     A
C459   O492    1.286   .     A
C460   N485    1.427   .     S
H465   N486    1.031   .     S
H469   C80     1.112   1_565 S
H481   N546    1.029   .     S
H482   N485    1.031   .     S
N483   Zn496   2.008   .     S
N483   H542    1.029   .     S
N483   N546    1.280   .     S
N484   Zn495   2.008   .     S
O487   Zn495   1.969   .     S
O488   Zn496   1.969   .     S
O489   Zn496   1.985   .     S
O490   Zn495   1.985   .     S
O491   Zn495   2.005   .     S
O492   Zn496   2.005   .     S
O493   Zn496   2.031   .     S
O494   Zn495   2.031   .     S
C497   O551    1.286   .     A
C497   C518    1.404   .     S
C497   O549    1.267   .     A
C498   N548    1.427   .     S
C498   C500    1.408   .     A
C498   C509    1.403   .     A
C499   C522    1.408   .     A
C499   C521    1.437   .     S
C499   C501    1.393   .     A
C500   C502    1.393   .     A
C500   C520    1.437   .     S
C501   C503    1.375   .     A
C501   H523    1.086   .     S
C502   H534    1.086   .     S
C502   C504    1.375   .     A
C503   C505    1.408   .     A
C503   C510    1.396   .     A
C504   C511    1.396   .     A
C504   C506    1.408   .     A
C505   C507    1.420   .     A
C505   C1064   1.396   1_554 S
C506   C509    1.420   .     A
C506   C1063   1.396   .     S
C507   C522    1.403   .     A
C507   C517    1.406   .     A
C508   C519    1.404   .     S
C508   O552    1.286   .     A
C508   O550    1.267   .     A
C509   C516    1.406   .     A
C510   H538    1.084   .     S
C510   C1074   1.384   1_554 S
C511   H539    1.084   .     S
C511   C1075   1.384   .     S
C512   H524    1.111   .     S
C512   N547    1.447   .     S
C512   H526    1.111   .     S
C512   H525    1.110   .     S
C513   H530    1.110   .     S
C513   H529    1.111   .     S
C513   N548    1.447   .     S
C513   H528    1.111   .     S
C514   H533    1.110   .     S
C514   H532    1.111   .     S
C515   H536    1.110   .     S
C515   H537    1.111   .     S
C515   C147    1.526   1_565 S
C515   H163    1.112   1_565 S
C516   H540    1.081   .     S
C516   C1068   1.384   .     S
C517   H541    1.081   .     S
C517   C1069   1.384   1_554 S
C518   C142    1.526   1_565 S
C518   C147    1.362   1_565 S
C520   O555    1.286   .     A
C520   O553    1.286   .     A
C521   O556    1.286   .     A
C521   O554    1.286   .     A
C522   N547    1.427   .     S
H527   N548    1.031   .     S
H531   C142    1.112   1_565 S
H543   N422    1.029   1_655 S
H544   N547    1.031   .     S
N545   Zn558   2.008   .     S
N545   H418    1.029   1_655 S
N545   N422    1.280   1_655 S
N546   Zn557   2.008   .     S
O549   Zn557   1.969   .     S
O550   Zn558   1.969   .     S
O551   Zn558   1.985   .     S
O552   Zn557   1.985   .     S
O553   Zn557   2.005   .     S
O554   Zn558   2.005   .     S
O555   Zn558   2.031   .     S
O556   Zn557   2.031   .     S
C559   O613    1.286   .     A
C559   C580    1.404   .     S
C559   O611    1.267   .     A
C560   N610    1.427   .     S
C560   C562    1.408   .     A
C560   C571    1.403   .     A
C561   C584    1.408   .     A
C561   C583    1.437   .     S
C561   C563    1.393   .     A
C562   C564    1.393   .     A
C562   C582    1.437   .     S
C563   C565    1.375   .     A
C563   H585    1.086   .     S
C564   H596    1.086   .     S
C564   C566    1.375   .     A
C565   C567    1.408   .     A
C565   C572    1.396   .     A
C566   C573    1.396   .     A
C566   C568    1.408   .     A
C567   C569    1.420   .     A
C568   C571    1.420   .     A
C568   C9      1.396   1_556 S
C569   C584    1.403   .     A
C569   C579    1.406   .     A
C570   C581    1.404   .     S
C570   O614    1.286   .     A
C570   O612    1.267   .     A
C571   C578    1.406   .     A
C572   H600    1.084   .     S
C573   H601    1.084   .     S
C573   C21     1.384   1_556 S
C574   H586    1.111   .     S
C574   N609    1.447   .     S
C574   H588    1.111   .     S
C574   H587    1.110   .     S
C575   H592    1.110   .     S
C575   H591    1.111   .     S
C575   N610    1.447   .     S
C575   H590    1.111   .     S
C576   H595    1.110   .     S
C576   H594    1.111   .     S
C576   C952    1.526   1_545 S
C576   H965    1.112   1_545 S
C577   H598    1.110   .     S
C577   H599    1.111   .     S
C577   C767    1.526   .     S
C577   H783    1.112   .     S
C578   H602    1.081   .     S
C578   C14     1.384   1_556 S
C579   H603    1.081   .     S
C580   C762    1.526   .     S
C580   C767    1.362   .     S
C581   C952    1.362   1_545 S
C581   C949    1.526   1_545 S
C582   O617    1.286   .     A
C582   O615    1.286   .     A
C583   O618    1.286   .     A
C583   O616    1.286   .     A
C584   N609    1.427   .     S
H589   N610    1.031   .     S
H593   C762    1.112   .     S
H597   C949    1.112   1_545 S
H604   N731    1.029   1_455 S
H605   N670    1.029   .     S
H606   N609    1.031   .     S
N607   Zn620   2.008   .     S
N607   H666    1.029   .     S
N607   N670    1.280   .     S
N608   Zn619   2.008   .     S
N608   N731    1.280   1_455 S
N608   H729    1.029   1_455 S
O611   Zn619   1.969   .     S
O612   Zn620   1.969   .     S
O613   Zn620   1.985   .     S
O614   Zn619   1.985   .     S
O615   Zn619   2.005   .     S
O616   Zn620   2.005   .     S
O617   Zn620   2.031   .     S
O618   Zn619   2.031   .     S
C621   O675    1.286   .     A
C621   C642    1.404   .     S
C621   O673    1.267   .     A
C622   N672    1.427   .     S
C622   C624    1.408   .     A
C622   C633    1.403   .     A
C623   C646    1.408   .     A
C623   C645    1.437   .     S
C623   C625    1.393   .     A
C624   C626    1.393   .     A
C624   C644    1.437   .     S
C625   C627    1.375   .     A
C625   H647    1.086   .     S
C626   H658    1.086   .     S
C626   C628    1.375   .     A
C627   C629    1.408   .     A
C627   C634    1.396   .     A
C628   C635    1.396   .     A
C628   C630    1.408   .     A
C629   C631    1.420   .     A
C630   C633    1.420   .     A
C630   C71     1.396   1_556 S
C631   C646    1.403   .     A
C631   C641    1.406   .     A
C632   C643    1.404   .     S
C632   O676    1.286   .     A
C632   O674    1.267   .     A
C633   C640    1.406   .     A
C634   H662    1.084   .     S
C635   H663    1.084   .     S
C635   C83     1.384   1_556 S
C636   H648    1.111   .     S
C636   N671    1.447   .     S
C636   H650    1.111   .     S
C636   H649    1.110   .     S
C637   H654    1.110   .     S
C637   H653    1.111   .     S
C637   N672    1.447   .     S
C637   H652    1.111   .     S
C638   H657    1.110   .     S
C638   H656    1.111   .     S
C638   C1014   1.526   1_545 S
C638   H1027   1.112   1_545 S
C639   H660    1.110   .     S
C639   H661    1.111   .     S
C639   C829    1.526   .     S
C639   H845    1.112   .     S
C640   H664    1.081   .     S
C640   C76     1.384   1_556 S
C641   H665    1.081   .     S
C642   C824    1.526   .     S
C642   C829    1.362   .     S
C643   C1014   1.362   1_545 S
C643   C1011   1.526   1_545 S
C644   O679    1.286   .     A
C644   O677    1.286   .     A
C645   O680    1.286   .     A
C645   O678    1.286   .     A
C646   N671    1.427   .     S
H651   N672    1.031   .     S
H655   C824    1.112   .     S
H659   C1011   1.112   1_545 S
H667   N732    1.029   .     S
H668   N671    1.031   .     S
N669   Zn682   2.008   .     S
N669   H728    1.029   .     S
N669   N732    1.280   .     S
N670   Zn681   2.008   .     S
O673   Zn681   1.969   .     S
O674   Zn682   1.969   .     S
O675   Zn682   1.985   .     S
O676   Zn681   1.985   .     S
O677   Zn681   2.005   .     S
O678   Zn682   2.005   .     S
O679   Zn682   2.031   .     S
O680   Zn681   2.031   .     S
C683   O737    1.286   .     A
C683   C704    1.404   .     S
C683   O735    1.267   .     A
C684   N734    1.427   .     S
C684   C686    1.408   .     A
C684   C695    1.403   .     A
C685   C708    1.408   .     A
C685   C707    1.437   .     S
C685   C687    1.393   .     A
C686   C688    1.393   .     A
C686   C706    1.437   .     S
C687   C689    1.375   .     A
C687   H709    1.086   .     S
C688   H720    1.086   .     S
C688   C690    1.375   .     A
C689   C691    1.408   .     A
C689   C696    1.396   .     A
C690   C697    1.396   .     A
C690   C692    1.408   .     A
C691   C693    1.420   .     A
C692   C695    1.420   .     A
C692   C133    1.396   1_556 S
C693   C708    1.403   .     A
C693   C703    1.406   .     A
C694   C705    1.404   .     S
C694   O738    1.286   .     A
C694   O736    1.267   .     A
C695   C702    1.406   .     A
C696   H724    1.084   .     S
C697   H725    1.084   .     S
C697   C145    1.384   1_556 S
C698   H710    1.111   .     S
C698   N733    1.447   .     S
C698   H712    1.111   .     S
C698   H711    1.110   .     S
C699   H716    1.110   .     S
C699   H715    1.111   .     S
C699   N734    1.447   .     S
C699   H714    1.111   .     S
C700   H719    1.110   .     S
C700   H718    1.111   .     S
C700   C1076   1.526   1_545 S
C700   H1089   1.112   1_545 S
C701   H722    1.110   .     S
C701   H723    1.111   .     S
C701   C891    1.526   .     S
C701   H907    1.112   .     S
C702   H726    1.081   .     S
C702   C138    1.384   1_556 S
C703   H727    1.081   .     S
C704   C886    1.526   .     S
C704   C891    1.362   .     S
C705   C1076   1.362   1_545 S
C705   C1073   1.526   1_545 S
C706   O741    1.286   .     A
C706   O739    1.286   .     A
C707   O742    1.286   .     A
C707   O740    1.286   .     A
C708   N733    1.427   .     S
H713   N734    1.031   .     S
H717   C886    1.112   .     S
H721   C1073   1.112   1_545 S
H729   N608    1.029   1_655 S
H730   N733    1.031   .     S
N731   Zn744   2.008   .     S
N731   H604    1.029   1_655 S
N731   N608    1.280   1_655 S
N732   Zn743   2.008   .     S
O735   Zn743   1.969   .     S
O736   Zn744   1.969   .     S
O737   Zn744   1.985   .     S
O738   Zn743   1.985   .     S
O739   Zn743   2.005   .     S
O740   Zn744   2.005   .     S
O741   Zn744   2.031   .     S
O742   Zn743   2.031   .     S
C745   O799    1.286   .     A
C745   C766    1.404   .     S
C745   O797    1.267   .     A
C746   N796    1.427   .     S
C746   C748    1.408   .     A
C746   C757    1.403   .     A
C747   C770    1.408   .     A
C747   C769    1.437   .     S
C747   C749    1.393   .     A
C748   C750    1.393   .     A
C748   C768    1.437   .     S
C749   C751    1.375   .     A
C749   H771    1.086   .     S
C750   H782    1.086   .     S
C750   C752    1.375   .     A
C751   C753    1.408   .     A
C751   C758    1.396   .     A
C752   C759    1.396   .     A
C752   C754    1.408   .     A
C753   C755    1.420   .     A
C754   C757    1.420   .     A
C754   C195    1.396   1_556 S
C755   C770    1.403   .     A
C755   C765    1.406   .     A
C756   C767    1.404   .     S
C756   O800    1.286   .     A
C756   O798    1.267   .     A
C757   C764    1.406   .     A
C758   H786    1.084   .     S
C759   H787    1.084   .     S
C759   C207    1.384   1_556 S
C760   H772    1.111   .     S
C760   N795    1.447   .     S
C760   H774    1.111   .     S
C760   H773    1.110   .     S
C761   H778    1.110   .     S
C761   H777    1.111   .     S
C761   N796    1.447   .     S
C761   H776    1.111   .     S
C762   H781    1.110   .     S
C762   H780    1.111   .     S
C763   H784    1.110   .     S
C763   H785    1.111   .     S
C763   C953    1.526   .     S
C763   H969    1.112   .     S
C764   H788    1.081   .     S
C764   C200    1.384   1_556 S
C765   H789    1.081   .     S
C766   C948    1.526   .     S
C766   C953    1.362   .     S
C768   O803    1.286   .     A
C768   O801    1.286   .     A
C769   O804    1.286   .     A
C769   O802    1.286   .     A
C770   N795    1.427   .     S
H775   N796    1.031   .     S
H779   C948    1.112   .     S
H790   N917    1.029   1_455 S
H791   N856    1.029   .     S
H792   N795    1.031   .     S
N793   Zn806   2.008   .     S
N793   H852    1.029   .     S
N793   N856    1.280   .     S
N794   Zn805   2.008   .     S
N794   N917    1.280   1_455 S
N794   H915    1.029   1_455 S
O797   Zn805   1.969   .     S
O798   Zn806   1.969   .     S
O799   Zn806   1.985   .     S
O800   Zn805   1.985   .     S
O801   Zn805   2.005   .     S
O802   Zn806   2.005   .     S
O803   Zn806   2.031   .     S
O804   Zn805   2.031   .     S
C807   O861    1.286   .     A
C807   C828    1.404   .     S
C807   O859    1.267   .     A
C808   N858    1.427   .     S
C808   C810    1.408   .     A
C808   C819    1.403   .     A
C809   C832    1.408   .     A
C809   C831    1.437   .     S
C809   C811    1.393   .     A
C810   C812    1.393   .     A
C810   C830    1.437   .     S
C811   C813    1.375   .     A
C811   H833    1.086   .     S
C812   H844    1.086   .     S
C812   C814    1.375   .     A
C813   C815    1.408   .     A
C813   C820    1.396   .     A
C814   C821    1.396   .     A
C814   C816    1.408   .     A
C815   C817    1.420   .     A
C816   C819    1.420   .     A
C816   C257    1.396   1_556 S
C817   C832    1.403   .     A
C817   C827    1.406   .     A
C818   C829    1.404   .     S
C818   O862    1.286   .     A
C818   O860    1.267   .     A
C819   C826    1.406   .     A
C820   H848    1.084   .     S
C821   H849    1.084   .     S
C821   C269    1.384   1_556 S
C822   H834    1.111   .     S
C822   N857    1.447   .     S
C822   H836    1.111   .     S
C822   H835    1.110   .     S
C823   H840    1.110   .     S
C823   H839    1.111   .     S
C823   N858    1.447   .     S
C823   H838    1.111   .     S
C824   H843    1.110   .     S
C824   H842    1.111   .     S
C825   H846    1.110   .     S
C825   H847    1.111   .     S
C825   C1015   1.526   .     S
C825   H1031   1.112   .     S
C826   H850    1.081   .     S
C826   C262    1.384   1_556 S
C827   H851    1.081   .     S
C828   C1010   1.526   .     S
C828   C1015   1.362   .     S
C830   O865    1.286   .     A
C830   O863    1.286   .     A
C831   O866    1.286   .     A
C831   O864    1.286   .     A
C832   N857    1.427   .     S
H837   N858    1.031   .     S
H841   C1010   1.112   .     S
H853   N918    1.029   .     S
H854   N857    1.031   .     S
N855   Zn868   2.008   .     S
N855   H914    1.029   .     S
N855   N918    1.280   .     S
N856   Zn867   2.008   .     S
O859   Zn867   1.969   .     S
O860   Zn868   1.969   .     S
O861   Zn868   1.985   .     S
O862   Zn867   1.985   .     S
O863   Zn867   2.005   .     S
O864   Zn868   2.005   .     S
O865   Zn868   2.031   .     S
O866   Zn867   2.031   .     S
C869   O923    1.286   .     A
C869   C890    1.404   .     S
C869   O921    1.267   .     A
C870   N920    1.427   .     S
C870   C872    1.408   .     A
C870   C881    1.403   .     A
C871   C894    1.408   .     A
C871   C893    1.437   .     S
C871   C873    1.393   .     A
C872   C874    1.393   .     A
C872   C892    1.437   .     S
C873   C875    1.375   .     A
C873   H895    1.086   .     S
C874   H906    1.086   .     S
C874   C876    1.375   .     A
C875   C877    1.408   .     A
C875   C882    1.396   .     A
C876   C883    1.396   .     A
C876   C878    1.408   .     A
C877   C879    1.420   .     A
C878   C881    1.420   .     A
C878   C319    1.396   1_556 S
C879   C894    1.403   .     A
C879   C889    1.406   .     A
C880   C891    1.404   .     S
C880   O924    1.286   .     A
C880   O922    1.267   .     A
C881   C888    1.406   .     A
C882   H910    1.084   .     S
C883   H911    1.084   .     S
C883   C331    1.384   1_556 S
C884   H896    1.111   .     S
C884   N919    1.447   .     S
C884   H898    1.111   .     S
C884   H897    1.110   .     S
C885   H902    1.110   .     S
C885   H901    1.111   .     S
C885   N920    1.447   .     S
C885   H900    1.111   .     S
C886   H905    1.110   .     S
C886   H904    1.111   .     S
C887   H908    1.110   .     S
C887   H909    1.111   .     S
C887   C1077   1.526   .     S
C887   H1093   1.112   .     S
C888   H912    1.081   .     S
C888   C324    1.384   1_556 S
C889   H913    1.081   .     S
C890   C1072   1.526   .     S
C890   C1077   1.362   .     S
C892   O927    1.286   .     A
C892   O925    1.286   .     A
C893   O928    1.286   .     A
C893   O926    1.286   .     A
C894   N919    1.427   .     S
H899   N920    1.031   .     S
H903   C1072   1.112   .     S
H915   N794    1.029   1_655 S
H916   N919    1.031   .     S
N917   Zn930   2.008   .     S
N917   H790    1.029   1_655 S
N917   N794    1.280   1_655 S
N918   Zn929   2.008   .     S
O921   Zn929   1.969   .     S
O922   Zn930   1.969   .     S
O923   Zn930   1.985   .     S
O924   Zn929   1.985   .     S
O925   Zn929   2.005   .     S
O926   Zn930   2.005   .     S
O927   Zn930   2.031   .     S
O928   Zn929   2.031   .     S
C931   O985    1.286   .     A
C931   C952    1.404   .     S
C931   O983    1.267   .     A
C932   N982    1.427   .     S
C932   C934    1.408   .     A
C932   C943    1.403   .     A
C933   C956    1.408   .     A
C933   C955    1.437   .     S
C933   C935    1.393   .     A
C934   C936    1.393   .     A
C934   C954    1.437   .     S
C935   C937    1.375   .     A
C935   H957    1.086   .     S
C936   H968    1.086   .     S
C936   C938    1.375   .     A
C937   C939    1.408   .     A
C937   C944    1.396   .     A
C938   C945    1.396   .     A
C938   C940    1.408   .     A
C939   C941    1.420   .     A
C940   C943    1.420   .     A
C940   C381    1.396   1_556 S
C941   C956    1.403   .     A
C941   C951    1.406   .     A
C942   C953    1.404   .     S
C942   O986    1.286   .     A
C942   O984    1.267   .     A
C943   C950    1.406   .     A
C944   H972    1.084   .     S
C945   H973    1.084   .     S
C945   C393    1.384   1_556 S
C946   H958    1.111   .     S
C946   N981    1.447   .     S
C946   H960    1.111   .     S
C946   H959    1.110   .     S
C947   H964    1.110   .     S
C947   H963    1.111   .     S
C947   N982    1.447   .     S
C947   H962    1.111   .     S
C948   H967    1.110   .     S
C948   H966    1.111   .     S
C949   H970    1.110   .     S
C949   H971    1.111   .     S
C949   C581    1.526   1_565 S
C949   H597    1.112   1_565 S
C950   H974    1.081   .     S
C950   C386    1.384   1_556 S
C951   H975    1.081   .     S
C952   C576    1.526   1_565 S
C952   C581    1.362   1_565 S
C954   O989    1.286   .     A
C954   O987    1.286   .     A
C955   O990    1.286   .     A
C955   O988    1.286   .     A
C956   N981    1.427   .     S
H961   N982    1.031   .     S
H965   C576    1.112   1_565 S
H976   N1103   1.029   1_455 S
H977   N1042   1.029   .     S
H978   N981    1.031   .     S
N979   Zn992   2.008   .     S
N979   H1038   1.029   .     S
N979   N1042   1.280   .     S
N980   Zn991   2.008   .     S
N980   N1103   1.280   1_455 S
N980   H1101   1.029   1_455 S
O983   Zn991   1.969   .     S
O984   Zn992   1.969   .     S
O985   Zn992   1.985   .     S
O986   Zn991   1.985   .     S
O987   Zn991   2.005   .     S
O988   Zn992   2.005   .     S
O989   Zn992   2.031   .     S
O990   Zn991   2.031   .     S
C993   O1047   1.286   .     A
C993   C1014   1.404   .     S
C993   O1045   1.267   .     A
C994   N1044   1.427   .     S
C994   C996    1.408   .     A
C994   C1005   1.403   .     A
C995   C1018   1.408   .     A
C995   C1017   1.437   .     S
C995   C997    1.393   .     A
C996   C998    1.393   .     A
C996   C1016   1.437   .     S
C997   C999    1.375   .     A
C997   H1019   1.086   .     S
C998   H1030   1.086   .     S
C998   C1000   1.375   .     A
C999   C1001   1.408   .     A
C999   C1006   1.396   .     A
C1000  C1007   1.396   .     A
C1000  C1002   1.408   .     A
C1001  C1003   1.420   .     A
C1002  C1005   1.420   .     A
C1002  C443    1.396   1_556 S
C1003  C1018   1.403   .     A
C1003  C1013   1.406   .     A
C1004  C1015   1.404   .     S
C1004  O1048   1.286   .     A
C1004  O1046   1.267   .     A
C1005  C1012   1.406   .     A
C1006  H1034   1.084   .     S
C1007  H1035   1.084   .     S
C1007  C455    1.384   1_556 S
C1008  H1020   1.111   .     S
C1008  N1043   1.447   .     S
C1008  H1022   1.111   .     S
C1008  H1021   1.110   .     S
C1009  H1026   1.110   .     S
C1009  H1025   1.111   .     S
C1009  N1044   1.447   .     S
C1009  H1024   1.111   .     S
C1010  H1029   1.110   .     S
C1010  H1028   1.111   .     S
C1011  H1032   1.110   .     S
C1011  H1033   1.111   .     S
C1011  C643    1.526   1_565 S
C1011  H659    1.112   1_565 S
C1012  H1036   1.081   .     S
C1012  C448    1.384   1_556 S
C1013  H1037   1.081   .     S
C1014  C638    1.526   1_565 S
C1014  C643    1.362   1_565 S
C1016  O1051   1.286   .     A
C1016  O1049   1.286   .     A
C1017  O1052   1.286   .     A
C1017  O1050   1.286   .     A
C1018  N1043   1.427   .     S
H1023  N1044   1.031   .     S
H1027  C638    1.112   1_565 S
H1039  N1104   1.029   .     S
H1040  N1043   1.031   .     S
N1041  Zn1054  2.008   .     S
N1041  H1100   1.029   .     S
N1041  N1104   1.280   .     S
N1042  Zn1053  2.008   .     S
O1045  Zn1053  1.969   .     S
O1046  Zn1054  1.969   .     S
O1047  Zn1054  1.985   .     S
O1048  Zn1053  1.985   .     S
O1049  Zn1053  2.005   .     S
O1050  Zn1054  2.005   .     S
O1051  Zn1054  2.031   .     S
O1052  Zn1053  2.031   .     S
C1055  O1109   1.286   .     A
C1055  C1076   1.404   .     S
C1055  O1107   1.267   .     A
C1056  N1106   1.427   .     S
C1056  C1058   1.408   .     A
C1056  C1067   1.403   .     A
C1057  C1080   1.408   .     A
C1057  C1079   1.437   .     S
C1057  C1059   1.393   .     A
C1058  C1060   1.393   .     A
C1058  C1078   1.437   .     S
C1059  C1061   1.375   .     A
C1059  H1081   1.086   .     S
C1060  H1092   1.086   .     S
C1060  C1062   1.375   .     A
C1061  C1063   1.408   .     A
C1061  C1068   1.396   .     A
C1062  C1069   1.396   .     A
C1062  C1064   1.408   .     A
C1063  C1065   1.420   .     A
C1064  C1067   1.420   .     A
C1064  C505    1.396   1_556 S
C1065  C1080   1.403   .     A
C1065  C1075   1.406   .     A
C1066  C1077   1.404   .     S
C1066  O1110   1.286   .     A
C1066  O1108   1.267   .     A
C1067  C1074   1.406   .     A
C1068  H1096   1.084   .     S
C1069  H1097   1.084   .     S
C1069  C517    1.384   1_556 S
C1070  H1082   1.111   .     S
C1070  N1105   1.447   .     S
C1070  H1084   1.111   .     S
C1070  H1083   1.110   .     S
C1071  H1088   1.110   .     S
C1071  H1087   1.111   .     S
C1071  N1106   1.447   .     S
C1071  H1086   1.111   .     S
C1072  H1091   1.110   .     S
C1072  H1090   1.111   .     S
C1073  H1094   1.110   .     S
C1073  H1095   1.111   .     S
C1073  C705    1.526   1_565 S
C1073  H721    1.112   1_565 S
C1074  H1098   1.081   .     S
C1074  C510    1.384   1_556 S
C1075  H1099   1.081   .     S
C1076  C700    1.526   1_565 S
C1076  C705    1.362   1_565 S
C1078  O1113   1.286   .     A
C1078  O1111   1.286   .     A
C1079  O1114   1.286   .     A
C1079  O1112   1.286   .     A
C1080  N1105   1.427   .     S
H1085  N1106   1.031   .     S
H1089  C700    1.112   1_565 S
H1101  N980    1.029   1_655 S
H1102  N1105   1.031   .     S
N1103  Zn1116  2.008   .     S
N1103  H976    1.029   1_655 S
N1103  N980    1.280   1_655 S
N1104  Zn1115  2.008   .     S
O1107  Zn1115  1.969   .     S
O1108  Zn1116  1.969   .     S
O1109  Zn1116  1.985   .     S
O1110  Zn1115  1.985   .     S
O1111  Zn1115  2.005   .     S
O1112  Zn1116  2.005   .     S
O1113  Zn1116  2.031   .     S
O1114  Zn1115  2.031   .     S
