data_str_m1_o10_o16_pcu_sym.34
_audit_creation_date              2020-01-03
_audit_creation_method            'Materials Studio'
_symmetry_space_group_name_H-M    'P1'
_symmetry_Int_Tables_number       1
_symmetry_cell_setting            triclinic
loop_
_symmetry_equiv_pos_as_xyz
  x,y,z
_cell_length_a                    32.6964
_cell_length_b                    32.6211
_cell_length_c                    31.0349
_cell_angle_alpha                 96.7056
_cell_angle_beta                  74.3498
_cell_angle_gamma                 98.4392
loop_
_atom_site_label
_atom_site_type_symbol
_atom_site_fract_x
_atom_site_fract_y
_atom_site_fract_z
_atom_site_U_iso_or_equiv
_atom_site_adp_type
_atom_site_occupancy
C1     C     0.05306   0.15994   0.25966   0.00000  Uiso   1.00
C2     C     0.16705   0.16224   0.06163   0.00000  Uiso   1.00
C3     C     0.22905   0.12586   0.05448   0.00000  Uiso   1.00
C4     C     0.28068   0.17380   0.24023   0.00000  Uiso   1.00
C5     C     0.13880   0.19172   0.41991   0.00000  Uiso   1.00
C6     C     0.32627   0.17724   0.23730   0.00000  Uiso   1.00
C7     C     0.00798   0.15664   0.26431   0.00000  Uiso   1.00
C8     C     0.17990   0.32252   0.23849   0.00000  Uiso   1.00
C9     C     0.15040   0.01242   0.26445   0.00000  Uiso   1.00
C10    C     0.15668   0.05605   0.25955   0.00000  Uiso   1.00
C11    C     0.17630   0.27789   0.24045   0.00000  Uiso   1.00
C12    C     0.08002   0.18998   0.48684   0.00000  Uiso   1.00
C13    C     0.18563   0.14804   0.12943   0.00000  Uiso   1.00
C14    C     0.14918   0.18552   0.37072   0.00000  Uiso   1.00
C15    C     0.24222   0.13136   0.00889   0.00000  Uiso   1.00
C16    C     0.19266   0.14298   0.08100   0.00000  Uiso   1.00
C17    C     0.09641   0.19777   0.44215   0.00000  Uiso   1.00
C18    C     0.10567   0.17602   0.00977   0.00000  Uiso   1.00
C19    C     0.14994   0.17494   0.49040   0.00000  Uiso   1.00
C20    C     0.16704   0.18385   0.44468   0.00000  Uiso   1.00
C21    C     0.17718   0.16249   0.01408   0.00000  Uiso   1.00
C22    C     0.21772   0.15123   0.48903   0.00000  Uiso   1.00
C23    C     0.23503   0.16317   0.44551   0.00000  Uiso   1.00
C24    C     0.21149   0.18328   0.42520   0.00000  Uiso   1.00
H25    H     0.20782   0.00387   0.21513   0.00000  Uiso   1.00
H26    H     0.26820   0.15991   0.42867   0.00000  Uiso   1.00
H27    H     0.27231   0.12119   0.48922   0.00000  Uiso   1.00
H28    H     0.07474   0.20493   0.42390   0.00000  Uiso   1.00
H29    H     0.08984   0.16477   0.04200   0.00000  Uiso   1.00
H30    H     0.10856   0.17111   0.10415   0.00000  Uiso   1.00
H31    H     0.13458   0.21423   0.07574   0.00000  Uiso   1.00
H32    H     0.03837   0.22671   0.22152   0.00000  Uiso   1.00
H33    H     0.04320   0.18546   0.18241   0.00000  Uiso   1.00
I34    I     0.26803   0.09587   0.08264   0.00000  Uiso   1.00
I35    I     0.30696   0.11439   0.31334   0.00000  Uiso   1.00
I36    I     0.09098   0.32586   0.31029   0.00000  Uiso   1.00
I37    I     0.01499   0.19512   0.01837   0.00000  Uiso   1.00
I38    I     0.24843   0.22024   0.37240   0.00000  Uiso   1.00
N39    N     0.13789   0.18859   0.09124   0.00000  Uiso   1.00
N40    N     0.02141   0.20341   0.20480   0.00000  Uiso   1.00
O41    O     0.16667   0.16667   0.25000   0.00000  Uiso   1.00
O42    O     0.15451   0.12637   0.15458   0.00000  Uiso   1.00
O43    O     0.12940   0.20391   0.34968   0.00000  Uiso   1.00
O44    O     0.20824   0.17759   0.14606   0.00000  Uiso   1.00
O45    O     0.17451   0.15880   0.34968   0.00000  Uiso   1.00
O46    O     0.17930   0.08019   0.28213   0.00000  Uiso   1.00
O47    O     0.14632   0.26085   0.27014   0.00000  Uiso   1.00
O48    O     0.07412   0.13291   0.23413   0.00000  Uiso   1.00
O49    O     0.26693   0.19272   0.21360   0.00000  Uiso   1.00
O50    O     0.07071   0.18878   0.28213   0.00000  Uiso   1.00
O51    O     0.25491   0.15226   0.27013   0.00000  Uiso   1.00
O52    O     0.13760   0.06944   0.23413   0.00000  Uiso   1.00
O53    O     0.20345   0.25620   0.21360   0.00000  Uiso   1.00
Zn54   Zn    0.19338   0.13994   0.28734   0.00000  Uiso   1.00
Zn55   Zn    0.13379   0.12458   0.21875   0.00000  Uiso   1.00
Zn56   Zn    0.21056   0.19775   0.20657   0.00000  Uiso   1.00
Zn57   Zn    0.12893   0.20439   0.28733   0.00000  Uiso   1.00
C58    C     0.38639   0.15994   0.25966   0.00000  Uiso   1.00
C59    C     0.50039   0.16224   0.06163   0.00000  Uiso   1.00
C60    C     0.56239   0.12586   0.05448   0.00000  Uiso   1.00
C61    C     0.61401   0.17380   0.24023   0.00000  Uiso   1.00
C62    C     0.47213   0.19172   0.41991   0.00000  Uiso   1.00
C63    C     0.65960   0.17724   0.23730   0.00000  Uiso   1.00
C64    C     0.34131   0.15664   0.26431   0.00000  Uiso   1.00
C65    C     0.51323   0.32252   0.23849   0.00000  Uiso   1.00
C66    C     0.48373   0.01242   0.26445   0.00000  Uiso   1.00
C67    C     0.49001   0.05605   0.25955   0.00000  Uiso   1.00
C68    C     0.50963   0.27789   0.24045   0.00000  Uiso   1.00
C69    C     0.41335   0.18998   0.48684   0.00000  Uiso   1.00
C70    C     0.51897   0.14804   0.12943   0.00000  Uiso   1.00
C71    C     0.48251   0.18552   0.37072   0.00000  Uiso   1.00
C72    C     0.57556   0.13136   0.00889   0.00000  Uiso   1.00
C73    C     0.52599   0.14298   0.08100   0.00000  Uiso   1.00
C74    C     0.42975   0.19777   0.44215   0.00000  Uiso   1.00
C75    C     0.43900   0.17602   0.00977   0.00000  Uiso   1.00
C76    C     0.48327   0.17494   0.49040   0.00000  Uiso   1.00
C77    C     0.50037   0.18385   0.44468   0.00000  Uiso   1.00
C78    C     0.51051   0.16249   0.01408   0.00000  Uiso   1.00
C79    C     0.55105   0.15123   0.48903   0.00000  Uiso   1.00
C80    C     0.56837   0.16317   0.44551   0.00000  Uiso   1.00
C81    C     0.54482   0.18328   0.42520   0.00000  Uiso   1.00
H82    H     0.54115   0.00387   0.21513   0.00000  Uiso   1.00
H83    H     0.60153   0.15991   0.42867   0.00000  Uiso   1.00
H84    H     0.60565   0.12119   0.48922   0.00000  Uiso   1.00
H85    H     0.40808   0.20493   0.42390   0.00000  Uiso   1.00
H86    H     0.42318   0.16477   0.04200   0.00000  Uiso   1.00
H87    H     0.44189   0.17111   0.10415   0.00000  Uiso   1.00
H88    H     0.46791   0.21423   0.07574   0.00000  Uiso   1.00
H89    H     0.37171   0.22671   0.22152   0.00000  Uiso   1.00
H90    H     0.37653   0.18546   0.18241   0.00000  Uiso   1.00
I91    I     0.60137   0.09587   0.08264   0.00000  Uiso   1.00
I92    I     0.64030   0.11439   0.31334   0.00000  Uiso   1.00
I93    I     0.42431   0.32586   0.31029   0.00000  Uiso   1.00
I94    I     0.34832   0.19512   0.01837   0.00000  Uiso   1.00
I95    I     0.58176   0.22024   0.37240   0.00000  Uiso   1.00
N96    N     0.47123   0.18859   0.09124   0.00000  Uiso   1.00
N97    N     0.35474   0.20341   0.20480   0.00000  Uiso   1.00
O98    O     0.50000   0.16667   0.25000   0.00000  Uiso   1.00
O99    O     0.48784   0.12637   0.15458   0.00000  Uiso   1.00
O100   O     0.46274   0.20391   0.34968   0.00000  Uiso   1.00
O101   O     0.54157   0.17759   0.14606   0.00000  Uiso   1.00
O102   O     0.50785   0.15880   0.34968   0.00000  Uiso   1.00
O103   O     0.51264   0.08019   0.28213   0.00000  Uiso   1.00
O104   O     0.47965   0.26085   0.27014   0.00000  Uiso   1.00
O105   O     0.40745   0.13291   0.23413   0.00000  Uiso   1.00
O106   O     0.60026   0.19272   0.21360   0.00000  Uiso   1.00
O107   O     0.40405   0.18878   0.28213   0.00000  Uiso   1.00
O108   O     0.58824   0.15226   0.27013   0.00000  Uiso   1.00
O109   O     0.47093   0.06944   0.23413   0.00000  Uiso   1.00
O110   O     0.53678   0.25620   0.21360   0.00000  Uiso   1.00
Zn111  Zn    0.52672   0.13994   0.28734   0.00000  Uiso   1.00
Zn112  Zn    0.46713   0.12458   0.21875   0.00000  Uiso   1.00
Zn113  Zn    0.54389   0.19775   0.20657   0.00000  Uiso   1.00
Zn114  Zn    0.46226   0.20439   0.28733   0.00000  Uiso   1.00
C115   C     0.71973   0.15994   0.25966   0.00000  Uiso   1.00
C116   C     0.83372   0.16224   0.06163   0.00000  Uiso   1.00
C117   C     0.89572   0.12586   0.05448   0.00000  Uiso   1.00
C118   C     0.94735   0.17380   0.24023   0.00000  Uiso   1.00
C119   C     0.80546   0.19172   0.41991   0.00000  Uiso   1.00
C120   C     0.99293   0.17724   0.23730   0.00000  Uiso   1.00
C121   C     0.67464   0.15664   0.26431   0.00000  Uiso   1.00
C122   C     0.84656   0.32252   0.23849   0.00000  Uiso   1.00
C123   C     0.81707   0.01242   0.26445   0.00000  Uiso   1.00
C124   C     0.82334   0.05605   0.25955   0.00000  Uiso   1.00
C125   C     0.84297   0.27789   0.24045   0.00000  Uiso   1.00
C126   C     0.74669   0.18998   0.48684   0.00000  Uiso   1.00
C127   C     0.85230   0.14804   0.12943   0.00000  Uiso   1.00
C128   C     0.81585   0.18552   0.37072   0.00000  Uiso   1.00
C129   C     0.90889   0.13136   0.00889   0.00000  Uiso   1.00
C130   C     0.85933   0.14298   0.08100   0.00000  Uiso   1.00
C131   C     0.76308   0.19777   0.44215   0.00000  Uiso   1.00
C132   C     0.77233   0.17602   0.00977   0.00000  Uiso   1.00
C133   C     0.81660   0.17494   0.49040   0.00000  Uiso   1.00
C134   C     0.83371   0.18385   0.44468   0.00000  Uiso   1.00
C135   C     0.84385   0.16249   0.01408   0.00000  Uiso   1.00
C136   C     0.88438   0.15123   0.48903   0.00000  Uiso   1.00
C137   C     0.90170   0.16317   0.44551   0.00000  Uiso   1.00
C138   C     0.87816   0.18328   0.42520   0.00000  Uiso   1.00
H139   H     0.87448   0.00387   0.21513   0.00000  Uiso   1.00
H140   H     0.93487   0.15991   0.42867   0.00000  Uiso   1.00
H141   H     0.93898   0.12119   0.48922   0.00000  Uiso   1.00
H142   H     0.74141   0.20493   0.42390   0.00000  Uiso   1.00
H143   H     0.75651   0.16477   0.04200   0.00000  Uiso   1.00
H144   H     0.77522   0.17111   0.10415   0.00000  Uiso   1.00
H145   H     0.80125   0.21423   0.07574   0.00000  Uiso   1.00
H146   H     0.70504   0.22671   0.22152   0.00000  Uiso   1.00
H147   H     0.70987   0.18546   0.18241   0.00000  Uiso   1.00
I148   I     0.93470   0.09587   0.08264   0.00000  Uiso   1.00
I149   I     0.97363   0.11439   0.31334   0.00000  Uiso   1.00
I150   I     0.75765   0.32586   0.31029   0.00000  Uiso   1.00
I151   I     0.68165   0.19512   0.01837   0.00000  Uiso   1.00
I152   I     0.91510   0.22024   0.37240   0.00000  Uiso   1.00
N153   N     0.80456   0.18859   0.09124   0.00000  Uiso   1.00
N154   N     0.68807   0.20341   0.20480   0.00000  Uiso   1.00
O155   O     0.83333   0.16667   0.25000   0.00000  Uiso   1.00
O156   O     0.82118   0.12637   0.15458   0.00000  Uiso   1.00
O157   O     0.79607   0.20391   0.34968   0.00000  Uiso   1.00
O158   O     0.87491   0.17759   0.14606   0.00000  Uiso   1.00
O159   O     0.84118   0.15880   0.34968   0.00000  Uiso   1.00
O160   O     0.84597   0.08019   0.28213   0.00000  Uiso   1.00
O161   O     0.81298   0.26085   0.27014   0.00000  Uiso   1.00
O162   O     0.74078   0.13291   0.23413   0.00000  Uiso   1.00
O163   O     0.93360   0.19272   0.21360   0.00000  Uiso   1.00
O164   O     0.73738   0.18878   0.28213   0.00000  Uiso   1.00
O165   O     0.92158   0.15226   0.27013   0.00000  Uiso   1.00
O166   O     0.80426   0.06944   0.23413   0.00000  Uiso   1.00
O167   O     0.87012   0.25620   0.21360   0.00000  Uiso   1.00
Zn168  Zn    0.86005   0.13994   0.28734   0.00000  Uiso   1.00
Zn169  Zn    0.80046   0.12458   0.21875   0.00000  Uiso   1.00
Zn170  Zn    0.87723   0.19775   0.20657   0.00000  Uiso   1.00
Zn171  Zn    0.79560   0.20439   0.28733   0.00000  Uiso   1.00
C172   C     0.05306   0.49328   0.25966   0.00000  Uiso   1.00
C173   C     0.16705   0.49557   0.06163   0.00000  Uiso   1.00
C174   C     0.22905   0.45919   0.05448   0.00000  Uiso   1.00
C175   C     0.28068   0.50713   0.24023   0.00000  Uiso   1.00
C176   C     0.13880   0.52505   0.41991   0.00000  Uiso   1.00
C177   C     0.32627   0.51058   0.23730   0.00000  Uiso   1.00
C178   C     0.00798   0.48998   0.26431   0.00000  Uiso   1.00
C179   C     0.17990   0.65585   0.23849   0.00000  Uiso   1.00
C180   C     0.15040   0.34575   0.26445   0.00000  Uiso   1.00
C181   C     0.15668   0.38938   0.25955   0.00000  Uiso   1.00
C182   C     0.17630   0.61123   0.24045   0.00000  Uiso   1.00
C183   C     0.08002   0.52331   0.48684   0.00000  Uiso   1.00
C184   C     0.18563   0.48137   0.12943   0.00000  Uiso   1.00
C185   C     0.14918   0.51885   0.37072   0.00000  Uiso   1.00
C186   C     0.24222   0.46469   0.00889   0.00000  Uiso   1.00
C187   C     0.19266   0.47632   0.08100   0.00000  Uiso   1.00
C188   C     0.09641   0.53110   0.44215   0.00000  Uiso   1.00
C189   C     0.10567   0.50936   0.00977   0.00000  Uiso   1.00
C190   C     0.14994   0.50827   0.49040   0.00000  Uiso   1.00
C191   C     0.16704   0.51719   0.44468   0.00000  Uiso   1.00
C192   C     0.17718   0.49582   0.01408   0.00000  Uiso   1.00
C193   C     0.21772   0.48456   0.48903   0.00000  Uiso   1.00
C194   C     0.23503   0.49650   0.44551   0.00000  Uiso   1.00
C195   C     0.21149   0.51662   0.42520   0.00000  Uiso   1.00
H196   H     0.20782   0.33720   0.21513   0.00000  Uiso   1.00
H197   H     0.26820   0.49324   0.42867   0.00000  Uiso   1.00
H198   H     0.27231   0.45453   0.48922   0.00000  Uiso   1.00
H199   H     0.07474   0.53827   0.42390   0.00000  Uiso   1.00
H200   H     0.08984   0.49810   0.04200   0.00000  Uiso   1.00
H201   H     0.10856   0.50444   0.10415   0.00000  Uiso   1.00
H202   H     0.13458   0.54757   0.07574   0.00000  Uiso   1.00
H203   H     0.03837   0.56004   0.22152   0.00000  Uiso   1.00
H204   H     0.04320   0.51879   0.18241   0.00000  Uiso   1.00
I205   I     0.26803   0.42921   0.08264   0.00000  Uiso   1.00
I206   I     0.30696   0.44773   0.31334   0.00000  Uiso   1.00
I207   I     0.09098   0.65919   0.31029   0.00000  Uiso   1.00
I208   I     0.01499   0.52846   0.01837   0.00000  Uiso   1.00
I209   I     0.24843   0.55357   0.37240   0.00000  Uiso   1.00
N210   N     0.13789   0.52193   0.09124   0.00000  Uiso   1.00
N211   N     0.02141   0.53674   0.20480   0.00000  Uiso   1.00
O212   O     0.16667   0.50000   0.25000   0.00000  Uiso   1.00
O213   O     0.15451   0.45970   0.15458   0.00000  Uiso   1.00
O214   O     0.12940   0.53724   0.34968   0.00000  Uiso   1.00
O215   O     0.20824   0.51092   0.14606   0.00000  Uiso   1.00
O216   O     0.17451   0.49213   0.34968   0.00000  Uiso   1.00
O217   O     0.17930   0.41352   0.28213   0.00000  Uiso   1.00
O218   O     0.14632   0.59418   0.27014   0.00000  Uiso   1.00
O219   O     0.07412   0.46625   0.23413   0.00000  Uiso   1.00
O220   O     0.26693   0.52605   0.21360   0.00000  Uiso   1.00
O221   O     0.07071   0.52211   0.28213   0.00000  Uiso   1.00
O222   O     0.25491   0.48559   0.27013   0.00000  Uiso   1.00
O223   O     0.13760   0.40277   0.23413   0.00000  Uiso   1.00
O224   O     0.20345   0.58953   0.21360   0.00000  Uiso   1.00
Zn225  Zn    0.19338   0.47327   0.28734   0.00000  Uiso   1.00
Zn226  Zn    0.13379   0.45791   0.21875   0.00000  Uiso   1.00
Zn227  Zn    0.21056   0.53109   0.20657   0.00000  Uiso   1.00
Zn228  Zn    0.12893   0.53773   0.28733   0.00000  Uiso   1.00
C229   C     0.38639   0.49328   0.25966   0.00000  Uiso   1.00
C230   C     0.50039   0.49557   0.06163   0.00000  Uiso   1.00
C231   C     0.56239   0.45919   0.05448   0.00000  Uiso   1.00
C232   C     0.61401   0.50713   0.24023   0.00000  Uiso   1.00
C233   C     0.47213   0.52505   0.41991   0.00000  Uiso   1.00
C234   C     0.65960   0.51058   0.23730   0.00000  Uiso   1.00
C235   C     0.34131   0.48998   0.26431   0.00000  Uiso   1.00
C236   C     0.51323   0.65585   0.23849   0.00000  Uiso   1.00
C237   C     0.48373   0.34575   0.26445   0.00000  Uiso   1.00
C238   C     0.49001   0.38938   0.25955   0.00000  Uiso   1.00
C239   C     0.50963   0.61123   0.24045   0.00000  Uiso   1.00
C240   C     0.41335   0.52331   0.48684   0.00000  Uiso   1.00
C241   C     0.51897   0.48137   0.12943   0.00000  Uiso   1.00
C242   C     0.48251   0.51885   0.37072   0.00000  Uiso   1.00
C243   C     0.57556   0.46469   0.00889   0.00000  Uiso   1.00
C244   C     0.52599   0.47632   0.08100   0.00000  Uiso   1.00
C245   C     0.42975   0.53110   0.44215   0.00000  Uiso   1.00
C246   C     0.43900   0.50936   0.00977   0.00000  Uiso   1.00
C247   C     0.48327   0.50827   0.49040   0.00000  Uiso   1.00
C248   C     0.50037   0.51719   0.44468   0.00000  Uiso   1.00
C249   C     0.51051   0.49582   0.01408   0.00000  Uiso   1.00
C250   C     0.55105   0.48456   0.48903   0.00000  Uiso   1.00
C251   C     0.56837   0.49650   0.44551   0.00000  Uiso   1.00
C252   C     0.54482   0.51662   0.42520   0.00000  Uiso   1.00
H253   H     0.54115   0.33720   0.21513   0.00000  Uiso   1.00
H254   H     0.60153   0.49324   0.42867   0.00000  Uiso   1.00
H255   H     0.60565   0.45453   0.48922   0.00000  Uiso   1.00
H256   H     0.40808   0.53827   0.42390   0.00000  Uiso   1.00
H257   H     0.42318   0.49810   0.04200   0.00000  Uiso   1.00
H258   H     0.44189   0.50444   0.10415   0.00000  Uiso   1.00
H259   H     0.46791   0.54757   0.07574   0.00000  Uiso   1.00
H260   H     0.37171   0.56004   0.22152   0.00000  Uiso   1.00
H261   H     0.37653   0.51879   0.18241   0.00000  Uiso   1.00
I262   I     0.60137   0.42921   0.08264   0.00000  Uiso   1.00
I263   I     0.64030   0.44773   0.31334   0.00000  Uiso   1.00
I264   I     0.42431   0.65919   0.31029   0.00000  Uiso   1.00
I265   I     0.34832   0.52846   0.01837   0.00000  Uiso   1.00
I266   I     0.58176   0.55357   0.37240   0.00000  Uiso   1.00
N267   N     0.47123   0.52193   0.09124   0.00000  Uiso   1.00
N268   N     0.35474   0.53674   0.20480   0.00000  Uiso   1.00
O269   O     0.50000   0.50000   0.25000   0.00000  Uiso   1.00
O270   O     0.48784   0.45970   0.15458   0.00000  Uiso   1.00
O271   O     0.46274   0.53724   0.34968   0.00000  Uiso   1.00
O272   O     0.54157   0.51092   0.14606   0.00000  Uiso   1.00
O273   O     0.50785   0.49213   0.34968   0.00000  Uiso   1.00
O274   O     0.51264   0.41352   0.28213   0.00000  Uiso   1.00
O275   O     0.47965   0.59418   0.27014   0.00000  Uiso   1.00
O276   O     0.40745   0.46625   0.23413   0.00000  Uiso   1.00
O277   O     0.60026   0.52605   0.21360   0.00000  Uiso   1.00
O278   O     0.40405   0.52211   0.28213   0.00000  Uiso   1.00
O279   O     0.58824   0.48559   0.27013   0.00000  Uiso   1.00
O280   O     0.47093   0.40277   0.23413   0.00000  Uiso   1.00
O281   O     0.53678   0.58953   0.21360   0.00000  Uiso   1.00
Zn282  Zn    0.52672   0.47327   0.28734   0.00000  Uiso   1.00
Zn283  Zn    0.46713   0.45791   0.21875   0.00000  Uiso   1.00
Zn284  Zn    0.54389   0.53109   0.20657   0.00000  Uiso   1.00
Zn285  Zn    0.46226   0.53773   0.28733   0.00000  Uiso   1.00
C286   C     0.71973   0.49328   0.25966   0.00000  Uiso   1.00
C287   C     0.83372   0.49557   0.06163   0.00000  Uiso   1.00
C288   C     0.89572   0.45919   0.05448   0.00000  Uiso   1.00
C289   C     0.94735   0.50713   0.24023   0.00000  Uiso   1.00
C290   C     0.80546   0.52505   0.41991   0.00000  Uiso   1.00
C291   C     0.99293   0.51058   0.23730   0.00000  Uiso   1.00
C292   C     0.67464   0.48998   0.26431   0.00000  Uiso   1.00
C293   C     0.84656   0.65585   0.23849   0.00000  Uiso   1.00
C294   C     0.81707   0.34575   0.26445   0.00000  Uiso   1.00
C295   C     0.82334   0.38938   0.25955   0.00000  Uiso   1.00
C296   C     0.84297   0.61123   0.24045   0.00000  Uiso   1.00
C297   C     0.74669   0.52331   0.48684   0.00000  Uiso   1.00
C298   C     0.85230   0.48137   0.12943   0.00000  Uiso   1.00
C299   C     0.81585   0.51885   0.37072   0.00000  Uiso   1.00
C300   C     0.90889   0.46469   0.00889   0.00000  Uiso   1.00
C301   C     0.85933   0.47632   0.08100   0.00000  Uiso   1.00
C302   C     0.76308   0.53110   0.44215   0.00000  Uiso   1.00
C303   C     0.77233   0.50936   0.00977   0.00000  Uiso   1.00
C304   C     0.81660   0.50827   0.49040   0.00000  Uiso   1.00
C305   C     0.83371   0.51719   0.44468   0.00000  Uiso   1.00
C306   C     0.84385   0.49582   0.01408   0.00000  Uiso   1.00
C307   C     0.88438   0.48456   0.48903   0.00000  Uiso   1.00
C308   C     0.90170   0.49650   0.44551   0.00000  Uiso   1.00
C309   C     0.87816   0.51662   0.42520   0.00000  Uiso   1.00
H310   H     0.87448   0.33720   0.21513   0.00000  Uiso   1.00
H311   H     0.93487   0.49324   0.42867   0.00000  Uiso   1.00
H312   H     0.93898   0.45453   0.48922   0.00000  Uiso   1.00
H313   H     0.74141   0.53827   0.42390   0.00000  Uiso   1.00
H314   H     0.75651   0.49810   0.04200   0.00000  Uiso   1.00
H315   H     0.77522   0.50444   0.10415   0.00000  Uiso   1.00
H316   H     0.80125   0.54757   0.07574   0.00000  Uiso   1.00
H317   H     0.70504   0.56004   0.22152   0.00000  Uiso   1.00
H318   H     0.70987   0.51879   0.18241   0.00000  Uiso   1.00
I319   I     0.93470   0.42921   0.08264   0.00000  Uiso   1.00
I320   I     0.97363   0.44773   0.31334   0.00000  Uiso   1.00
I321   I     0.75765   0.65919   0.31029   0.00000  Uiso   1.00
I322   I     0.68165   0.52846   0.01837   0.00000  Uiso   1.00
I323   I     0.91510   0.55357   0.37240   0.00000  Uiso   1.00
N324   N     0.80456   0.52193   0.09124   0.00000  Uiso   1.00
N325   N     0.68807   0.53674   0.20480   0.00000  Uiso   1.00
O326   O     0.83333   0.50000   0.25000   0.00000  Uiso   1.00
O327   O     0.82118   0.45970   0.15458   0.00000  Uiso   1.00
O328   O     0.79607   0.53724   0.34968   0.00000  Uiso   1.00
O329   O     0.87491   0.51092   0.14606   0.00000  Uiso   1.00
O330   O     0.84118   0.49213   0.34968   0.00000  Uiso   1.00
O331   O     0.84597   0.41352   0.28213   0.00000  Uiso   1.00
O332   O     0.81298   0.59418   0.27014   0.00000  Uiso   1.00
O333   O     0.74078   0.46625   0.23413   0.00000  Uiso   1.00
O334   O     0.93360   0.52605   0.21360   0.00000  Uiso   1.00
O335   O     0.73738   0.52211   0.28213   0.00000  Uiso   1.00
O336   O     0.92158   0.48559   0.27013   0.00000  Uiso   1.00
O337   O     0.80426   0.40277   0.23413   0.00000  Uiso   1.00
O338   O     0.87012   0.58953   0.21360   0.00000  Uiso   1.00
Zn339  Zn    0.86005   0.47327   0.28734   0.00000  Uiso   1.00
Zn340  Zn    0.80046   0.45791   0.21875   0.00000  Uiso   1.00
Zn341  Zn    0.87723   0.53109   0.20657   0.00000  Uiso   1.00
Zn342  Zn    0.79560   0.53773   0.28733   0.00000  Uiso   1.00
C343   C     0.05306   0.82661   0.25966   0.00000  Uiso   1.00
C344   C     0.16705   0.82890   0.06163   0.00000  Uiso   1.00
C345   C     0.22905   0.79252   0.05448   0.00000  Uiso   1.00
C346   C     0.28068   0.84047   0.24023   0.00000  Uiso   1.00
C347   C     0.13880   0.85839   0.41991   0.00000  Uiso   1.00
C348   C     0.32627   0.84391   0.23730   0.00000  Uiso   1.00
C349   C     0.00798   0.82331   0.26431   0.00000  Uiso   1.00
C350   C     0.17990   0.98918   0.23849   0.00000  Uiso   1.00
C351   C     0.15040   0.67909   0.26445   0.00000  Uiso   1.00
C352   C     0.15668   0.72271   0.25955   0.00000  Uiso   1.00
C353   C     0.17630   0.94456   0.24045   0.00000  Uiso   1.00
C354   C     0.08002   0.85665   0.48684   0.00000  Uiso   1.00
C355   C     0.18563   0.81470   0.12943   0.00000  Uiso   1.00
C356   C     0.14918   0.85219   0.37072   0.00000  Uiso   1.00
C357   C     0.24222   0.79802   0.00889   0.00000  Uiso   1.00
C358   C     0.19266   0.80965   0.08100   0.00000  Uiso   1.00
C359   C     0.09641   0.86443   0.44215   0.00000  Uiso   1.00
C360   C     0.10567   0.84269   0.00977   0.00000  Uiso   1.00
C361   C     0.14994   0.84161   0.49040   0.00000  Uiso   1.00
C362   C     0.16704   0.85052   0.44468   0.00000  Uiso   1.00
C363   C     0.17718   0.82916   0.01408   0.00000  Uiso   1.00
C364   C     0.21772   0.81790   0.48903   0.00000  Uiso   1.00
C365   C     0.23503   0.82983   0.44551   0.00000  Uiso   1.00
C366   C     0.21149   0.84995   0.42520   0.00000  Uiso   1.00
H367   H     0.20782   0.67053   0.21513   0.00000  Uiso   1.00
H368   H     0.26820   0.82658   0.42867   0.00000  Uiso   1.00
H369   H     0.27231   0.78786   0.48922   0.00000  Uiso   1.00
H370   H     0.07474   0.87160   0.42390   0.00000  Uiso   1.00
H371   H     0.08984   0.83144   0.04200   0.00000  Uiso   1.00
H372   H     0.10856   0.83777   0.10415   0.00000  Uiso   1.00
H373   H     0.13458   0.88090   0.07574   0.00000  Uiso   1.00
H374   H     0.03837   0.89338   0.22152   0.00000  Uiso   1.00
H375   H     0.04320   0.85212   0.18241   0.00000  Uiso   1.00
I376   I     0.26803   0.76254   0.08264   0.00000  Uiso   1.00
I377   I     0.30696   0.78106   0.31334   0.00000  Uiso   1.00
I378   I     0.09098   0.99253   0.31029   0.00000  Uiso   1.00
I379   I     0.01499   0.86179   0.01837   0.00000  Uiso   1.00
I380   I     0.24843   0.88690   0.37240   0.00000  Uiso   1.00
N381   N     0.13789   0.85526   0.09124   0.00000  Uiso   1.00
N382   N     0.02141   0.87007   0.20480   0.00000  Uiso   1.00
O383   O     0.16667   0.83333   0.25000   0.00000  Uiso   1.00
O384   O     0.15451   0.79304   0.15458   0.00000  Uiso   1.00
O385   O     0.12940   0.87058   0.34968   0.00000  Uiso   1.00
O386   O     0.20824   0.84425   0.14606   0.00000  Uiso   1.00
O387   O     0.17451   0.82546   0.34968   0.00000  Uiso   1.00
O388   O     0.17930   0.74686   0.28213   0.00000  Uiso   1.00
O389   O     0.14632   0.92751   0.27014   0.00000  Uiso   1.00
O390   O     0.07412   0.79958   0.23413   0.00000  Uiso   1.00
O391   O     0.26693   0.85939   0.21360   0.00000  Uiso   1.00
O392   O     0.07071   0.85544   0.28213   0.00000  Uiso   1.00
O393   O     0.25491   0.81892   0.27013   0.00000  Uiso   1.00
O394   O     0.13760   0.73610   0.23413   0.00000  Uiso   1.00
O395   O     0.20345   0.92286   0.21360   0.00000  Uiso   1.00
Zn396  Zn    0.19338   0.80661   0.28734   0.00000  Uiso   1.00
Zn397  Zn    0.13379   0.79124   0.21875   0.00000  Uiso   1.00
Zn398  Zn    0.21056   0.86442   0.20657   0.00000  Uiso   1.00
Zn399  Zn    0.12893   0.87106   0.28733   0.00000  Uiso   1.00
C400   C     0.38639   0.82661   0.25966   0.00000  Uiso   1.00
C401   C     0.50039   0.82890   0.06163   0.00000  Uiso   1.00
C402   C     0.56239   0.79252   0.05448   0.00000  Uiso   1.00
C403   C     0.61401   0.84047   0.24023   0.00000  Uiso   1.00
C404   C     0.47213   0.85839   0.41991   0.00000  Uiso   1.00
C405   C     0.65960   0.84391   0.23730   0.00000  Uiso   1.00
C406   C     0.34131   0.82331   0.26431   0.00000  Uiso   1.00
C407   C     0.51323   0.98918   0.23849   0.00000  Uiso   1.00
C408   C     0.48373   0.67909   0.26445   0.00000  Uiso   1.00
C409   C     0.49001   0.72271   0.25955   0.00000  Uiso   1.00
C410   C     0.50963   0.94456   0.24045   0.00000  Uiso   1.00
C411   C     0.41335   0.85665   0.48684   0.00000  Uiso   1.00
C412   C     0.51897   0.81470   0.12943   0.00000  Uiso   1.00
C413   C     0.48251   0.85219   0.37072   0.00000  Uiso   1.00
C414   C     0.57556   0.79802   0.00889   0.00000  Uiso   1.00
C415   C     0.52599   0.80965   0.08100   0.00000  Uiso   1.00
C416   C     0.42975   0.86443   0.44215   0.00000  Uiso   1.00
C417   C     0.43900   0.84269   0.00977   0.00000  Uiso   1.00
C418   C     0.48327   0.84161   0.49040   0.00000  Uiso   1.00
C419   C     0.50037   0.85052   0.44468   0.00000  Uiso   1.00
C420   C     0.51051   0.82916   0.01408   0.00000  Uiso   1.00
C421   C     0.55105   0.81790   0.48903   0.00000  Uiso   1.00
C422   C     0.56837   0.82983   0.44551   0.00000  Uiso   1.00
C423   C     0.54482   0.84995   0.42520   0.00000  Uiso   1.00
H424   H     0.54115   0.67053   0.21513   0.00000  Uiso   1.00
H425   H     0.60153   0.82658   0.42867   0.00000  Uiso   1.00
H426   H     0.60565   0.78786   0.48922   0.00000  Uiso   1.00
H427   H     0.40808   0.87160   0.42390   0.00000  Uiso   1.00
H428   H     0.42318   0.83144   0.04200   0.00000  Uiso   1.00
H429   H     0.44189   0.83777   0.10415   0.00000  Uiso   1.00
H430   H     0.46791   0.88090   0.07574   0.00000  Uiso   1.00
H431   H     0.37171   0.89338   0.22152   0.00000  Uiso   1.00
H432   H     0.37653   0.85212   0.18241   0.00000  Uiso   1.00
I433   I     0.60137   0.76254   0.08264   0.00000  Uiso   1.00
I434   I     0.64030   0.78106   0.31334   0.00000  Uiso   1.00
I435   I     0.42431   0.99253   0.31029   0.00000  Uiso   1.00
I436   I     0.34832   0.86179   0.01837   0.00000  Uiso   1.00
I437   I     0.58176   0.88690   0.37240   0.00000  Uiso   1.00
N438   N     0.47123   0.85526   0.09124   0.00000  Uiso   1.00
N439   N     0.35474   0.87007   0.20480   0.00000  Uiso   1.00
O440   O     0.50000   0.83333   0.25000   0.00000  Uiso   1.00
O441   O     0.48784   0.79304   0.15458   0.00000  Uiso   1.00
O442   O     0.46274   0.87058   0.34968   0.00000  Uiso   1.00
O443   O     0.54157   0.84425   0.14606   0.00000  Uiso   1.00
O444   O     0.50785   0.82546   0.34968   0.00000  Uiso   1.00
O445   O     0.51264   0.74686   0.28213   0.00000  Uiso   1.00
O446   O     0.47965   0.92751   0.27014   0.00000  Uiso   1.00
O447   O     0.40745   0.79958   0.23413   0.00000  Uiso   1.00
O448   O     0.60026   0.85939   0.21360   0.00000  Uiso   1.00
O449   O     0.40405   0.85544   0.28213   0.00000  Uiso   1.00
O450   O     0.58824   0.81892   0.27013   0.00000  Uiso   1.00
O451   O     0.47093   0.73610   0.23413   0.00000  Uiso   1.00
O452   O     0.53678   0.92286   0.21360   0.00000  Uiso   1.00
Zn453  Zn    0.52672   0.80661   0.28734   0.00000  Uiso   1.00
Zn454  Zn    0.46713   0.79124   0.21875   0.00000  Uiso   1.00
Zn455  Zn    0.54389   0.86442   0.20657   0.00000  Uiso   1.00
Zn456  Zn    0.46226   0.87106   0.28733   0.00000  Uiso   1.00
C457   C     0.71973   0.82661   0.25966   0.00000  Uiso   1.00
C458   C     0.83372   0.82890   0.06163   0.00000  Uiso   1.00
C459   C     0.89572   0.79252   0.05448   0.00000  Uiso   1.00
C460   C     0.94735   0.84047   0.24023   0.00000  Uiso   1.00
C461   C     0.80546   0.85839   0.41991   0.00000  Uiso   1.00
C462   C     0.99293   0.84391   0.23730   0.00000  Uiso   1.00
C463   C     0.67464   0.82331   0.26431   0.00000  Uiso   1.00
C464   C     0.84656   0.98918   0.23849   0.00000  Uiso   1.00
C465   C     0.81707   0.67909   0.26445   0.00000  Uiso   1.00
C466   C     0.82334   0.72271   0.25955   0.00000  Uiso   1.00
C467   C     0.84297   0.94456   0.24045   0.00000  Uiso   1.00
C468   C     0.74669   0.85665   0.48684   0.00000  Uiso   1.00
C469   C     0.85230   0.81470   0.12943   0.00000  Uiso   1.00
C470   C     0.81585   0.85219   0.37072   0.00000  Uiso   1.00
C471   C     0.90889   0.79802   0.00889   0.00000  Uiso   1.00
C472   C     0.85933   0.80965   0.08100   0.00000  Uiso   1.00
C473   C     0.76308   0.86443   0.44215   0.00000  Uiso   1.00
C474   C     0.77233   0.84269   0.00977   0.00000  Uiso   1.00
C475   C     0.81660   0.84161   0.49040   0.00000  Uiso   1.00
C476   C     0.83371   0.85052   0.44468   0.00000  Uiso   1.00
C477   C     0.84385   0.82916   0.01408   0.00000  Uiso   1.00
C478   C     0.88438   0.81790   0.48903   0.00000  Uiso   1.00
C479   C     0.90170   0.82983   0.44551   0.00000  Uiso   1.00
C480   C     0.87816   0.84995   0.42520   0.00000  Uiso   1.00
H481   H     0.87448   0.67053   0.21513   0.00000  Uiso   1.00
H482   H     0.93487   0.82658   0.42867   0.00000  Uiso   1.00
H483   H     0.93898   0.78786   0.48922   0.00000  Uiso   1.00
H484   H     0.74141   0.87160   0.42390   0.00000  Uiso   1.00
H485   H     0.75651   0.83144   0.04200   0.00000  Uiso   1.00
H486   H     0.77522   0.83777   0.10415   0.00000  Uiso   1.00
H487   H     0.80125   0.88090   0.07574   0.00000  Uiso   1.00
H488   H     0.70504   0.89338   0.22152   0.00000  Uiso   1.00
H489   H     0.70987   0.85212   0.18241   0.00000  Uiso   1.00
I490   I     0.93470   0.76254   0.08264   0.00000  Uiso   1.00
I491   I     0.97363   0.78106   0.31334   0.00000  Uiso   1.00
I492   I     0.75765   0.99253   0.31029   0.00000  Uiso   1.00
I493   I     0.68165   0.86179   0.01837   0.00000  Uiso   1.00
I494   I     0.91510   0.88690   0.37240   0.00000  Uiso   1.00
N495   N     0.80456   0.85526   0.09124   0.00000  Uiso   1.00
N496   N     0.68807   0.87007   0.20480   0.00000  Uiso   1.00
O497   O     0.83333   0.83333   0.25000   0.00000  Uiso   1.00
O498   O     0.82118   0.79304   0.15458   0.00000  Uiso   1.00
O499   O     0.79607   0.87058   0.34968   0.00000  Uiso   1.00
O500   O     0.87491   0.84425   0.14606   0.00000  Uiso   1.00
O501   O     0.84118   0.82546   0.34968   0.00000  Uiso   1.00
O502   O     0.84597   0.74686   0.28213   0.00000  Uiso   1.00
O503   O     0.81298   0.92751   0.27014   0.00000  Uiso   1.00
O504   O     0.74078   0.79958   0.23413   0.00000  Uiso   1.00
O505   O     0.93360   0.85939   0.21360   0.00000  Uiso   1.00
O506   O     0.73738   0.85544   0.28213   0.00000  Uiso   1.00
O507   O     0.92158   0.81892   0.27013   0.00000  Uiso   1.00
O508   O     0.80426   0.73610   0.23413   0.00000  Uiso   1.00
O509   O     0.87012   0.92286   0.21360   0.00000  Uiso   1.00
Zn510  Zn    0.86005   0.80661   0.28734   0.00000  Uiso   1.00
Zn511  Zn    0.80046   0.79124   0.21875   0.00000  Uiso   1.00
Zn512  Zn    0.87723   0.86442   0.20657   0.00000  Uiso   1.00
Zn513  Zn    0.79560   0.87106   0.28733   0.00000  Uiso   1.00
C514   C     0.05306   0.15994   0.75966   0.00000  Uiso   1.00
C515   C     0.16705   0.16224   0.56163   0.00000  Uiso   1.00
C516   C     0.22905   0.12586   0.55448   0.00000  Uiso   1.00
C517   C     0.28068   0.17380   0.74023   0.00000  Uiso   1.00
C518   C     0.13880   0.19172   0.91991   0.00000  Uiso   1.00
C519   C     0.32627   0.17724   0.73730   0.00000  Uiso   1.00
C520   C     0.00798   0.15664   0.76431   0.00000  Uiso   1.00
C521   C     0.17990   0.32252   0.73849   0.00000  Uiso   1.00
C522   C     0.15040   0.01242   0.76445   0.00000  Uiso   1.00
C523   C     0.15668   0.05605   0.75955   0.00000  Uiso   1.00
C524   C     0.17630   0.27789   0.74045   0.00000  Uiso   1.00
C525   C     0.08002   0.18998   0.98684   0.00000  Uiso   1.00
C526   C     0.18563   0.14804   0.62943   0.00000  Uiso   1.00
C527   C     0.14918   0.18552   0.87072   0.00000  Uiso   1.00
C528   C     0.24222   0.13136   0.50889   0.00000  Uiso   1.00
C529   C     0.19266   0.14298   0.58100   0.00000  Uiso   1.00
C530   C     0.09641   0.19777   0.94215   0.00000  Uiso   1.00
C531   C     0.10567   0.17602   0.50977   0.00000  Uiso   1.00
C532   C     0.14994   0.17494   0.99040   0.00000  Uiso   1.00
C533   C     0.16704   0.18385   0.94468   0.00000  Uiso   1.00
C534   C     0.17718   0.16249   0.51408   0.00000  Uiso   1.00
C535   C     0.21772   0.15123   0.98903   0.00000  Uiso   1.00
C536   C     0.23503   0.16317   0.94551   0.00000  Uiso   1.00
C537   C     0.21149   0.18328   0.92520   0.00000  Uiso   1.00
H538   H     0.20782   0.00387   0.71513   0.00000  Uiso   1.00
H539   H     0.26820   0.15991   0.92867   0.00000  Uiso   1.00
H540   H     0.27231   0.12119   0.98922   0.00000  Uiso   1.00
H541   H     0.07474   0.20493   0.92390   0.00000  Uiso   1.00
H542   H     0.08984   0.16477   0.54200   0.00000  Uiso   1.00
H543   H     0.10856   0.17111   0.60415   0.00000  Uiso   1.00
H544   H     0.13458   0.21423   0.57574   0.00000  Uiso   1.00
H545   H     0.03837   0.22671   0.72152   0.00000  Uiso   1.00
H546   H     0.04320   0.18546   0.68241   0.00000  Uiso   1.00
I547   I     0.26803   0.09587   0.58264   0.00000  Uiso   1.00
I548   I     0.30696   0.11439   0.81334   0.00000  Uiso   1.00
I549   I     0.09098   0.32586   0.81029   0.00000  Uiso   1.00
I550   I     0.01499   0.19512   0.51837   0.00000  Uiso   1.00
I551   I     0.24843   0.22024   0.87240   0.00000  Uiso   1.00
N552   N     0.13789   0.18859   0.59124   0.00000  Uiso   1.00
N553   N     0.02141   0.20341   0.70480   0.00000  Uiso   1.00
O554   O     0.16667   0.16667   0.75000   0.00000  Uiso   1.00
O555   O     0.15451   0.12637   0.65458   0.00000  Uiso   1.00
O556   O     0.12940   0.20391   0.84968   0.00000  Uiso   1.00
O557   O     0.20824   0.17759   0.64606   0.00000  Uiso   1.00
O558   O     0.17451   0.15880   0.84968   0.00000  Uiso   1.00
O559   O     0.17930   0.08019   0.78213   0.00000  Uiso   1.00
O560   O     0.14632   0.26085   0.77014   0.00000  Uiso   1.00
O561   O     0.07412   0.13291   0.73413   0.00000  Uiso   1.00
O562   O     0.26693   0.19272   0.71360   0.00000  Uiso   1.00
O563   O     0.07071   0.18878   0.78213   0.00000  Uiso   1.00
O564   O     0.25491   0.15226   0.77013   0.00000  Uiso   1.00
O565   O     0.13760   0.06944   0.73413   0.00000  Uiso   1.00
O566   O     0.20345   0.25620   0.71360   0.00000  Uiso   1.00
Zn567  Zn    0.19338   0.13994   0.78734   0.00000  Uiso   1.00
Zn568  Zn    0.13379   0.12458   0.71875   0.00000  Uiso   1.00
Zn569  Zn    0.21056   0.19775   0.70657   0.00000  Uiso   1.00
Zn570  Zn    0.12893   0.20439   0.78733   0.00000  Uiso   1.00
C571   C     0.38639   0.15994   0.75966   0.00000  Uiso   1.00
C572   C     0.50039   0.16224   0.56163   0.00000  Uiso   1.00
C573   C     0.56239   0.12586   0.55448   0.00000  Uiso   1.00
C574   C     0.61401   0.17380   0.74023   0.00000  Uiso   1.00
C575   C     0.47213   0.19172   0.91991   0.00000  Uiso   1.00
C576   C     0.65960   0.17724   0.73730   0.00000  Uiso   1.00
C577   C     0.34131   0.15664   0.76431   0.00000  Uiso   1.00
C578   C     0.51323   0.32252   0.73849   0.00000  Uiso   1.00
C579   C     0.48373   0.01242   0.76445   0.00000  Uiso   1.00
C580   C     0.49001   0.05605   0.75955   0.00000  Uiso   1.00
C581   C     0.50963   0.27789   0.74045   0.00000  Uiso   1.00
C582   C     0.41335   0.18998   0.98684   0.00000  Uiso   1.00
C583   C     0.51897   0.14804   0.62943   0.00000  Uiso   1.00
C584   C     0.48251   0.18552   0.87072   0.00000  Uiso   1.00
C585   C     0.57556   0.13136   0.50889   0.00000  Uiso   1.00
C586   C     0.52599   0.14298   0.58100   0.00000  Uiso   1.00
C587   C     0.42975   0.19777   0.94215   0.00000  Uiso   1.00
C588   C     0.43900   0.17602   0.50977   0.00000  Uiso   1.00
C589   C     0.48327   0.17494   0.99040   0.00000  Uiso   1.00
C590   C     0.50037   0.18385   0.94468   0.00000  Uiso   1.00
C591   C     0.51051   0.16249   0.51408   0.00000  Uiso   1.00
C592   C     0.55105   0.15123   0.98903   0.00000  Uiso   1.00
C593   C     0.56837   0.16317   0.94551   0.00000  Uiso   1.00
C594   C     0.54482   0.18328   0.92520   0.00000  Uiso   1.00
H595   H     0.54115   0.00387   0.71513   0.00000  Uiso   1.00
H596   H     0.60153   0.15991   0.92867   0.00000  Uiso   1.00
H597   H     0.60565   0.12119   0.98922   0.00000  Uiso   1.00
H598   H     0.40808   0.20493   0.92390   0.00000  Uiso   1.00
H599   H     0.42318   0.16477   0.54200   0.00000  Uiso   1.00
H600   H     0.44189   0.17111   0.60415   0.00000  Uiso   1.00
H601   H     0.46791   0.21423   0.57574   0.00000  Uiso   1.00
H602   H     0.37171   0.22671   0.72152   0.00000  Uiso   1.00
H603   H     0.37653   0.18546   0.68241   0.00000  Uiso   1.00
I604   I     0.60137   0.09587   0.58264   0.00000  Uiso   1.00
I605   I     0.64030   0.11439   0.81334   0.00000  Uiso   1.00
I606   I     0.42431   0.32586   0.81029   0.00000  Uiso   1.00
I607   I     0.34832   0.19512   0.51837   0.00000  Uiso   1.00
I608   I     0.58176   0.22024   0.87240   0.00000  Uiso   1.00
N609   N     0.47123   0.18859   0.59124   0.00000  Uiso   1.00
N610   N     0.35474   0.20341   0.70480   0.00000  Uiso   1.00
O611   O     0.50000   0.16667   0.75000   0.00000  Uiso   1.00
O612   O     0.48784   0.12637   0.65458   0.00000  Uiso   1.00
O613   O     0.46274   0.20391   0.84968   0.00000  Uiso   1.00
O614   O     0.54157   0.17759   0.64606   0.00000  Uiso   1.00
O615   O     0.50785   0.15880   0.84968   0.00000  Uiso   1.00
O616   O     0.51264   0.08019   0.78213   0.00000  Uiso   1.00
O617   O     0.47965   0.26085   0.77014   0.00000  Uiso   1.00
O618   O     0.40745   0.13291   0.73413   0.00000  Uiso   1.00
O619   O     0.60026   0.19272   0.71360   0.00000  Uiso   1.00
O620   O     0.40405   0.18878   0.78213   0.00000  Uiso   1.00
O621   O     0.58824   0.15226   0.77013   0.00000  Uiso   1.00
O622   O     0.47093   0.06944   0.73413   0.00000  Uiso   1.00
O623   O     0.53678   0.25620   0.71360   0.00000  Uiso   1.00
Zn624  Zn    0.52672   0.13994   0.78734   0.00000  Uiso   1.00
Zn625  Zn    0.46713   0.12458   0.71875   0.00000  Uiso   1.00
Zn626  Zn    0.54389   0.19775   0.70657   0.00000  Uiso   1.00
Zn627  Zn    0.46226   0.20439   0.78733   0.00000  Uiso   1.00
C628   C     0.71973   0.15994   0.75966   0.00000  Uiso   1.00
C629   C     0.83372   0.16224   0.56163   0.00000  Uiso   1.00
C630   C     0.89572   0.12586   0.55448   0.00000  Uiso   1.00
C631   C     0.94735   0.17380   0.74023   0.00000  Uiso   1.00
C632   C     0.80546   0.19172   0.91991   0.00000  Uiso   1.00
C633   C     0.99293   0.17724   0.73730   0.00000  Uiso   1.00
C634   C     0.67464   0.15664   0.76431   0.00000  Uiso   1.00
C635   C     0.84656   0.32252   0.73849   0.00000  Uiso   1.00
C636   C     0.81707   0.01242   0.76445   0.00000  Uiso   1.00
C637   C     0.82334   0.05605   0.75955   0.00000  Uiso   1.00
C638   C     0.84297   0.27789   0.74045   0.00000  Uiso   1.00
C639   C     0.74669   0.18998   0.98684   0.00000  Uiso   1.00
C640   C     0.85230   0.14804   0.62943   0.00000  Uiso   1.00
C641   C     0.81585   0.18552   0.87072   0.00000  Uiso   1.00
C642   C     0.90889   0.13136   0.50889   0.00000  Uiso   1.00
C643   C     0.85933   0.14298   0.58100   0.00000  Uiso   1.00
C644   C     0.76308   0.19777   0.94215   0.00000  Uiso   1.00
C645   C     0.77233   0.17602   0.50977   0.00000  Uiso   1.00
C646   C     0.81660   0.17494   0.99040   0.00000  Uiso   1.00
C647   C     0.83371   0.18385   0.94468   0.00000  Uiso   1.00
C648   C     0.84385   0.16249   0.51408   0.00000  Uiso   1.00
C649   C     0.88438   0.15123   0.98903   0.00000  Uiso   1.00
C650   C     0.90170   0.16317   0.94551   0.00000  Uiso   1.00
C651   C     0.87816   0.18328   0.92520   0.00000  Uiso   1.00
H652   H     0.87448   0.00387   0.71513   0.00000  Uiso   1.00
H653   H     0.93487   0.15991   0.92867   0.00000  Uiso   1.00
H654   H     0.93898   0.12119   0.98922   0.00000  Uiso   1.00
H655   H     0.74141   0.20493   0.92390   0.00000  Uiso   1.00
H656   H     0.75651   0.16477   0.54200   0.00000  Uiso   1.00
H657   H     0.77522   0.17111   0.60415   0.00000  Uiso   1.00
H658   H     0.80125   0.21423   0.57574   0.00000  Uiso   1.00
H659   H     0.70504   0.22671   0.72152   0.00000  Uiso   1.00
H660   H     0.70987   0.18546   0.68241   0.00000  Uiso   1.00
I661   I     0.93470   0.09587   0.58264   0.00000  Uiso   1.00
I662   I     0.97363   0.11439   0.81334   0.00000  Uiso   1.00
I663   I     0.75765   0.32586   0.81029   0.00000  Uiso   1.00
I664   I     0.68165   0.19512   0.51837   0.00000  Uiso   1.00
I665   I     0.91510   0.22024   0.87240   0.00000  Uiso   1.00
N666   N     0.80456   0.18859   0.59124   0.00000  Uiso   1.00
N667   N     0.68807   0.20341   0.70480   0.00000  Uiso   1.00
O668   O     0.83333   0.16667   0.75000   0.00000  Uiso   1.00
O669   O     0.82118   0.12637   0.65458   0.00000  Uiso   1.00
O670   O     0.79607   0.20391   0.84968   0.00000  Uiso   1.00
O671   O     0.87491   0.17759   0.64606   0.00000  Uiso   1.00
O672   O     0.84118   0.15880   0.84968   0.00000  Uiso   1.00
O673   O     0.84597   0.08019   0.78213   0.00000  Uiso   1.00
O674   O     0.81298   0.26085   0.77014   0.00000  Uiso   1.00
O675   O     0.74078   0.13291   0.73413   0.00000  Uiso   1.00
O676   O     0.93360   0.19272   0.71360   0.00000  Uiso   1.00
O677   O     0.73738   0.18878   0.78213   0.00000  Uiso   1.00
O678   O     0.92158   0.15226   0.77013   0.00000  Uiso   1.00
O679   O     0.80426   0.06944   0.73413   0.00000  Uiso   1.00
O680   O     0.87012   0.25620   0.71360   0.00000  Uiso   1.00
Zn681  Zn    0.86005   0.13994   0.78734   0.00000  Uiso   1.00
Zn682  Zn    0.80046   0.12458   0.71875   0.00000  Uiso   1.00
Zn683  Zn    0.87723   0.19775   0.70657   0.00000  Uiso   1.00
Zn684  Zn    0.79560   0.20439   0.78733   0.00000  Uiso   1.00
C685   C     0.05306   0.49328   0.75966   0.00000  Uiso   1.00
C686   C     0.16705   0.49557   0.56163   0.00000  Uiso   1.00
C687   C     0.22905   0.45919   0.55448   0.00000  Uiso   1.00
C688   C     0.28068   0.50713   0.74023   0.00000  Uiso   1.00
C689   C     0.13880   0.52505   0.91991   0.00000  Uiso   1.00
C690   C     0.32627   0.51058   0.73730   0.00000  Uiso   1.00
C691   C     0.00798   0.48998   0.76431   0.00000  Uiso   1.00
C692   C     0.17990   0.65585   0.73849   0.00000  Uiso   1.00
C693   C     0.15040   0.34575   0.76445   0.00000  Uiso   1.00
C694   C     0.15668   0.38938   0.75955   0.00000  Uiso   1.00
C695   C     0.17630   0.61123   0.74045   0.00000  Uiso   1.00
C696   C     0.08002   0.52331   0.98684   0.00000  Uiso   1.00
C697   C     0.18563   0.48137   0.62943   0.00000  Uiso   1.00
C698   C     0.14918   0.51885   0.87072   0.00000  Uiso   1.00
C699   C     0.24222   0.46469   0.50889   0.00000  Uiso   1.00
C700   C     0.19266   0.47632   0.58100   0.00000  Uiso   1.00
C701   C     0.09641   0.53110   0.94215   0.00000  Uiso   1.00
C702   C     0.10567   0.50936   0.50977   0.00000  Uiso   1.00
C703   C     0.14994   0.50827   0.99040   0.00000  Uiso   1.00
C704   C     0.16704   0.51719   0.94468   0.00000  Uiso   1.00
C705   C     0.17718   0.49582   0.51408   0.00000  Uiso   1.00
C706   C     0.21772   0.48456   0.98903   0.00000  Uiso   1.00
C707   C     0.23503   0.49650   0.94551   0.00000  Uiso   1.00
C708   C     0.21149   0.51662   0.92520   0.00000  Uiso   1.00
H709   H     0.20782   0.33720   0.71513   0.00000  Uiso   1.00
H710   H     0.26820   0.49324   0.92867   0.00000  Uiso   1.00
H711   H     0.27231   0.45453   0.98922   0.00000  Uiso   1.00
H712   H     0.07474   0.53827   0.92390   0.00000  Uiso   1.00
H713   H     0.08984   0.49810   0.54200   0.00000  Uiso   1.00
H714   H     0.10856   0.50444   0.60415   0.00000  Uiso   1.00
H715   H     0.13458   0.54757   0.57574   0.00000  Uiso   1.00
H716   H     0.03837   0.56004   0.72152   0.00000  Uiso   1.00
H717   H     0.04320   0.51879   0.68241   0.00000  Uiso   1.00
I718   I     0.26803   0.42921   0.58264   0.00000  Uiso   1.00
I719   I     0.30696   0.44773   0.81334   0.00000  Uiso   1.00
I720   I     0.09098   0.65919   0.81029   0.00000  Uiso   1.00
I721   I     0.01499   0.52846   0.51837   0.00000  Uiso   1.00
I722   I     0.24843   0.55357   0.87240   0.00000  Uiso   1.00
N723   N     0.13789   0.52193   0.59124   0.00000  Uiso   1.00
N724   N     0.02141   0.53674   0.70480   0.00000  Uiso   1.00
O725   O     0.16667   0.50000   0.75000   0.00000  Uiso   1.00
O726   O     0.15451   0.45970   0.65458   0.00000  Uiso   1.00
O727   O     0.12940   0.53724   0.84968   0.00000  Uiso   1.00
O728   O     0.20824   0.51092   0.64606   0.00000  Uiso   1.00
O729   O     0.17451   0.49213   0.84968   0.00000  Uiso   1.00
O730   O     0.17930   0.41352   0.78213   0.00000  Uiso   1.00
O731   O     0.14632   0.59418   0.77014   0.00000  Uiso   1.00
O732   O     0.07412   0.46625   0.73413   0.00000  Uiso   1.00
O733   O     0.26693   0.52605   0.71360   0.00000  Uiso   1.00
O734   O     0.07071   0.52211   0.78213   0.00000  Uiso   1.00
O735   O     0.25491   0.48559   0.77013   0.00000  Uiso   1.00
O736   O     0.13760   0.40277   0.73413   0.00000  Uiso   1.00
O737   O     0.20345   0.58953   0.71360   0.00000  Uiso   1.00
Zn738  Zn    0.19338   0.47327   0.78734   0.00000  Uiso   1.00
Zn739  Zn    0.13379   0.45791   0.71875   0.00000  Uiso   1.00
Zn740  Zn    0.21056   0.53109   0.70657   0.00000  Uiso   1.00
Zn741  Zn    0.12893   0.53773   0.78733   0.00000  Uiso   1.00
C742   C     0.38639   0.49328   0.75966   0.00000  Uiso   1.00
C743   C     0.50039   0.49557   0.56163   0.00000  Uiso   1.00
C744   C     0.56239   0.45919   0.55448   0.00000  Uiso   1.00
C745   C     0.61401   0.50713   0.74023   0.00000  Uiso   1.00
C746   C     0.47213   0.52505   0.91991   0.00000  Uiso   1.00
C747   C     0.65960   0.51058   0.73730   0.00000  Uiso   1.00
C748   C     0.34131   0.48998   0.76431   0.00000  Uiso   1.00
C749   C     0.51323   0.65585   0.73849   0.00000  Uiso   1.00
C750   C     0.48373   0.34575   0.76445   0.00000  Uiso   1.00
C751   C     0.49001   0.38938   0.75955   0.00000  Uiso   1.00
C752   C     0.50963   0.61123   0.74045   0.00000  Uiso   1.00
C753   C     0.41335   0.52331   0.98684   0.00000  Uiso   1.00
C754   C     0.51897   0.48137   0.62943   0.00000  Uiso   1.00
C755   C     0.48251   0.51885   0.87072   0.00000  Uiso   1.00
C756   C     0.57556   0.46469   0.50889   0.00000  Uiso   1.00
C757   C     0.52599   0.47632   0.58100   0.00000  Uiso   1.00
C758   C     0.42975   0.53110   0.94215   0.00000  Uiso   1.00
C759   C     0.43900   0.50936   0.50977   0.00000  Uiso   1.00
C760   C     0.48327   0.50827   0.99040   0.00000  Uiso   1.00
C761   C     0.50037   0.51719   0.94468   0.00000  Uiso   1.00
C762   C     0.51051   0.49582   0.51408   0.00000  Uiso   1.00
C763   C     0.55105   0.48456   0.98903   0.00000  Uiso   1.00
C764   C     0.56837   0.49650   0.94551   0.00000  Uiso   1.00
C765   C     0.54482   0.51662   0.92520   0.00000  Uiso   1.00
H766   H     0.54115   0.33720   0.71513   0.00000  Uiso   1.00
H767   H     0.60153   0.49324   0.92867   0.00000  Uiso   1.00
H768   H     0.60565   0.45453   0.98922   0.00000  Uiso   1.00
H769   H     0.40808   0.53827   0.92390   0.00000  Uiso   1.00
H770   H     0.42318   0.49810   0.54200   0.00000  Uiso   1.00
H771   H     0.44189   0.50444   0.60415   0.00000  Uiso   1.00
H772   H     0.46791   0.54757   0.57574   0.00000  Uiso   1.00
H773   H     0.37171   0.56004   0.72152   0.00000  Uiso   1.00
H774   H     0.37653   0.51879   0.68241   0.00000  Uiso   1.00
I775   I     0.60137   0.42921   0.58264   0.00000  Uiso   1.00
I776   I     0.64030   0.44773   0.81334   0.00000  Uiso   1.00
I777   I     0.42431   0.65919   0.81029   0.00000  Uiso   1.00
I778   I     0.34832   0.52846   0.51837   0.00000  Uiso   1.00
I779   I     0.58176   0.55357   0.87240   0.00000  Uiso   1.00
N780   N     0.47123   0.52193   0.59124   0.00000  Uiso   1.00
N781   N     0.35474   0.53674   0.70480   0.00000  Uiso   1.00
O782   O     0.50000   0.50000   0.75000   0.00000  Uiso   1.00
O783   O     0.48784   0.45970   0.65458   0.00000  Uiso   1.00
O784   O     0.46274   0.53724   0.84968   0.00000  Uiso   1.00
O785   O     0.54157   0.51092   0.64606   0.00000  Uiso   1.00
O786   O     0.50785   0.49213   0.84968   0.00000  Uiso   1.00
O787   O     0.51264   0.41352   0.78213   0.00000  Uiso   1.00
O788   O     0.47965   0.59418   0.77014   0.00000  Uiso   1.00
O789   O     0.40745   0.46625   0.73413   0.00000  Uiso   1.00
O790   O     0.60026   0.52605   0.71360   0.00000  Uiso   1.00
O791   O     0.40405   0.52211   0.78213   0.00000  Uiso   1.00
O792   O     0.58824   0.48559   0.77013   0.00000  Uiso   1.00
O793   O     0.47093   0.40277   0.73413   0.00000  Uiso   1.00
O794   O     0.53678   0.58953   0.71360   0.00000  Uiso   1.00
Zn795  Zn    0.52672   0.47327   0.78734   0.00000  Uiso   1.00
Zn796  Zn    0.46713   0.45791   0.71875   0.00000  Uiso   1.00
Zn797  Zn    0.54389   0.53109   0.70657   0.00000  Uiso   1.00
Zn798  Zn    0.46226   0.53773   0.78733   0.00000  Uiso   1.00
C799   C     0.71973   0.49328   0.75966   0.00000  Uiso   1.00
C800   C     0.83372   0.49557   0.56163   0.00000  Uiso   1.00
C801   C     0.89572   0.45919   0.55448   0.00000  Uiso   1.00
C802   C     0.94735   0.50713   0.74023   0.00000  Uiso   1.00
C803   C     0.80546   0.52505   0.91991   0.00000  Uiso   1.00
C804   C     0.99293   0.51058   0.73730   0.00000  Uiso   1.00
C805   C     0.67464   0.48998   0.76431   0.00000  Uiso   1.00
C806   C     0.84656   0.65585   0.73849   0.00000  Uiso   1.00
C807   C     0.81707   0.34575   0.76445   0.00000  Uiso   1.00
C808   C     0.82334   0.38938   0.75955   0.00000  Uiso   1.00
C809   C     0.84297   0.61123   0.74045   0.00000  Uiso   1.00
C810   C     0.74669   0.52331   0.98684   0.00000  Uiso   1.00
C811   C     0.85230   0.48137   0.62943   0.00000  Uiso   1.00
C812   C     0.81585   0.51885   0.87072   0.00000  Uiso   1.00
C813   C     0.90889   0.46469   0.50889   0.00000  Uiso   1.00
C814   C     0.85933   0.47632   0.58100   0.00000  Uiso   1.00
C815   C     0.76308   0.53110   0.94215   0.00000  Uiso   1.00
C816   C     0.77233   0.50936   0.50977   0.00000  Uiso   1.00
C817   C     0.81660   0.50827   0.99040   0.00000  Uiso   1.00
C818   C     0.83371   0.51719   0.94468   0.00000  Uiso   1.00
C819   C     0.84385   0.49582   0.51408   0.00000  Uiso   1.00
C820   C     0.88438   0.48456   0.98903   0.00000  Uiso   1.00
C821   C     0.90170   0.49650   0.94551   0.00000  Uiso   1.00
C822   C     0.87816   0.51662   0.92520   0.00000  Uiso   1.00
H823   H     0.87448   0.33720   0.71513   0.00000  Uiso   1.00
H824   H     0.93487   0.49324   0.92867   0.00000  Uiso   1.00
H825   H     0.93898   0.45453   0.98922   0.00000  Uiso   1.00
H826   H     0.74141   0.53827   0.92390   0.00000  Uiso   1.00
H827   H     0.75651   0.49810   0.54200   0.00000  Uiso   1.00
H828   H     0.77522   0.50444   0.60415   0.00000  Uiso   1.00
H829   H     0.80125   0.54757   0.57574   0.00000  Uiso   1.00
H830   H     0.70504   0.56004   0.72152   0.00000  Uiso   1.00
H831   H     0.70987   0.51879   0.68241   0.00000  Uiso   1.00
I832   I     0.93470   0.42921   0.58264   0.00000  Uiso   1.00
I833   I     0.97363   0.44773   0.81334   0.00000  Uiso   1.00
I834   I     0.75765   0.65919   0.81029   0.00000  Uiso   1.00
I835   I     0.68165   0.52846   0.51837   0.00000  Uiso   1.00
I836   I     0.91510   0.55357   0.87240   0.00000  Uiso   1.00
N837   N     0.80456   0.52193   0.59124   0.00000  Uiso   1.00
N838   N     0.68807   0.53674   0.70480   0.00000  Uiso   1.00
O839   O     0.83333   0.50000   0.75000   0.00000  Uiso   1.00
O840   O     0.82118   0.45970   0.65458   0.00000  Uiso   1.00
O841   O     0.79607   0.53724   0.84968   0.00000  Uiso   1.00
O842   O     0.87491   0.51092   0.64606   0.00000  Uiso   1.00
O843   O     0.84118   0.49213   0.84968   0.00000  Uiso   1.00
O844   O     0.84597   0.41352   0.78213   0.00000  Uiso   1.00
O845   O     0.81298   0.59418   0.77014   0.00000  Uiso   1.00
O846   O     0.74078   0.46625   0.73413   0.00000  Uiso   1.00
O847   O     0.93360   0.52605   0.71360   0.00000  Uiso   1.00
O848   O     0.73738   0.52211   0.78213   0.00000  Uiso   1.00
O849   O     0.92158   0.48559   0.77013   0.00000  Uiso   1.00
O850   O     0.80426   0.40277   0.73413   0.00000  Uiso   1.00
O851   O     0.87012   0.58953   0.71360   0.00000  Uiso   1.00
Zn852  Zn    0.86005   0.47327   0.78734   0.00000  Uiso   1.00
Zn853  Zn    0.80046   0.45791   0.71875   0.00000  Uiso   1.00
Zn854  Zn    0.87723   0.53109   0.70657   0.00000  Uiso   1.00
Zn855  Zn    0.79560   0.53773   0.78733   0.00000  Uiso   1.00
C856   C     0.05306   0.82661   0.75966   0.00000  Uiso   1.00
C857   C     0.16705   0.82890   0.56163   0.00000  Uiso   1.00
C858   C     0.22905   0.79252   0.55448   0.00000  Uiso   1.00
C859   C     0.28068   0.84047   0.74023   0.00000  Uiso   1.00
C860   C     0.13880   0.85839   0.91991   0.00000  Uiso   1.00
C861   C     0.32627   0.84391   0.73730   0.00000  Uiso   1.00
C862   C     0.00798   0.82331   0.76431   0.00000  Uiso   1.00
C863   C     0.17990   0.98918   0.73849   0.00000  Uiso   1.00
C864   C     0.15040   0.67909   0.76445   0.00000  Uiso   1.00
C865   C     0.15668   0.72271   0.75955   0.00000  Uiso   1.00
C866   C     0.17630   0.94456   0.74045   0.00000  Uiso   1.00
C867   C     0.08002   0.85665   0.98684   0.00000  Uiso   1.00
C868   C     0.18563   0.81470   0.62943   0.00000  Uiso   1.00
C869   C     0.14918   0.85219   0.87072   0.00000  Uiso   1.00
C870   C     0.24222   0.79802   0.50889   0.00000  Uiso   1.00
C871   C     0.19266   0.80965   0.58100   0.00000  Uiso   1.00
C872   C     0.09641   0.86443   0.94215   0.00000  Uiso   1.00
C873   C     0.10567   0.84269   0.50977   0.00000  Uiso   1.00
C874   C     0.14994   0.84161   0.99040   0.00000  Uiso   1.00
C875   C     0.16704   0.85052   0.94468   0.00000  Uiso   1.00
C876   C     0.17718   0.82916   0.51408   0.00000  Uiso   1.00
C877   C     0.21772   0.81790   0.98903   0.00000  Uiso   1.00
C878   C     0.23503   0.82983   0.94551   0.00000  Uiso   1.00
C879   C     0.21149   0.84995   0.92520   0.00000  Uiso   1.00
H880   H     0.20782   0.67053   0.71513   0.00000  Uiso   1.00
H881   H     0.26820   0.82658   0.92867   0.00000  Uiso   1.00
H882   H     0.27231   0.78786   0.98922   0.00000  Uiso   1.00
H883   H     0.07474   0.87160   0.92390   0.00000  Uiso   1.00
H884   H     0.08984   0.83144   0.54200   0.00000  Uiso   1.00
H885   H     0.10856   0.83777   0.60415   0.00000  Uiso   1.00
H886   H     0.13458   0.88090   0.57574   0.00000  Uiso   1.00
H887   H     0.03837   0.89338   0.72152   0.00000  Uiso   1.00
H888   H     0.04320   0.85212   0.68241   0.00000  Uiso   1.00
I889   I     0.26803   0.76254   0.58264   0.00000  Uiso   1.00
I890   I     0.30696   0.78106   0.81334   0.00000  Uiso   1.00
I891   I     0.09098   0.99253   0.81029   0.00000  Uiso   1.00
I892   I     0.01499   0.86179   0.51837   0.00000  Uiso   1.00
I893   I     0.24843   0.88690   0.87240   0.00000  Uiso   1.00
N894   N     0.13789   0.85526   0.59124   0.00000  Uiso   1.00
N895   N     0.02141   0.87007   0.70480   0.00000  Uiso   1.00
O896   O     0.16667   0.83333   0.75000   0.00000  Uiso   1.00
O897   O     0.15451   0.79304   0.65458   0.00000  Uiso   1.00
O898   O     0.12940   0.87058   0.84968   0.00000  Uiso   1.00
O899   O     0.20824   0.84425   0.64606   0.00000  Uiso   1.00
O900   O     0.17451   0.82546   0.84968   0.00000  Uiso   1.00
O901   O     0.17930   0.74686   0.78213   0.00000  Uiso   1.00
O902   O     0.14632   0.92751   0.77014   0.00000  Uiso   1.00
O903   O     0.07412   0.79958   0.73413   0.00000  Uiso   1.00
O904   O     0.26693   0.85939   0.71360   0.00000  Uiso   1.00
O905   O     0.07071   0.85544   0.78213   0.00000  Uiso   1.00
O906   O     0.25491   0.81892   0.77013   0.00000  Uiso   1.00
O907   O     0.13760   0.73610   0.73413   0.00000  Uiso   1.00
O908   O     0.20345   0.92286   0.71360   0.00000  Uiso   1.00
Zn909  Zn    0.19338   0.80661   0.78734   0.00000  Uiso   1.00
Zn910  Zn    0.13379   0.79124   0.71875   0.00000  Uiso   1.00
Zn911  Zn    0.21056   0.86442   0.70657   0.00000  Uiso   1.00
Zn912  Zn    0.12893   0.87106   0.78733   0.00000  Uiso   1.00
C913   C     0.38639   0.82661   0.75966   0.00000  Uiso   1.00
C914   C     0.50039   0.82890   0.56163   0.00000  Uiso   1.00
C915   C     0.56239   0.79252   0.55448   0.00000  Uiso   1.00
C916   C     0.61401   0.84047   0.74023   0.00000  Uiso   1.00
C917   C     0.47213   0.85839   0.91991   0.00000  Uiso   1.00
C918   C     0.65960   0.84391   0.73730   0.00000  Uiso   1.00
C919   C     0.34131   0.82331   0.76431   0.00000  Uiso   1.00
C920   C     0.51323   0.98918   0.73849   0.00000  Uiso   1.00
C921   C     0.48373   0.67909   0.76445   0.00000  Uiso   1.00
C922   C     0.49001   0.72271   0.75955   0.00000  Uiso   1.00
C923   C     0.50963   0.94456   0.74045   0.00000  Uiso   1.00
C924   C     0.41335   0.85665   0.98684   0.00000  Uiso   1.00
C925   C     0.51897   0.81470   0.62943   0.00000  Uiso   1.00
C926   C     0.48251   0.85219   0.87072   0.00000  Uiso   1.00
C927   C     0.57556   0.79802   0.50889   0.00000  Uiso   1.00
C928   C     0.52599   0.80965   0.58100   0.00000  Uiso   1.00
C929   C     0.42975   0.86443   0.94215   0.00000  Uiso   1.00
C930   C     0.43900   0.84269   0.50977   0.00000  Uiso   1.00
C931   C     0.48327   0.84161   0.99040   0.00000  Uiso   1.00
C932   C     0.50037   0.85052   0.94468   0.00000  Uiso   1.00
C933   C     0.51051   0.82916   0.51408   0.00000  Uiso   1.00
C934   C     0.55105   0.81790   0.98903   0.00000  Uiso   1.00
C935   C     0.56837   0.82983   0.94551   0.00000  Uiso   1.00
C936   C     0.54482   0.84995   0.92520   0.00000  Uiso   1.00
H937   H     0.54115   0.67053   0.71513   0.00000  Uiso   1.00
H938   H     0.60153   0.82658   0.92867   0.00000  Uiso   1.00
H939   H     0.60565   0.78786   0.98922   0.00000  Uiso   1.00
H940   H     0.40808   0.87160   0.92390   0.00000  Uiso   1.00
H941   H     0.42318   0.83144   0.54200   0.00000  Uiso   1.00
H942   H     0.44189   0.83777   0.60415   0.00000  Uiso   1.00
H943   H     0.46791   0.88090   0.57574   0.00000  Uiso   1.00
H944   H     0.37171   0.89338   0.72152   0.00000  Uiso   1.00
H945   H     0.37653   0.85212   0.68241   0.00000  Uiso   1.00
I946   I     0.60137   0.76254   0.58264   0.00000  Uiso   1.00
I947   I     0.64030   0.78106   0.81334   0.00000  Uiso   1.00
I948   I     0.42431   0.99253   0.81029   0.00000  Uiso   1.00
I949   I     0.34832   0.86179   0.51837   0.00000  Uiso   1.00
I950   I     0.58176   0.88690   0.87240   0.00000  Uiso   1.00
N951   N     0.47123   0.85526   0.59124   0.00000  Uiso   1.00
N952   N     0.35474   0.87007   0.70480   0.00000  Uiso   1.00
O953   O     0.50000   0.83333   0.75000   0.00000  Uiso   1.00
O954   O     0.48784   0.79304   0.65458   0.00000  Uiso   1.00
O955   O     0.46274   0.87058   0.84968   0.00000  Uiso   1.00
O956   O     0.54157   0.84425   0.64606   0.00000  Uiso   1.00
O957   O     0.50785   0.82546   0.84968   0.00000  Uiso   1.00
O958   O     0.51264   0.74686   0.78213   0.00000  Uiso   1.00
O959   O     0.47965   0.92751   0.77014   0.00000  Uiso   1.00
O960   O     0.40745   0.79958   0.73413   0.00000  Uiso   1.00
O961   O     0.60026   0.85939   0.71360   0.00000  Uiso   1.00
O962   O     0.40405   0.85544   0.78213   0.00000  Uiso   1.00
O963   O     0.58824   0.81892   0.77013   0.00000  Uiso   1.00
O964   O     0.47093   0.73610   0.73413   0.00000  Uiso   1.00
O965   O     0.53678   0.92286   0.71360   0.00000  Uiso   1.00
Zn966  Zn    0.52672   0.80661   0.78734   0.00000  Uiso   1.00
Zn967  Zn    0.46713   0.79124   0.71875   0.00000  Uiso   1.00
Zn968  Zn    0.54389   0.86442   0.70657   0.00000  Uiso   1.00
Zn969  Zn    0.46226   0.87106   0.78733   0.00000  Uiso   1.00
C970   C     0.71973   0.82661   0.75966   0.00000  Uiso   1.00
C971   C     0.83372   0.82890   0.56163   0.00000  Uiso   1.00
C972   C     0.89572   0.79252   0.55448   0.00000  Uiso   1.00
C973   C     0.94735   0.84047   0.74023   0.00000  Uiso   1.00
C974   C     0.80546   0.85839   0.91991   0.00000  Uiso   1.00
C975   C     0.99293   0.84391   0.73730   0.00000  Uiso   1.00
C976   C     0.67464   0.82331   0.76431   0.00000  Uiso   1.00
C977   C     0.84656   0.98918   0.73849   0.00000  Uiso   1.00
C978   C     0.81707   0.67909   0.76445   0.00000  Uiso   1.00
C979   C     0.82334   0.72271   0.75955   0.00000  Uiso   1.00
C980   C     0.84297   0.94456   0.74045   0.00000  Uiso   1.00
C981   C     0.74669   0.85665   0.98684   0.00000  Uiso   1.00
C982   C     0.85230   0.81470   0.62943   0.00000  Uiso   1.00
C983   C     0.81585   0.85219   0.87072   0.00000  Uiso   1.00
C984   C     0.90889   0.79802   0.50889   0.00000  Uiso   1.00
C985   C     0.85933   0.80965   0.58100   0.00000  Uiso   1.00
C986   C     0.76308   0.86443   0.94215   0.00000  Uiso   1.00
C987   C     0.77233   0.84269   0.50977   0.00000  Uiso   1.00
C988   C     0.81660   0.84161   0.99040   0.00000  Uiso   1.00
C989   C     0.83371   0.85052   0.94468   0.00000  Uiso   1.00
C990   C     0.84385   0.82916   0.51408   0.00000  Uiso   1.00
C991   C     0.88438   0.81790   0.98903   0.00000  Uiso   1.00
C992   C     0.90170   0.82983   0.94551   0.00000  Uiso   1.00
C993   C     0.87816   0.84995   0.92520   0.00000  Uiso   1.00
H994   H     0.87448   0.67053   0.71513   0.00000  Uiso   1.00
H995   H     0.93487   0.82658   0.92867   0.00000  Uiso   1.00
H996   H     0.93898   0.78786   0.98922   0.00000  Uiso   1.00
H997   H     0.74141   0.87160   0.92390   0.00000  Uiso   1.00
H998   H     0.75651   0.83144   0.54200   0.00000  Uiso   1.00
H999   H     0.77522   0.83777   0.60415   0.00000  Uiso   1.00
H1000  H     0.80125   0.88090   0.57574   0.00000  Uiso   1.00
H1001  H     0.70504   0.89338   0.72152   0.00000  Uiso   1.00
H1002  H     0.70987   0.85212   0.68241   0.00000  Uiso   1.00
I1003  I     0.93470   0.76254   0.58264   0.00000  Uiso   1.00
I1004  I     0.97363   0.78106   0.81334   0.00000  Uiso   1.00
I1005  I     0.75765   0.99253   0.81029   0.00000  Uiso   1.00
I1006  I     0.68165   0.86179   0.51837   0.00000  Uiso   1.00
I1007  I     0.91510   0.88690   0.87240   0.00000  Uiso   1.00
N1008  N     0.80456   0.85526   0.59124   0.00000  Uiso   1.00
N1009  N     0.68807   0.87007   0.70480   0.00000  Uiso   1.00
O1010  O     0.83333   0.83333   0.75000   0.00000  Uiso   1.00
O1011  O     0.82118   0.79304   0.65458   0.00000  Uiso   1.00
O1012  O     0.79607   0.87058   0.84968   0.00000  Uiso   1.00
O1013  O     0.87491   0.84425   0.64606   0.00000  Uiso   1.00
O1014  O     0.84118   0.82546   0.84968   0.00000  Uiso   1.00
O1015  O     0.84597   0.74686   0.78213   0.00000  Uiso   1.00
O1016  O     0.81298   0.92751   0.77014   0.00000  Uiso   1.00
O1017  O     0.74078   0.79958   0.73413   0.00000  Uiso   1.00
O1018  O     0.93360   0.85939   0.71360   0.00000  Uiso   1.00
O1019  O     0.73738   0.85544   0.78213   0.00000  Uiso   1.00
O1020  O     0.92158   0.81892   0.77013   0.00000  Uiso   1.00
O1021  O     0.80426   0.73610   0.73413   0.00000  Uiso   1.00
O1022  O     0.87012   0.92286   0.71360   0.00000  Uiso   1.00
Zn1023 Zn    0.86005   0.80661   0.78734   0.00000  Uiso   1.00
Zn1024 Zn    0.80046   0.79124   0.71875   0.00000  Uiso   1.00
Zn1025 Zn    0.87723   0.86442   0.70657   0.00000  Uiso   1.00
Zn1026 Zn    0.79560   0.87106   0.78733   0.00000  Uiso   1.00
loop_
_geom_bond_atom_site_label_1
_geom_bond_atom_site_label_2
_geom_bond_distance
_geom_bond_site_symmetry_2
_ccdc_geom_bond_type
C1     O48     1.265   .     A
C1     O50     1.268   .     A
C1     C7      1.431   .     S
C2     C16     1.404   .     A
C2     C21     1.423   .     A
C2     N39     1.441   .     S
C3     C15     1.388   .     A
C3     I34     2.124   .     S
C3     C16     1.402   .     A
C4     O49     1.291   .     A
C4     O51     1.273   .     A
C4     C6      1.457   .     S
C5     C20     1.417   .     A
C5     C14     1.468   .     S
C5     C17     1.403   .     A
C6     C64     1.359   .     S
C6     N97     1.440   .     S
C7     C120    1.359   1_455 S
C7     I149    2.142   1_455 S
C8     C11     1.450   .     S
C8     C180    1.344   .     S
C8     H196    1.088   .     S
C9     C10     1.428   .     S
C9     C350    1.344   1_545 S
C9     I378    2.139   1_545 S
C10    O46     1.280   .     A
C10    O52     1.276   .     A
C11    O47     1.262   .     A
C11    O53     1.277   .     A
C12    C17     1.384   .     A
C12    C531    1.388   .     S
C12    I550    2.110   .     S
C13    O42     1.278   .     A
C13    C16     1.451   .     S
C13    O44     1.274   .     A
C14    O45     1.288   .     A
C14    O43     1.280   .     A
C15    C535    1.398   1_554 S
C15    H540    1.084   1_554 S
C17    H28     1.083   .     S
C18    H29     1.074   .     S
C18    C525    1.388   1_554 S
C18    C532    1.414   1_554 S
C19    C20     1.425   .     A
C19    C531    1.414   .     S
C19    C534    1.424   .     S
C20    C24     1.417   .     A
C21    C532    1.424   1_554 S
C21    C535    1.420   1_554 S
C22    C23     1.393   .     A
C22    C528    1.398   .     S
C22    C534    1.420   .     S
C23    C24     1.388   .     A
C23    H26     1.084   .     S
C24    I38     2.136   .     S
H25    C350    1.088   1_545 S
H27    C528    1.084   .     S
H30    N39     1.045   .     S
H31    N39     1.045   .     S
H32    N40     1.046   .     S
H33    N40     1.046   .     S
I35    C64     2.142   .     S
I36    C180    2.139   .     S
I37    C525    2.110   1_554 S
N40    C120    1.440   1_455 S
O41    Zn56    1.937   .     S
O41    Zn57    1.929   .     S
O41    Zn54    1.968   .     S
O41    Zn55    1.949   .     S
O42    Zn55    1.928   .     S
O43    Zn57    1.941   .     S
O44    Zn56    1.934   .     S
O45    Zn54    1.921   .     S
O46    Zn54    1.934   .     S
O47    Zn57    1.939   .     S
O48    Zn55    1.932   .     S
O49    Zn56    1.946   .     S
O50    Zn57    1.942   .     S
O51    Zn54    1.930   .     S
O52    Zn55    1.943   .     S
O53    Zn56    1.934   .     S
C58    O105    1.265   .     A
C58    O107    1.268   .     A
C58    C64     1.431   .     S
C59    C73     1.404   .     A
C59    C78     1.423   .     A
C59    N96     1.441   .     S
C60    C72     1.388   .     A
C60    I91     2.124   .     S
C60    C73     1.402   .     A
C61    O106    1.291   .     A
C61    O108    1.273   .     A
C61    C63     1.457   .     S
C62    C77     1.417   .     A
C62    C71     1.468   .     S
C62    C74     1.403   .     A
C63    C121    1.359   .     S
C63    N154    1.440   .     S
C65    C68     1.450   .     S
C65    C237    1.344   .     S
C65    H253    1.088   .     S
C66    C67     1.428   .     S
C66    C407    1.344   1_545 S
C66    I435    2.139   1_545 S
C67    O103    1.280   .     A
C67    O109    1.276   .     A
C68    O104    1.262   .     A
C68    O110    1.277   .     A
C69    C74     1.384   .     A
C69    C588    1.388   .     S
C69    I607    2.110   .     S
C70    O99     1.278   .     A
C70    C73     1.451   .     S
C70    O101    1.274   .     A
C71    O102    1.288   .     A
C71    O100    1.280   .     A
C72    C592    1.398   1_554 S
C72    H597    1.084   1_554 S
C74    H85     1.083   .     S
C75    H86     1.074   .     S
C75    C582    1.388   1_554 S
C75    C589    1.414   1_554 S
C76    C77     1.425   .     A
C76    C588    1.414   .     S
C76    C591    1.424   .     S
C77    C81     1.417   .     A
C78    C589    1.424   1_554 S
C78    C592    1.420   1_554 S
C79    C80     1.393   .     A
C79    C585    1.398   .     S
C79    C591    1.420   .     S
C80    C81     1.388   .     A
C80    H83     1.084   .     S
C81    I95     2.136   .     S
H82    C407    1.088   1_545 S
H84    C585    1.084   .     S
H87    N96     1.045   .     S
H88    N96     1.045   .     S
H89    N97     1.046   .     S
H90    N97     1.046   .     S
I92    C121    2.142   .     S
I93    C237    2.139   .     S
I94    C582    2.110   1_554 S
O98    Zn113   1.937   .     S
O98    Zn114   1.929   .     S
O98    Zn111   1.968   .     S
O98    Zn112   1.949   .     S
O99    Zn112   1.928   .     S
O100   Zn114   1.941   .     S
O101   Zn113   1.934   .     S
O102   Zn111   1.921   .     S
O103   Zn111   1.934   .     S
O104   Zn114   1.939   .     S
O105   Zn112   1.932   .     S
O106   Zn113   1.946   .     S
O107   Zn114   1.942   .     S
O108   Zn111   1.930   .     S
O109   Zn112   1.943   .     S
O110   Zn113   1.934   .     S
C115   O162    1.265   .     A
C115   O164    1.268   .     A
C115   C121    1.431   .     S
C116   C130    1.404   .     A
C116   C135    1.423   .     A
C116   N153    1.441   .     S
C117   C129    1.388   .     A
C117   I148    2.124   .     S
C117   C130    1.402   .     A
C118   O163    1.291   .     A
C118   O165    1.273   .     A
C118   C120    1.457   .     S
C119   C134    1.417   .     A
C119   C128    1.468   .     S
C119   C131    1.403   .     A
C120   C7      1.359   1_655 S
C120   N40     1.440   1_655 S
C122   C125    1.450   .     S
C122   C294    1.344   .     S
C122   H310    1.088   .     S
C123   C124    1.428   .     S
C123   C464    1.344   1_545 S
C123   I492    2.139   1_545 S
C124   O160    1.280   .     A
C124   O166    1.276   .     A
C125   O161    1.262   .     A
C125   O167    1.277   .     A
C126   C131    1.384   .     A
C126   C645    1.388   .     S
C126   I664    2.110   .     S
C127   O156    1.278   .     A
C127   C130    1.451   .     S
C127   O158    1.274   .     A
C128   O159    1.288   .     A
C128   O157    1.280   .     A
C129   C649    1.398   1_554 S
C129   H654    1.084   1_554 S
C131   H142    1.083   .     S
C132   H143    1.074   .     S
C132   C639    1.388   1_554 S
C132   C646    1.414   1_554 S
C133   C134    1.425   .     A
C133   C645    1.414   .     S
C133   C648    1.424   .     S
C134   C138    1.417   .     A
C135   C646    1.424   1_554 S
C135   C649    1.420   1_554 S
C136   C137    1.393   .     A
C136   C642    1.398   .     S
C136   C648    1.420   .     S
C137   C138    1.388   .     A
C137   H140    1.084   .     S
C138   I152    2.136   .     S
H139   C464    1.088   1_545 S
H141   C642    1.084   .     S
H144   N153    1.045   .     S
H145   N153    1.045   .     S
H146   N154    1.046   .     S
H147   N154    1.046   .     S
I149   C7      2.142   1_655 S
I150   C294    2.139   .     S
I151   C639    2.110   1_554 S
O155   Zn170   1.937   .     S
O155   Zn171   1.929   .     S
O155   Zn168   1.968   .     S
O155   Zn169   1.949   .     S
O156   Zn169   1.928   .     S
O157   Zn171   1.941   .     S
O158   Zn170   1.934   .     S
O159   Zn168   1.921   .     S
O160   Zn168   1.934   .     S
O161   Zn171   1.939   .     S
O162   Zn169   1.932   .     S
O163   Zn170   1.946   .     S
O164   Zn171   1.942   .     S
O165   Zn168   1.930   .     S
O166   Zn169   1.943   .     S
O167   Zn170   1.934   .     S
C172   O219    1.265   .     A
C172   O221    1.268   .     A
C172   C178    1.431   .     S
C173   C187    1.404   .     A
C173   C192    1.423   .     A
C173   N210    1.441   .     S
C174   C186    1.388   .     A
C174   I205    2.124   .     S
C174   C187    1.402   .     A
C175   O220    1.291   .     A
C175   O222    1.273   .     A
C175   C177    1.457   .     S
C176   C191    1.417   .     A
C176   C185    1.468   .     S
C176   C188    1.403   .     A
C177   C235    1.359   .     S
C177   N268    1.440   .     S
C178   C291    1.359   1_455 S
C178   I320    2.142   1_455 S
C179   C182    1.450   .     S
C179   C351    1.344   .     S
C179   H367    1.088   .     S
C180   C181    1.428   .     S
C181   O217    1.280   .     A
C181   O223    1.276   .     A
C182   O218    1.262   .     A
C182   O224    1.277   .     A
C183   C188    1.384   .     A
C183   C702    1.388   .     S
C183   I721    2.110   .     S
C184   O213    1.278   .     A
C184   C187    1.451   .     S
C184   O215    1.274   .     A
C185   O216    1.288   .     A
C185   O214    1.280   .     A
C186   C706    1.398   1_554 S
C186   H711    1.084   1_554 S
C188   H199    1.083   .     S
C189   H200    1.074   .     S
C189   C696    1.388   1_554 S
C189   C703    1.414   1_554 S
C190   C191    1.425   .     A
C190   C702    1.414   .     S
C190   C705    1.424   .     S
C191   C195    1.417   .     A
C192   C703    1.424   1_554 S
C192   C706    1.420   1_554 S
C193   C194    1.393   .     A
C193   C699    1.398   .     S
C193   C705    1.420   .     S
C194   C195    1.388   .     A
C194   H197    1.084   .     S
C195   I209    2.136   .     S
H198   C699    1.084   .     S
H201   N210    1.045   .     S
H202   N210    1.045   .     S
H203   N211    1.046   .     S
H204   N211    1.046   .     S
I206   C235    2.142   .     S
I207   C351    2.139   .     S
I208   C696    2.110   1_554 S
N211   C291    1.440   1_455 S
O212   Zn227   1.937   .     S
O212   Zn228   1.929   .     S
O212   Zn225   1.968   .     S
O212   Zn226   1.949   .     S
O213   Zn226   1.928   .     S
O214   Zn228   1.941   .     S
O215   Zn227   1.934   .     S
O216   Zn225   1.921   .     S
O217   Zn225   1.934   .     S
O218   Zn228   1.939   .     S
O219   Zn226   1.932   .     S
O220   Zn227   1.946   .     S
O221   Zn228   1.942   .     S
O222   Zn225   1.930   .     S
O223   Zn226   1.943   .     S
O224   Zn227   1.934   .     S
C229   O276    1.265   .     A
C229   O278    1.268   .     A
C229   C235    1.431   .     S
C230   C244    1.404   .     A
C230   C249    1.423   .     A
C230   N267    1.441   .     S
C231   C243    1.388   .     A
C231   I262    2.124   .     S
C231   C244    1.402   .     A
C232   O277    1.291   .     A
C232   O279    1.273   .     A
C232   C234    1.457   .     S
C233   C248    1.417   .     A
C233   C242    1.468   .     S
C233   C245    1.403   .     A
C234   C292    1.359   .     S
C234   N325    1.440   .     S
C236   C239    1.450   .     S
C236   C408    1.344   .     S
C236   H424    1.088   .     S
C237   C238    1.428   .     S
C238   O274    1.280   .     A
C238   O280    1.276   .     A
C239   O275    1.262   .     A
C239   O281    1.277   .     A
C240   C245    1.384   .     A
C240   C759    1.388   .     S
C240   I778    2.110   .     S
C241   O270    1.278   .     A
C241   C244    1.451   .     S
C241   O272    1.274   .     A
C242   O273    1.288   .     A
C242   O271    1.280   .     A
C243   C763    1.398   1_554 S
C243   H768    1.084   1_554 S
C245   H256    1.083   .     S
C246   H257    1.074   .     S
C246   C753    1.388   1_554 S
C246   C760    1.414   1_554 S
C247   C248    1.425   .     A
C247   C759    1.414   .     S
C247   C762    1.424   .     S
C248   C252    1.417   .     A
C249   C760    1.424   1_554 S
C249   C763    1.420   1_554 S
C250   C251    1.393   .     A
C250   C756    1.398   .     S
C250   C762    1.420   .     S
C251   C252    1.388   .     A
C251   H254    1.084   .     S
C252   I266    2.136   .     S
H255   C756    1.084   .     S
H258   N267    1.045   .     S
H259   N267    1.045   .     S
H260   N268    1.046   .     S
H261   N268    1.046   .     S
I263   C292    2.142   .     S
I264   C408    2.139   .     S
I265   C753    2.110   1_554 S
O269   Zn284   1.937   .     S
O269   Zn285   1.929   .     S
O269   Zn282   1.968   .     S
O269   Zn283   1.949   .     S
O270   Zn283   1.928   .     S
O271   Zn285   1.941   .     S
O272   Zn284   1.934   .     S
O273   Zn282   1.921   .     S
O274   Zn282   1.934   .     S
O275   Zn285   1.939   .     S
O276   Zn283   1.932   .     S
O277   Zn284   1.946   .     S
O278   Zn285   1.942   .     S
O279   Zn282   1.930   .     S
O280   Zn283   1.943   .     S
O281   Zn284   1.934   .     S
C286   O333    1.265   .     A
C286   O335    1.268   .     A
C286   C292    1.431   .     S
C287   C301    1.404   .     A
C287   C306    1.423   .     A
C287   N324    1.441   .     S
C288   C300    1.388   .     A
C288   I319    2.124   .     S
C288   C301    1.402   .     A
C289   O334    1.291   .     A
C289   O336    1.273   .     A
C289   C291    1.457   .     S
C290   C305    1.417   .     A
C290   C299    1.468   .     S
C290   C302    1.403   .     A
C291   C178    1.359   1_655 S
C291   N211    1.440   1_655 S
C293   C296    1.450   .     S
C293   C465    1.344   .     S
C293   H481    1.088   .     S
C294   C295    1.428   .     S
C295   O331    1.280   .     A
C295   O337    1.276   .     A
C296   O332    1.262   .     A
C296   O338    1.277   .     A
C297   C302    1.384   .     A
C297   C816    1.388   .     S
C297   I835    2.110   .     S
C298   O327    1.278   .     A
C298   C301    1.451   .     S
C298   O329    1.274   .     A
C299   O330    1.288   .     A
C299   O328    1.280   .     A
C300   C820    1.398   1_554 S
C300   H825    1.084   1_554 S
C302   H313    1.083   .     S
C303   H314    1.074   .     S
C303   C810    1.388   1_554 S
C303   C817    1.414   1_554 S
C304   C305    1.425   .     A
C304   C816    1.414   .     S
C304   C819    1.424   .     S
C305   C309    1.417   .     A
C306   C817    1.424   1_554 S
C306   C820    1.420   1_554 S
C307   C308    1.393   .     A
C307   C813    1.398   .     S
C307   C819    1.420   .     S
C308   C309    1.388   .     A
C308   H311    1.084   .     S
C309   I323    2.136   .     S
H312   C813    1.084   .     S
H315   N324    1.045   .     S
H316   N324    1.045   .     S
H317   N325    1.046   .     S
H318   N325    1.046   .     S
I320   C178    2.142   1_655 S
I321   C465    2.139   .     S
I322   C810    2.110   1_554 S
O326   Zn341   1.937   .     S
O326   Zn342   1.929   .     S
O326   Zn339   1.968   .     S
O326   Zn340   1.949   .     S
O327   Zn340   1.928   .     S
O328   Zn342   1.941   .     S
O329   Zn341   1.934   .     S
O330   Zn339   1.921   .     S
O331   Zn339   1.934   .     S
O332   Zn342   1.939   .     S
O333   Zn340   1.932   .     S
O334   Zn341   1.946   .     S
O335   Zn342   1.942   .     S
O336   Zn339   1.930   .     S
O337   Zn340   1.943   .     S
O338   Zn341   1.934   .     S
C343   O390    1.265   .     A
C343   O392    1.268   .     A
C343   C349    1.431   .     S
C344   C358    1.404   .     A
C344   C363    1.423   .     A
C344   N381    1.441   .     S
C345   C357    1.388   .     A
C345   I376    2.124   .     S
C345   C358    1.402   .     A
C346   O391    1.291   .     A
C346   O393    1.273   .     A
C346   C348    1.457   .     S
C347   C362    1.417   .     A
C347   C356    1.468   .     S
C347   C359    1.403   .     A
C348   C406    1.359   .     S
C348   N439    1.440   .     S
C349   C462    1.359   1_455 S
C349   I491    2.142   1_455 S
C350   C353    1.450   .     S
C350   C9      1.344   1_565 S
C350   H25     1.088   1_565 S
C351   C352    1.428   .     S
C352   O388    1.280   .     A
C352   O394    1.276   .     A
C353   O389    1.262   .     A
C353   O395    1.277   .     A
C354   C359    1.384   .     A
C354   C873    1.388   .     S
C354   I892    2.110   .     S
C355   O384    1.278   .     A
C355   C358    1.451   .     S
C355   O386    1.274   .     A
C356   O387    1.288   .     A
C356   O385    1.280   .     A
C357   C877    1.398   1_554 S
C357   H882    1.084   1_554 S
C359   H370    1.083   .     S
C360   H371    1.074   .     S
C360   C867    1.388   1_554 S
C360   C874    1.414   1_554 S
C361   C362    1.425   .     A
C361   C873    1.414   .     S
C361   C876    1.424   .     S
C362   C366    1.417   .     A
C363   C874    1.424   1_554 S
C363   C877    1.420   1_554 S
C364   C365    1.393   .     A
C364   C870    1.398   .     S
C364   C876    1.420   .     S
C365   C366    1.388   .     A
C365   H368    1.084   .     S
C366   I380    2.136   .     S
H369   C870    1.084   .     S
H372   N381    1.045   .     S
H373   N381    1.045   .     S
H374   N382    1.046   .     S
H375   N382    1.046   .     S
I377   C406    2.142   .     S
I378   C9      2.139   1_565 S
I379   C867    2.110   1_554 S
N382   C462    1.440   1_455 S
O383   Zn398   1.937   .     S
O383   Zn399   1.929   .     S
O383   Zn396   1.968   .     S
O383   Zn397   1.949   .     S
O384   Zn397   1.928   .     S
O385   Zn399   1.941   .     S
O386   Zn398   1.934   .     S
O387   Zn396   1.921   .     S
O388   Zn396   1.934   .     S
O389   Zn399   1.939   .     S
O390   Zn397   1.932   .     S
O391   Zn398   1.946   .     S
O392   Zn399   1.942   .     S
O393   Zn396   1.930   .     S
O394   Zn397   1.943   .     S
O395   Zn398   1.934   .     S
C400   O447    1.265   .     A
C400   O449    1.268   .     A
C400   C406    1.431   .     S
C401   C415    1.404   .     A
C401   C420    1.423   .     A
C401   N438    1.441   .     S
C402   C414    1.388   .     A
C402   I433    2.124   .     S
C402   C415    1.402   .     A
C403   O448    1.291   .     A
C403   O450    1.273   .     A
C403   C405    1.457   .     S
C404   C419    1.417   .     A
C404   C413    1.468   .     S
C404   C416    1.403   .     A
C405   C463    1.359   .     S
C405   N496    1.440   .     S
C407   C410    1.450   .     S
C407   C66     1.344   1_565 S
C407   H82     1.088   1_565 S
C408   C409    1.428   .     S
C409   O445    1.280   .     A
C409   O451    1.276   .     A
C410   O446    1.262   .     A
C410   O452    1.277   .     A
C411   C416    1.384   .     A
C411   C930    1.388   .     S
C411   I949    2.110   .     S
C412   O441    1.278   .     A
C412   C415    1.451   .     S
C412   O443    1.274   .     A
C413   O444    1.288   .     A
C413   O442    1.280   .     A
C414   C934    1.398   1_554 S
C414   H939    1.084   1_554 S
C416   H427    1.083   .     S
C417   H428    1.074   .     S
C417   C924    1.388   1_554 S
C417   C931    1.414   1_554 S
C418   C419    1.425   .     A
C418   C930    1.414   .     S
C418   C933    1.424   .     S
C419   C423    1.417   .     A
C420   C931    1.424   1_554 S
C420   C934    1.420   1_554 S
C421   C422    1.393   .     A
C421   C927    1.398   .     S
C421   C933    1.420   .     S
C422   C423    1.388   .     A
C422   H425    1.084   .     S
C423   I437    2.136   .     S
H426   C927    1.084   .     S
H429   N438    1.045   .     S
H430   N438    1.045   .     S
H431   N439    1.046   .     S
H432   N439    1.046   .     S
I434   C463    2.142   .     S
I435   C66     2.139   1_565 S
I436   C924    2.110   1_554 S
O440   Zn455   1.937   .     S
O440   Zn456   1.929   .     S
O440   Zn453   1.968   .     S
O440   Zn454   1.949   .     S
O441   Zn454   1.928   .     S
O442   Zn456   1.941   .     S
O443   Zn455   1.934   .     S
O444   Zn453   1.921   .     S
O445   Zn453   1.934   .     S
O446   Zn456   1.939   .     S
O447   Zn454   1.932   .     S
O448   Zn455   1.946   .     S
O449   Zn456   1.942   .     S
O450   Zn453   1.930   .     S
O451   Zn454   1.943   .     S
O452   Zn455   1.934   .     S
C457   O504    1.265   .     A
C457   O506    1.268   .     A
C457   C463    1.431   .     S
C458   C472    1.404   .     A
C458   C477    1.423   .     A
C458   N495    1.441   .     S
C459   C471    1.388   .     A
C459   I490    2.124   .     S
C459   C472    1.402   .     A
C460   O505    1.291   .     A
C460   O507    1.273   .     A
C460   C462    1.457   .     S
C461   C476    1.417   .     A
C461   C470    1.468   .     S
C461   C473    1.403   .     A
C462   C349    1.359   1_655 S
C462   N382    1.440   1_655 S
C464   C467    1.450   .     S
C464   C123    1.344   1_565 S
C464   H139    1.088   1_565 S
C465   C466    1.428   .     S
C466   O502    1.280   .     A
C466   O508    1.276   .     A
C467   O503    1.262   .     A
C467   O509    1.277   .     A
C468   C473    1.384   .     A
C468   C987    1.388   .     S
C468   I1006   2.110   .     S
C469   O498    1.278   .     A
C469   C472    1.451   .     S
C469   O500    1.274   .     A
C470   O501    1.288   .     A
C470   O499    1.280   .     A
C471   C991    1.398   1_554 S
C471   H996    1.084   1_554 S
C473   H484    1.083   .     S
C474   H485    1.074   .     S
C474   C981    1.388   1_554 S
C474   C988    1.414   1_554 S
C475   C476    1.425   .     A
C475   C987    1.414   .     S
C475   C990    1.424   .     S
C476   C480    1.417   .     A
C477   C988    1.424   1_554 S
C477   C991    1.420   1_554 S
C478   C479    1.393   .     A
C478   C984    1.398   .     S
C478   C990    1.420   .     S
C479   C480    1.388   .     A
C479   H482    1.084   .     S
C480   I494    2.136   .     S
H483   C984    1.084   .     S
H486   N495    1.045   .     S
H487   N495    1.045   .     S
H488   N496    1.046   .     S
H489   N496    1.046   .     S
I491   C349    2.142   1_655 S
I492   C123    2.139   1_565 S
I493   C981    2.110   1_554 S
O497   Zn512   1.937   .     S
O497   Zn513   1.929   .     S
O497   Zn510   1.968   .     S
O497   Zn511   1.949   .     S
O498   Zn511   1.928   .     S
O499   Zn513   1.941   .     S
O500   Zn512   1.934   .     S
O501   Zn510   1.921   .     S
O502   Zn510   1.934   .     S
O503   Zn513   1.939   .     S
O504   Zn511   1.932   .     S
O505   Zn512   1.946   .     S
O506   Zn513   1.942   .     S
O507   Zn510   1.930   .     S
O508   Zn511   1.943   .     S
O509   Zn512   1.934   .     S
C514   O561    1.265   .     A
C514   O563    1.268   .     A
C514   C520    1.431   .     S
C515   C529    1.404   .     A
C515   C534    1.423   .     A
C515   N552    1.441   .     S
C516   C528    1.388   .     A
C516   I547    2.124   .     S
C516   C529    1.402   .     A
C517   O562    1.291   .     A
C517   O564    1.273   .     A
C517   C519    1.457   .     S
C518   C533    1.417   .     A
C518   C527    1.468   .     S
C518   C530    1.403   .     A
C519   C577    1.359   .     S
C519   N610    1.440   .     S
C520   C633    1.359   1_455 S
C520   I662    2.142   1_455 S
C521   C524    1.450   .     S
C521   C693    1.344   .     S
C521   H709    1.088   .     S
C522   C523    1.428   .     S
C522   C863    1.344   1_545 S
C522   I891    2.139   1_545 S
C523   O559    1.280   .     A
C523   O565    1.276   .     A
C524   O560    1.262   .     A
C524   O566    1.277   .     A
C525   C530    1.384   .     A
C525   C18     1.388   1_556 S
C525   I37     2.110   1_556 S
C526   O555    1.278   .     A
C526   C529    1.451   .     S
C526   O557    1.274   .     A
C527   O558    1.288   .     A
C527   O556    1.280   .     A
C530   H541    1.083   .     S
C531   H542    1.074   .     S
C532   C533    1.425   .     A
C532   C18     1.414   1_556 S
C532   C21     1.424   1_556 S
C533   C537    1.417   .     A
C535   C536    1.393   .     A
C535   C15     1.398   1_556 S
C535   C21     1.420   1_556 S
C536   C537    1.388   .     A
C536   H539    1.084   .     S
C537   I551    2.136   .     S
H538   C863    1.088   1_545 S
H540   C15     1.084   1_556 S
H543   N552    1.045   .     S
H544   N552    1.045   .     S
H545   N553    1.046   .     S
H546   N553    1.046   .     S
I548   C577    2.142   .     S
I549   C693    2.139   .     S
N553   C633    1.440   1_455 S
O554   Zn569   1.937   .     S
O554   Zn570   1.929   .     S
O554   Zn567   1.968   .     S
O554   Zn568   1.949   .     S
O555   Zn568   1.928   .     S
O556   Zn570   1.941   .     S
O557   Zn569   1.934   .     S
O558   Zn567   1.921   .     S
O559   Zn567   1.934   .     S
O560   Zn570   1.939   .     S
O561   Zn568   1.932   .     S
O562   Zn569   1.946   .     S
O563   Zn570   1.942   .     S
O564   Zn567   1.930   .     S
O565   Zn568   1.943   .     S
O566   Zn569   1.934   .     S
C571   O618    1.265   .     A
C571   O620    1.268   .     A
C571   C577    1.431   .     S
C572   C586    1.404   .     A
C572   C591    1.423   .     A
C572   N609    1.441   .     S
C573   C585    1.388   .     A
C573   I604    2.124   .     S
C573   C586    1.402   .     A
C574   O619    1.291   .     A
C574   O621    1.273   .     A
C574   C576    1.457   .     S
C575   C590    1.417   .     A
C575   C584    1.468   .     S
C575   C587    1.403   .     A
C576   C634    1.359   .     S
C576   N667    1.440   .     S
C578   C581    1.450   .     S
C578   C750    1.344   .     S
C578   H766    1.088   .     S
C579   C580    1.428   .     S
C579   C920    1.344   1_545 S
C579   I948    2.139   1_545 S
C580   O616    1.280   .     A
C580   O622    1.276   .     A
C581   O617    1.262   .     A
C581   O623    1.277   .     A
C582   C587    1.384   .     A
C582   C75     1.388   1_556 S
C582   I94     2.110   1_556 S
C583   O612    1.278   .     A
C583   C586    1.451   .     S
C583   O614    1.274   .     A
C584   O615    1.288   .     A
C584   O613    1.280   .     A
C587   H598    1.083   .     S
C588   H599    1.074   .     S
C589   C590    1.425   .     A
C589   C75     1.414   1_556 S
C589   C78     1.424   1_556 S
C590   C594    1.417   .     A
C592   C593    1.393   .     A
C592   C72     1.398   1_556 S
C592   C78     1.420   1_556 S
C593   C594    1.388   .     A
C593   H596    1.084   .     S
C594   I608    2.136   .     S
H595   C920    1.088   1_545 S
H597   C72     1.084   1_556 S
H600   N609    1.045   .     S
H601   N609    1.045   .     S
H602   N610    1.046   .     S
H603   N610    1.046   .     S
I605   C634    2.142   .     S
I606   C750    2.139   .     S
O611   Zn626   1.937   .     S
O611   Zn627   1.929   .     S
O611   Zn624   1.968   .     S
O611   Zn625   1.949   .     S
O612   Zn625   1.928   .     S
O613   Zn627   1.941   .     S
O614   Zn626   1.934   .     S
O615   Zn624   1.921   .     S
O616   Zn624   1.934   .     S
O617   Zn627   1.939   .     S
O618   Zn625   1.932   .     S
O619   Zn626   1.946   .     S
O620   Zn627   1.942   .     S
O621   Zn624   1.930   .     S
O622   Zn625   1.943   .     S
O623   Zn626   1.934   .     S
C628   O675    1.265   .     A
C628   O677    1.268   .     A
C628   C634    1.431   .     S
C629   C643    1.404   .     A
C629   C648    1.423   .     A
C629   N666    1.441   .     S
C630   C642    1.388   .     A
C630   I661    2.124   .     S
C630   C643    1.402   .     A
C631   O676    1.291   .     A
C631   O678    1.273   .     A
C631   C633    1.457   .     S
C632   C647    1.417   .     A
C632   C641    1.468   .     S
C632   C644    1.403   .     A
C633   C520    1.359   1_655 S
C633   N553    1.440   1_655 S
C635   C638    1.450   .     S
C635   C807    1.344   .     S
C635   H823    1.088   .     S
C636   C637    1.428   .     S
C636   C977    1.344   1_545 S
C636   I1005   2.139   1_545 S
C637   O673    1.280   .     A
C637   O679    1.276   .     A
C638   O674    1.262   .     A
C638   O680    1.277   .     A
C639   C644    1.384   .     A
C639   C132    1.388   1_556 S
C639   I151    2.110   1_556 S
C640   O669    1.278   .     A
C640   C643    1.451   .     S
C640   O671    1.274   .     A
C641   O672    1.288   .     A
C641   O670    1.280   .     A
C644   H655    1.083   .     S
C645   H656    1.074   .     S
C646   C647    1.425   .     A
C646   C132    1.414   1_556 S
C646   C135    1.424   1_556 S
C647   C651    1.417   .     A
C649   C650    1.393   .     A
C649   C129    1.398   1_556 S
C649   C135    1.420   1_556 S
C650   C651    1.388   .     A
C650   H653    1.084   .     S
C651   I665    2.136   .     S
H652   C977    1.088   1_545 S
H654   C129    1.084   1_556 S
H657   N666    1.045   .     S
H658   N666    1.045   .     S
H659   N667    1.046   .     S
H660   N667    1.046   .     S
I662   C520    2.142   1_655 S
I663   C807    2.139   .     S
O668   Zn683   1.937   .     S
O668   Zn684   1.929   .     S
O668   Zn681   1.968   .     S
O668   Zn682   1.949   .     S
O669   Zn682   1.928   .     S
O670   Zn684   1.941   .     S
O671   Zn683   1.934   .     S
O672   Zn681   1.921   .     S
O673   Zn681   1.934   .     S
O674   Zn684   1.939   .     S
O675   Zn682   1.932   .     S
O676   Zn683   1.946   .     S
O677   Zn684   1.942   .     S
O678   Zn681   1.930   .     S
O679   Zn682   1.943   .     S
O680   Zn683   1.934   .     S
C685   O732    1.265   .     A
C685   O734    1.268   .     A
C685   C691    1.431   .     S
C686   C700    1.404   .     A
C686   C705    1.423   .     A
C686   N723    1.441   .     S
C687   C699    1.388   .     A
C687   I718    2.124   .     S
C687   C700    1.402   .     A
C688   O733    1.291   .     A
C688   O735    1.273   .     A
C688   C690    1.457   .     S
C689   C704    1.417   .     A
C689   C698    1.468   .     S
C689   C701    1.403   .     A
C690   C748    1.359   .     S
C690   N781    1.440   .     S
C691   C804    1.359   1_455 S
C691   I833    2.142   1_455 S
C692   C695    1.450   .     S
C692   C864    1.344   .     S
C692   H880    1.088   .     S
C693   C694    1.428   .     S
C694   O730    1.280   .     A
C694   O736    1.276   .     A
C695   O731    1.262   .     A
C695   O737    1.277   .     A
C696   C701    1.384   .     A
C696   C189    1.388   1_556 S
C696   I208    2.110   1_556 S
C697   O726    1.278   .     A
C697   C700    1.451   .     S
C697   O728    1.274   .     A
C698   O729    1.288   .     A
C698   O727    1.280   .     A
C701   H712    1.083   .     S
C702   H713    1.074   .     S
C703   C704    1.425   .     A
C703   C189    1.414   1_556 S
C703   C192    1.424   1_556 S
C704   C708    1.417   .     A
C706   C707    1.393   .     A
C706   C186    1.398   1_556 S
C706   C192    1.420   1_556 S
C707   C708    1.388   .     A
C707   H710    1.084   .     S
C708   I722    2.136   .     S
H711   C186    1.084   1_556 S
H714   N723    1.045   .     S
H715   N723    1.045   .     S
H716   N724    1.046   .     S
H717   N724    1.046   .     S
I719   C748    2.142   .     S
I720   C864    2.139   .     S
N724   C804    1.440   1_455 S
O725   Zn740   1.937   .     S
O725   Zn741   1.929   .     S
O725   Zn738   1.968   .     S
O725   Zn739   1.949   .     S
O726   Zn739   1.928   .     S
O727   Zn741   1.941   .     S
O728   Zn740   1.934   .     S
O729   Zn738   1.921   .     S
O730   Zn738   1.934   .     S
O731   Zn741   1.939   .     S
O732   Zn739   1.932   .     S
O733   Zn740   1.946   .     S
O734   Zn741   1.942   .     S
O735   Zn738   1.930   .     S
O736   Zn739   1.943   .     S
O737   Zn740   1.934   .     S
C742   O789    1.265   .     A
C742   O791    1.268   .     A
C742   C748    1.431   .     S
C743   C757    1.404   .     A
C743   C762    1.423   .     A
C743   N780    1.441   .     S
C744   C756    1.388   .     A
C744   I775    2.124   .     S
C744   C757    1.402   .     A
C745   O790    1.291   .     A
C745   O792    1.273   .     A
C745   C747    1.457   .     S
C746   C761    1.417   .     A
C746   C755    1.468   .     S
C746   C758    1.403   .     A
C747   C805    1.359   .     S
C747   N838    1.440   .     S
C749   C752    1.450   .     S
C749   C921    1.344   .     S
C749   H937    1.088   .     S
C750   C751    1.428   .     S
C751   O787    1.280   .     A
C751   O793    1.276   .     A
C752   O788    1.262   .     A
C752   O794    1.277   .     A
C753   C758    1.384   .     A
C753   C246    1.388   1_556 S
C753   I265    2.110   1_556 S
C754   O783    1.278   .     A
C754   C757    1.451   .     S
C754   O785    1.274   .     A
C755   O786    1.288   .     A
C755   O784    1.280   .     A
C758   H769    1.083   .     S
C759   H770    1.074   .     S
C760   C761    1.425   .     A
C760   C246    1.414   1_556 S
C760   C249    1.424   1_556 S
C761   C765    1.417   .     A
C763   C764    1.393   .     A
C763   C243    1.398   1_556 S
C763   C249    1.420   1_556 S
C764   C765    1.388   .     A
C764   H767    1.084   .     S
C765   I779    2.136   .     S
H768   C243    1.084   1_556 S
H771   N780    1.045   .     S
H772   N780    1.045   .     S
H773   N781    1.046   .     S
H774   N781    1.046   .     S
I776   C805    2.142   .     S
I777   C921    2.139   .     S
O782   Zn797   1.937   .     S
O782   Zn798   1.929   .     S
O782   Zn795   1.968   .     S
O782   Zn796   1.949   .     S
O783   Zn796   1.928   .     S
O784   Zn798   1.941   .     S
O785   Zn797   1.934   .     S
O786   Zn795   1.921   .     S
O787   Zn795   1.934   .     S
O788   Zn798   1.939   .     S
O789   Zn796   1.932   .     S
O790   Zn797   1.946   .     S
O791   Zn798   1.942   .     S
O792   Zn795   1.930   .     S
O793   Zn796   1.943   .     S
O794   Zn797   1.934   .     S
C799   O846    1.265   .     A
C799   O848    1.268   .     A
C799   C805    1.431   .     S
C800   C814    1.404   .     A
C800   C819    1.423   .     A
C800   N837    1.441   .     S
C801   C813    1.388   .     A
C801   I832    2.124   .     S
C801   C814    1.402   .     A
C802   O847    1.291   .     A
C802   O849    1.273   .     A
C802   C804    1.457   .     S
C803   C818    1.417   .     A
C803   C812    1.468   .     S
C803   C815    1.403   .     A
C804   C691    1.359   1_655 S
C804   N724    1.440   1_655 S
C806   C809    1.450   .     S
C806   C978    1.344   .     S
C806   H994    1.088   .     S
C807   C808    1.428   .     S
C808   O844    1.280   .     A
C808   O850    1.276   .     A
C809   O845    1.262   .     A
C809   O851    1.277   .     A
C810   C815    1.384   .     A
C810   C303    1.388   1_556 S
C810   I322    2.110   1_556 S
C811   O840    1.278   .     A
C811   C814    1.451   .     S
C811   O842    1.274   .     A
C812   O843    1.288   .     A
C812   O841    1.280   .     A
C815   H826    1.083   .     S
C816   H827    1.074   .     S
C817   C818    1.425   .     A
C817   C303    1.414   1_556 S
C817   C306    1.424   1_556 S
C818   C822    1.417   .     A
C820   C821    1.393   .     A
C820   C300    1.398   1_556 S
C820   C306    1.420   1_556 S
C821   C822    1.388   .     A
C821   H824    1.084   .     S
C822   I836    2.136   .     S
H825   C300    1.084   1_556 S
H828   N837    1.045   .     S
H829   N837    1.045   .     S
H830   N838    1.046   .     S
H831   N838    1.046   .     S
I833   C691    2.142   1_655 S
I834   C978    2.139   .     S
O839   Zn854   1.937   .     S
O839   Zn855   1.929   .     S
O839   Zn852   1.968   .     S
O839   Zn853   1.949   .     S
O840   Zn853   1.928   .     S
O841   Zn855   1.941   .     S
O842   Zn854   1.934   .     S
O843   Zn852   1.921   .     S
O844   Zn852   1.934   .     S
O845   Zn855   1.939   .     S
O846   Zn853   1.932   .     S
O847   Zn854   1.946   .     S
O848   Zn855   1.942   .     S
O849   Zn852   1.930   .     S
O850   Zn853   1.943   .     S
O851   Zn854   1.934   .     S
C856   O903    1.265   .     A
C856   O905    1.268   .     A
C856   C862    1.431   .     S
C857   C871    1.404   .     A
C857   C876    1.423   .     A
C857   N894    1.441   .     S
C858   C870    1.388   .     A
C858   I889    2.124   .     S
C858   C871    1.402   .     A
C859   O904    1.291   .     A
C859   O906    1.273   .     A
C859   C861    1.457   .     S
C860   C875    1.417   .     A
C860   C869    1.468   .     S
C860   C872    1.403   .     A
C861   C919    1.359   .     S
C861   N952    1.440   .     S
C862   C975    1.359   1_455 S
C862   I1004   2.142   1_455 S
C863   C866    1.450   .     S
C863   C522    1.344   1_565 S
C863   H538    1.088   1_565 S
C864   C865    1.428   .     S
C865   O901    1.280   .     A
C865   O907    1.276   .     A
C866   O902    1.262   .     A
C866   O908    1.277   .     A
C867   C872    1.384   .     A
C867   C360    1.388   1_556 S
C867   I379    2.110   1_556 S
C868   O897    1.278   .     A
C868   C871    1.451   .     S
C868   O899    1.274   .     A
C869   O900    1.288   .     A
C869   O898    1.280   .     A
C872   H883    1.083   .     S
C873   H884    1.074   .     S
C874   C875    1.425   .     A
C874   C360    1.414   1_556 S
C874   C363    1.424   1_556 S
C875   C879    1.417   .     A
C877   C878    1.393   .     A
C877   C357    1.398   1_556 S
C877   C363    1.420   1_556 S
C878   C879    1.388   .     A
C878   H881    1.084   .     S
C879   I893    2.136   .     S
H882   C357    1.084   1_556 S
H885   N894    1.045   .     S
H886   N894    1.045   .     S
H887   N895    1.046   .     S
H888   N895    1.046   .     S
I890   C919    2.142   .     S
I891   C522    2.139   1_565 S
N895   C975    1.440   1_455 S
O896   Zn911   1.937   .     S
O896   Zn912   1.929   .     S
O896   Zn909   1.968   .     S
O896   Zn910   1.949   .     S
O897   Zn910   1.928   .     S
O898   Zn912   1.941   .     S
O899   Zn911   1.934   .     S
O900   Zn909   1.921   .     S
O901   Zn909   1.934   .     S
O902   Zn912   1.939   .     S
O903   Zn910   1.932   .     S
O904   Zn911   1.946   .     S
O905   Zn912   1.942   .     S
O906   Zn909   1.930   .     S
O907   Zn910   1.943   .     S
O908   Zn911   1.934   .     S
C913   O960    1.265   .     A
C913   O962    1.268   .     A
C913   C919    1.431   .     S
C914   C928    1.404   .     A
C914   C933    1.423   .     A
C914   N951    1.441   .     S
C915   C927    1.388   .     A
C915   I946    2.124   .     S
C915   C928    1.402   .     A
C916   O961    1.291   .     A
C916   O963    1.273   .     A
C916   C918    1.457   .     S
C917   C932    1.417   .     A
C917   C926    1.468   .     S
C917   C929    1.403   .     A
C918   C976    1.359   .     S
C918   N1009   1.440   .     S
C920   C923    1.450   .     S
C920   C579    1.344   1_565 S
C920   H595    1.088   1_565 S
C921   C922    1.428   .     S
C922   O958    1.280   .     A
C922   O964    1.276   .     A
C923   O959    1.262   .     A
C923   O965    1.277   .     A
C924   C929    1.384   .     A
C924   C417    1.388   1_556 S
C924   I436    2.110   1_556 S
C925   O954    1.278   .     A
C925   C928    1.451   .     S
C925   O956    1.274   .     A
C926   O957    1.288   .     A
C926   O955    1.280   .     A
C929   H940    1.083   .     S
C930   H941    1.074   .     S
C931   C932    1.425   .     A
C931   C417    1.414   1_556 S
C931   C420    1.424   1_556 S
C932   C936    1.417   .     A
C934   C935    1.393   .     A
C934   C414    1.398   1_556 S
C934   C420    1.420   1_556 S
C935   C936    1.388   .     A
C935   H938    1.084   .     S
C936   I950    2.136   .     S
H939   C414    1.084   1_556 S
H942   N951    1.045   .     S
H943   N951    1.045   .     S
H944   N952    1.046   .     S
H945   N952    1.046   .     S
I947   C976    2.142   .     S
I948   C579    2.139   1_565 S
O953   Zn968   1.937   .     S
O953   Zn969   1.929   .     S
O953   Zn966   1.968   .     S
O953   Zn967   1.949   .     S
O954   Zn967   1.928   .     S
O955   Zn969   1.941   .     S
O956   Zn968   1.934   .     S
O957   Zn966   1.921   .     S
O958   Zn966   1.934   .     S
O959   Zn969   1.939   .     S
O960   Zn967   1.932   .     S
O961   Zn968   1.946   .     S
O962   Zn969   1.942   .     S
O963   Zn966   1.930   .     S
O964   Zn967   1.943   .     S
O965   Zn968   1.934   .     S
C970   O1017   1.265   .     A
C970   O1019   1.268   .     A
C970   C976    1.431   .     S
C971   C985    1.404   .     A
C971   C990    1.423   .     A
C971   N1008   1.441   .     S
C972   C984    1.388   .     A
C972   I1003   2.124   .     S
C972   C985    1.402   .     A
C973   O1018   1.291   .     A
C973   O1020   1.273   .     A
C973   C975    1.457   .     S
C974   C989    1.417   .     A
C974   C983    1.468   .     S
C974   C986    1.403   .     A
C975   C862    1.359   1_655 S
C975   N895    1.440   1_655 S
C977   C980    1.450   .     S
C977   C636    1.344   1_565 S
C977   H652    1.088   1_565 S
C978   C979    1.428   .     S
C979   O1015   1.280   .     A
C979   O1021   1.276   .     A
C980   O1016   1.262   .     A
C980   O1022   1.277   .     A
C981   C986    1.384   .     A
C981   C474    1.388   1_556 S
C981   I493    2.110   1_556 S
C982   O1011   1.278   .     A
C982   C985    1.451   .     S
C982   O1013   1.274   .     A
C983   O1014   1.288   .     A
C983   O1012   1.280   .     A
C986   H997    1.083   .     S
C987   H998    1.074   .     S
C988   C989    1.425   .     A
C988   C474    1.414   1_556 S
C988   C477    1.424   1_556 S
C989   C993    1.417   .     A
C991   C992    1.393   .     A
C991   C471    1.398   1_556 S
C991   C477    1.420   1_556 S
C992   C993    1.388   .     A
C992   H995    1.084   .     S
C993   I1007   2.136   .     S
H996   C471    1.084   1_556 S
H999   N1008   1.045   .     S
H1000  N1008   1.045   .     S
H1001  N1009   1.046   .     S
H1002  N1009   1.046   .     S
I1004  C862    2.142   1_655 S
I1005  C636    2.139   1_565 S
O1010  Zn1025  1.937   .     S
O1010  Zn1026  1.929   .     S
O1010  Zn1023  1.968   .     S
O1010  Zn1024  1.949   .     S
O1011  Zn1024  1.928   .     S
O1012  Zn1026  1.941   .     S
O1013  Zn1025  1.934   .     S
O1014  Zn1023  1.921   .     S
O1015  Zn1023  1.934   .     S
O1016  Zn1026  1.939   .     S
O1017  Zn1024  1.932   .     S
O1018  Zn1025  1.946   .     S
O1019  Zn1026  1.942   .     S
O1020  Zn1023  1.930   .     S
O1021  Zn1024  1.943   .     S
O1022  Zn1025  1.934   .     S
