data_str_m3_o1_o10_pcu_sym.209
_audit_creation_date              2020-01-03
_audit_creation_method            'Materials Studio'
_symmetry_space_group_name_H-M    'P1'
_symmetry_Int_Tables_number       1
_symmetry_cell_setting            triclinic
loop_
_symmetry_equiv_pos_as_xyz
  x,y,z
_cell_length_a                    26.1415
_cell_length_b                    32.0402
_cell_length_c                    29.5081
_cell_angle_alpha                 89.5190
_cell_angle_beta                  98.9291
_cell_angle_gamma                 92.0160
loop_
_atom_site_label
_atom_site_type_symbol
_atom_site_fract_x
_atom_site_fract_y
_atom_site_fract_z
_atom_site_U_iso_or_equiv
_atom_site_adp_type
_atom_site_occupancy
C1     C     0.16726   0.08684   0.16701   0.00000  Uiso   1.00
C2     C     0.16597   0.24650   0.16631   0.00000  Uiso   1.00
C3     C     0.06714   0.16710   0.15469   0.00000  Uiso   1.00
C4     C     0.26619   0.16617   0.17864   0.00000  Uiso   1.00
C5     C     0.01245   0.16172   0.14884   0.00000  Uiso   1.00
C6     C     0.32088   0.17149   0.18449   0.00000  Uiso   1.00
C7     C     0.12216   0.02077   0.14557   0.00000  Uiso   1.00
C8     C     0.21094   0.31260   0.18809   0.00000  Uiso   1.00
C9     C     0.12241   0.31078   0.14388   0.00000  Uiso   1.00
C10    C     0.21097   0.02263   0.18906   0.00000  Uiso   1.00
C11    C     0.16676   0.29072   0.16545   0.00000  Uiso   1.00
C12    C     0.16648   0.04265   0.16788   0.00000  Uiso   1.00
C13    C     0.20097   0.19174   0.02849   0.00000  Uiso   1.00
C14    C     0.13237   0.14159   0.30484   0.00000  Uiso   1.00
C15    C     0.20097   0.19175   0.31385   0.00000  Uiso   1.00
C16    C     0.13237   0.14158   0.01948   0.00000  Uiso   1.00
H17    H     0.22837   0.21175   0.05032   0.00000  Uiso   1.00
H18    H     0.10497   0.12158   0.28302   0.00000  Uiso   1.00
N19    N     0.16665   0.16666   0.28573   0.00000  Uiso   1.00
N20    N     0.16668   0.16668   0.04760   0.00000  Uiso   1.00
O21    O     0.16666   0.10558   0.20487   0.00000  Uiso   1.00
O22    O     0.16667   0.22775   0.12846   0.00000  Uiso   1.00
O23    O     0.16666   0.10559   0.12843   0.00000  Uiso   1.00
O24    O     0.16667   0.22774   0.20490   0.00000  Uiso   1.00
O25    O     0.09058   0.16666   0.19595   0.00000  Uiso   1.00
O26    O     0.24275   0.16667   0.13739   0.00000  Uiso   1.00
O27    O     0.09058   0.16667   0.11950   0.00000  Uiso   1.00
O28    O     0.24275   0.16666   0.21383   0.00000  Uiso   1.00
Zn29   Zn    0.16667   0.16666   0.21771   0.00000  Uiso   1.00
Zn30   Zn    0.16667   0.16667   0.11563   0.00000  Uiso   1.00
C31    C     0.32158   0.13844   0.10654   0.00000  Uiso   1.00
O32    O     0.32931   0.15067   0.06873   0.00000  Uiso   1.00
O33    O     0.29054   0.10246   0.11030   0.00000  Uiso   1.00
H34    H     0.27557   0.09011   0.07936   0.00000  Uiso   1.00
C35    C     0.01175   0.19482   0.22675   0.00000  Uiso   1.00
O36    O     0.00421   0.18254   0.26459   0.00000  Uiso   1.00
O37    O     0.04247   0.23096   0.22287   0.00000  Uiso   1.00
H38    H     0.05727   0.24347   0.25378   0.00000  Uiso   1.00
C39    C     0.07577   0.04323   0.12403   0.00000  Uiso   1.00
O40    O     0.05696   0.06905   0.14617   0.00000  Uiso   1.00
O41    O     0.05357   0.03448   0.07875   0.00000  Uiso   1.00
H42    H     0.02231   0.05181   0.06791   0.00000  Uiso   1.00
C43    C     0.25697   0.29021   0.21062   0.00000  Uiso   1.00
O44    O     0.27501   0.26296   0.18982   0.00000  Uiso   1.00
O45    O     0.27969   0.30056   0.25535   0.00000  Uiso   1.00
H46    H     0.31060   0.28306   0.26693   0.00000  Uiso   1.00
C47    C     0.07510   0.28662   0.12254   0.00000  Uiso   1.00
O48    O     0.07730   0.26229   0.09127   0.00000  Uiso   1.00
O49    O     0.02779   0.29280   0.13754   0.00000  Uiso   1.00
H50    H     0.33176   0.27514   0.12001   0.00000  Uiso   1.00
C51    C     0.25867   0.04697   0.20906   0.00000  Uiso   1.00
O52    O     0.29913   0.04233   0.19405   0.00000  Uiso   1.00
O53    O     0.25752   0.07423   0.24558   0.00000  Uiso   1.00
H54    H     0.29236   0.08878   0.25612   0.00000  Uiso   1.00
F55    F     0.23530   0.21693   0.29567   0.00000  Uiso   1.00
F56    F     0.09804   0.11640   0.03766   0.00000  Uiso   1.00
C57    C     0.50059   0.08684   0.16701   0.00000  Uiso   1.00
C58    C     0.49930   0.24650   0.16631   0.00000  Uiso   1.00
C59    C     0.40047   0.16710   0.15469   0.00000  Uiso   1.00
C60    C     0.59953   0.16617   0.17864   0.00000  Uiso   1.00
C61    C     0.34579   0.16172   0.14884   0.00000  Uiso   1.00
C62    C     0.65421   0.17149   0.18449   0.00000  Uiso   1.00
C63    C     0.45549   0.02077   0.14557   0.00000  Uiso   1.00
C64    C     0.54427   0.31260   0.18809   0.00000  Uiso   1.00
C65    C     0.45574   0.31078   0.14388   0.00000  Uiso   1.00
C66    C     0.54431   0.02263   0.18906   0.00000  Uiso   1.00
C67    C     0.50009   0.29072   0.16545   0.00000  Uiso   1.00
C68    C     0.49982   0.04265   0.16788   0.00000  Uiso   1.00
C69    C     0.53430   0.19174   0.02849   0.00000  Uiso   1.00
C70    C     0.46571   0.14159   0.30484   0.00000  Uiso   1.00
C71    C     0.53430   0.19175   0.31385   0.00000  Uiso   1.00
C72    C     0.46571   0.14158   0.01948   0.00000  Uiso   1.00
H73    H     0.56171   0.21175   0.05032   0.00000  Uiso   1.00
H74    H     0.43830   0.12158   0.28302   0.00000  Uiso   1.00
N75    N     0.49999   0.16666   0.28573   0.00000  Uiso   1.00
N76    N     0.50001   0.16668   0.04760   0.00000  Uiso   1.00
O77    O     0.50000   0.10558   0.20487   0.00000  Uiso   1.00
O78    O     0.50000   0.22775   0.12846   0.00000  Uiso   1.00
O79    O     0.50000   0.10559   0.12843   0.00000  Uiso   1.00
O80    O     0.50000   0.22774   0.20490   0.00000  Uiso   1.00
O81    O     0.42392   0.16666   0.19595   0.00000  Uiso   1.00
O82    O     0.57608   0.16667   0.13739   0.00000  Uiso   1.00
O83    O     0.42392   0.16667   0.11950   0.00000  Uiso   1.00
O84    O     0.57608   0.16666   0.21383   0.00000  Uiso   1.00
Zn85   Zn    0.50000   0.16666   0.21771   0.00000  Uiso   1.00
Zn86   Zn    0.50000   0.16667   0.11563   0.00000  Uiso   1.00
C87    C     0.65492   0.13844   0.10654   0.00000  Uiso   1.00
O88    O     0.66265   0.15067   0.06873   0.00000  Uiso   1.00
O89    O     0.62387   0.10246   0.11030   0.00000  Uiso   1.00
H90    H     0.60890   0.09011   0.07936   0.00000  Uiso   1.00
C91    C     0.34508   0.19482   0.22675   0.00000  Uiso   1.00
O92    O     0.33755   0.18254   0.26459   0.00000  Uiso   1.00
O93    O     0.37581   0.23096   0.22287   0.00000  Uiso   1.00
H94    H     0.39061   0.24347   0.25378   0.00000  Uiso   1.00
C95    C     0.40911   0.04323   0.12403   0.00000  Uiso   1.00
O96    O     0.39029   0.06905   0.14617   0.00000  Uiso   1.00
O97    O     0.38690   0.03448   0.07875   0.00000  Uiso   1.00
H98    H     0.35565   0.05181   0.06791   0.00000  Uiso   1.00
C99    C     0.59030   0.29021   0.21062   0.00000  Uiso   1.00
O100   O     0.60834   0.26296   0.18982   0.00000  Uiso   1.00
O101   O     0.61303   0.30056   0.25535   0.00000  Uiso   1.00
H102   H     0.64393   0.28306   0.26693   0.00000  Uiso   1.00
C103   C     0.40843   0.28662   0.12254   0.00000  Uiso   1.00
O104   O     0.41063   0.26229   0.09127   0.00000  Uiso   1.00
O105   O     0.36113   0.29280   0.13754   0.00000  Uiso   1.00
H106   H     0.66510   0.27514   0.12001   0.00000  Uiso   1.00
C107   C     0.59200   0.04697   0.20906   0.00000  Uiso   1.00
O108   O     0.63247   0.04233   0.19405   0.00000  Uiso   1.00
O109   O     0.59085   0.07423   0.24558   0.00000  Uiso   1.00
H110   H     0.62569   0.08878   0.25612   0.00000  Uiso   1.00
F111   F     0.56863   0.21693   0.29567   0.00000  Uiso   1.00
F112   F     0.43138   0.11640   0.03766   0.00000  Uiso   1.00
C113   C     0.83392   0.08684   0.16701   0.00000  Uiso   1.00
C114   C     0.83263   0.24650   0.16631   0.00000  Uiso   1.00
C115   C     0.73380   0.16710   0.15469   0.00000  Uiso   1.00
C116   C     0.93286   0.16617   0.17864   0.00000  Uiso   1.00
C117   C     0.67912   0.16172   0.14884   0.00000  Uiso   1.00
C118   C     0.98755   0.17149   0.18449   0.00000  Uiso   1.00
C119   C     0.78882   0.02077   0.14557   0.00000  Uiso   1.00
C120   C     0.87761   0.31260   0.18809   0.00000  Uiso   1.00
C121   C     0.78907   0.31078   0.14388   0.00000  Uiso   1.00
C122   C     0.87764   0.02263   0.18906   0.00000  Uiso   1.00
C123   C     0.83342   0.29072   0.16545   0.00000  Uiso   1.00
C124   C     0.83315   0.04265   0.16788   0.00000  Uiso   1.00
C125   C     0.86763   0.19174   0.02849   0.00000  Uiso   1.00
C126   C     0.79904   0.14159   0.30484   0.00000  Uiso   1.00
C127   C     0.86763   0.19175   0.31385   0.00000  Uiso   1.00
C128   C     0.79904   0.14158   0.01948   0.00000  Uiso   1.00
H129   H     0.89504   0.21175   0.05032   0.00000  Uiso   1.00
H130   H     0.77163   0.12158   0.28302   0.00000  Uiso   1.00
N131   N     0.83332   0.16666   0.28573   0.00000  Uiso   1.00
N132   N     0.83335   0.16668   0.04760   0.00000  Uiso   1.00
O133   O     0.83333   0.10558   0.20487   0.00000  Uiso   1.00
O134   O     0.83334   0.22775   0.12846   0.00000  Uiso   1.00
O135   O     0.83333   0.10559   0.12843   0.00000  Uiso   1.00
O136   O     0.83334   0.22774   0.20490   0.00000  Uiso   1.00
O137   O     0.75725   0.16666   0.19595   0.00000  Uiso   1.00
O138   O     0.90942   0.16667   0.13739   0.00000  Uiso   1.00
O139   O     0.75725   0.16667   0.11950   0.00000  Uiso   1.00
O140   O     0.90942   0.16666   0.21383   0.00000  Uiso   1.00
Zn141  Zn    0.83333   0.16666   0.21771   0.00000  Uiso   1.00
Zn142  Zn    0.83333   0.16667   0.11563   0.00000  Uiso   1.00
C143   C     0.98825   0.13844   0.10654   0.00000  Uiso   1.00
O144   O     0.99598   0.15067   0.06873   0.00000  Uiso   1.00
O145   O     0.95721   0.10246   0.11030   0.00000  Uiso   1.00
H146   H     0.94224   0.09011   0.07936   0.00000  Uiso   1.00
C147   C     0.67841   0.19482   0.22675   0.00000  Uiso   1.00
O148   O     0.67088   0.18254   0.26459   0.00000  Uiso   1.00
O149   O     0.70914   0.23096   0.22287   0.00000  Uiso   1.00
H150   H     0.72394   0.24347   0.25378   0.00000  Uiso   1.00
C151   C     0.74244   0.04323   0.12403   0.00000  Uiso   1.00
O152   O     0.72362   0.06905   0.14617   0.00000  Uiso   1.00
O153   O     0.72024   0.03448   0.07875   0.00000  Uiso   1.00
H154   H     0.68898   0.05181   0.06791   0.00000  Uiso   1.00
C155   C     0.92364   0.29021   0.21062   0.00000  Uiso   1.00
O156   O     0.94168   0.26296   0.18982   0.00000  Uiso   1.00
O157   O     0.94636   0.30056   0.25535   0.00000  Uiso   1.00
H158   H     0.97727   0.28306   0.26693   0.00000  Uiso   1.00
C159   C     0.74177   0.28662   0.12254   0.00000  Uiso   1.00
O160   O     0.74396   0.26229   0.09127   0.00000  Uiso   1.00
O161   O     0.69446   0.29280   0.13754   0.00000  Uiso   1.00
H162   H     0.99843   0.27514   0.12001   0.00000  Uiso   1.00
C163   C     0.92533   0.04697   0.20906   0.00000  Uiso   1.00
O164   O     0.96580   0.04233   0.19405   0.00000  Uiso   1.00
O165   O     0.92418   0.07423   0.24558   0.00000  Uiso   1.00
H166   H     0.95902   0.08878   0.25612   0.00000  Uiso   1.00
F167   F     0.90197   0.21693   0.29567   0.00000  Uiso   1.00
F168   F     0.76471   0.11640   0.03766   0.00000  Uiso   1.00
C169   C     0.16726   0.42017   0.16701   0.00000  Uiso   1.00
C170   C     0.16597   0.57984   0.16631   0.00000  Uiso   1.00
C171   C     0.06714   0.50043   0.15469   0.00000  Uiso   1.00
C172   C     0.26619   0.49950   0.17864   0.00000  Uiso   1.00
C173   C     0.01245   0.49505   0.14884   0.00000  Uiso   1.00
C174   C     0.32088   0.50482   0.18449   0.00000  Uiso   1.00
C175   C     0.12216   0.35410   0.14557   0.00000  Uiso   1.00
C176   C     0.21094   0.64593   0.18809   0.00000  Uiso   1.00
C177   C     0.12241   0.64411   0.14388   0.00000  Uiso   1.00
C178   C     0.21097   0.35597   0.18906   0.00000  Uiso   1.00
C179   C     0.16676   0.62405   0.16545   0.00000  Uiso   1.00
C180   C     0.16648   0.37598   0.16788   0.00000  Uiso   1.00
C181   C     0.20097   0.52507   0.02849   0.00000  Uiso   1.00
C182   C     0.13237   0.47493   0.30484   0.00000  Uiso   1.00
C183   C     0.20097   0.52508   0.31385   0.00000  Uiso   1.00
C184   C     0.13237   0.47491   0.01948   0.00000  Uiso   1.00
H185   H     0.22837   0.54509   0.05032   0.00000  Uiso   1.00
H186   H     0.10497   0.45491   0.28302   0.00000  Uiso   1.00
N187   N     0.16665   0.49999   0.28573   0.00000  Uiso   1.00
N188   N     0.16668   0.50001   0.04760   0.00000  Uiso   1.00
O189   O     0.16666   0.43892   0.20487   0.00000  Uiso   1.00
O190   O     0.16667   0.56108   0.12846   0.00000  Uiso   1.00
O191   O     0.16666   0.43893   0.12843   0.00000  Uiso   1.00
O192   O     0.16667   0.56107   0.20490   0.00000  Uiso   1.00
O193   O     0.09058   0.50000   0.19595   0.00000  Uiso   1.00
O194   O     0.24275   0.50000   0.13739   0.00000  Uiso   1.00
O195   O     0.09058   0.50000   0.11950   0.00000  Uiso   1.00
O196   O     0.24275   0.50000   0.21383   0.00000  Uiso   1.00
Zn197  Zn    0.16667   0.49999   0.21771   0.00000  Uiso   1.00
Zn198  Zn    0.16667   0.50001   0.11563   0.00000  Uiso   1.00
C199   C     0.32158   0.47177   0.10654   0.00000  Uiso   1.00
O200   O     0.32931   0.48400   0.06873   0.00000  Uiso   1.00
O201   O     0.29054   0.43580   0.11030   0.00000  Uiso   1.00
H202   H     0.27557   0.42344   0.07936   0.00000  Uiso   1.00
C203   C     0.01175   0.52816   0.22675   0.00000  Uiso   1.00
O204   O     0.00421   0.51587   0.26459   0.00000  Uiso   1.00
O205   O     0.04247   0.56429   0.22287   0.00000  Uiso   1.00
H206   H     0.05727   0.57680   0.25378   0.00000  Uiso   1.00
C207   C     0.07577   0.37656   0.12403   0.00000  Uiso   1.00
O208   O     0.05696   0.40238   0.14617   0.00000  Uiso   1.00
O209   O     0.05357   0.36781   0.07875   0.00000  Uiso   1.00
H210   H     0.02231   0.38515   0.06791   0.00000  Uiso   1.00
C211   C     0.25697   0.62354   0.21062   0.00000  Uiso   1.00
O212   O     0.27501   0.59630   0.18982   0.00000  Uiso   1.00
O213   O     0.27969   0.63390   0.25535   0.00000  Uiso   1.00
H214   H     0.31060   0.61640   0.26693   0.00000  Uiso   1.00
C215   C     0.07510   0.61995   0.12254   0.00000  Uiso   1.00
O216   O     0.07730   0.59563   0.09127   0.00000  Uiso   1.00
O217   O     0.02779   0.62614   0.13754   0.00000  Uiso   1.00
H218   H     0.33176   0.60847   0.12001   0.00000  Uiso   1.00
C219   C     0.25867   0.38030   0.20906   0.00000  Uiso   1.00
O220   O     0.29913   0.37567   0.19405   0.00000  Uiso   1.00
O221   O     0.25752   0.40756   0.24558   0.00000  Uiso   1.00
H222   H     0.29236   0.42212   0.25612   0.00000  Uiso   1.00
F223   F     0.23530   0.55026   0.29567   0.00000  Uiso   1.00
F224   F     0.09804   0.44973   0.03766   0.00000  Uiso   1.00
C225   C     0.50059   0.42017   0.16701   0.00000  Uiso   1.00
C226   C     0.49930   0.57984   0.16631   0.00000  Uiso   1.00
C227   C     0.40047   0.50043   0.15469   0.00000  Uiso   1.00
C228   C     0.59953   0.49950   0.17864   0.00000  Uiso   1.00
C229   C     0.34579   0.49505   0.14884   0.00000  Uiso   1.00
C230   C     0.65421   0.50482   0.18449   0.00000  Uiso   1.00
C231   C     0.45549   0.35410   0.14557   0.00000  Uiso   1.00
C232   C     0.54427   0.64593   0.18809   0.00000  Uiso   1.00
C233   C     0.45574   0.64411   0.14388   0.00000  Uiso   1.00
C234   C     0.54431   0.35597   0.18906   0.00000  Uiso   1.00
C235   C     0.50009   0.62405   0.16545   0.00000  Uiso   1.00
C236   C     0.49982   0.37598   0.16788   0.00000  Uiso   1.00
C237   C     0.53430   0.52507   0.02849   0.00000  Uiso   1.00
C238   C     0.46571   0.47493   0.30484   0.00000  Uiso   1.00
C239   C     0.53430   0.52508   0.31385   0.00000  Uiso   1.00
C240   C     0.46571   0.47491   0.01948   0.00000  Uiso   1.00
H241   H     0.56171   0.54509   0.05032   0.00000  Uiso   1.00
H242   H     0.43830   0.45491   0.28302   0.00000  Uiso   1.00
N243   N     0.49999   0.49999   0.28573   0.00000  Uiso   1.00
N244   N     0.50001   0.50001   0.04760   0.00000  Uiso   1.00
O245   O     0.50000   0.43892   0.20487   0.00000  Uiso   1.00
O246   O     0.50000   0.56108   0.12846   0.00000  Uiso   1.00
O247   O     0.50000   0.43893   0.12843   0.00000  Uiso   1.00
O248   O     0.50000   0.56107   0.20490   0.00000  Uiso   1.00
O249   O     0.42392   0.50000   0.19595   0.00000  Uiso   1.00
O250   O     0.57608   0.50000   0.13739   0.00000  Uiso   1.00
O251   O     0.42392   0.50000   0.11950   0.00000  Uiso   1.00
O252   O     0.57608   0.50000   0.21383   0.00000  Uiso   1.00
Zn253  Zn    0.50000   0.49999   0.21771   0.00000  Uiso   1.00
Zn254  Zn    0.50000   0.50001   0.11563   0.00000  Uiso   1.00
C255   C     0.65492   0.47177   0.10654   0.00000  Uiso   1.00
O256   O     0.66265   0.48400   0.06873   0.00000  Uiso   1.00
O257   O     0.62387   0.43580   0.11030   0.00000  Uiso   1.00
H258   H     0.60890   0.42344   0.07936   0.00000  Uiso   1.00
C259   C     0.34508   0.52816   0.22675   0.00000  Uiso   1.00
O260   O     0.33755   0.51587   0.26459   0.00000  Uiso   1.00
O261   O     0.37581   0.56429   0.22287   0.00000  Uiso   1.00
H262   H     0.39061   0.57680   0.25378   0.00000  Uiso   1.00
C263   C     0.40911   0.37656   0.12403   0.00000  Uiso   1.00
O264   O     0.39029   0.40238   0.14617   0.00000  Uiso   1.00
O265   O     0.38690   0.36781   0.07875   0.00000  Uiso   1.00
H266   H     0.35565   0.38515   0.06791   0.00000  Uiso   1.00
C267   C     0.59030   0.62354   0.21062   0.00000  Uiso   1.00
O268   O     0.60834   0.59630   0.18982   0.00000  Uiso   1.00
O269   O     0.61303   0.63390   0.25535   0.00000  Uiso   1.00
H270   H     0.64393   0.61640   0.26693   0.00000  Uiso   1.00
C271   C     0.40843   0.61995   0.12254   0.00000  Uiso   1.00
O272   O     0.41063   0.59563   0.09127   0.00000  Uiso   1.00
O273   O     0.36113   0.62614   0.13754   0.00000  Uiso   1.00
H274   H     0.66510   0.60847   0.12001   0.00000  Uiso   1.00
C275   C     0.59200   0.38030   0.20906   0.00000  Uiso   1.00
O276   O     0.63247   0.37567   0.19405   0.00000  Uiso   1.00
O277   O     0.59085   0.40756   0.24558   0.00000  Uiso   1.00
H278   H     0.62569   0.42212   0.25612   0.00000  Uiso   1.00
F279   F     0.56863   0.55026   0.29567   0.00000  Uiso   1.00
F280   F     0.43138   0.44973   0.03766   0.00000  Uiso   1.00
C281   C     0.83392   0.42017   0.16701   0.00000  Uiso   1.00
C282   C     0.83263   0.57984   0.16631   0.00000  Uiso   1.00
C283   C     0.73380   0.50043   0.15469   0.00000  Uiso   1.00
C284   C     0.93286   0.49950   0.17864   0.00000  Uiso   1.00
C285   C     0.67912   0.49505   0.14884   0.00000  Uiso   1.00
C286   C     0.98755   0.50482   0.18449   0.00000  Uiso   1.00
C287   C     0.78882   0.35410   0.14557   0.00000  Uiso   1.00
C288   C     0.87761   0.64593   0.18809   0.00000  Uiso   1.00
C289   C     0.78907   0.64411   0.14388   0.00000  Uiso   1.00
C290   C     0.87764   0.35597   0.18906   0.00000  Uiso   1.00
C291   C     0.83342   0.62405   0.16545   0.00000  Uiso   1.00
C292   C     0.83315   0.37598   0.16788   0.00000  Uiso   1.00
C293   C     0.86763   0.52507   0.02849   0.00000  Uiso   1.00
C294   C     0.79904   0.47493   0.30484   0.00000  Uiso   1.00
C295   C     0.86763   0.52508   0.31385   0.00000  Uiso   1.00
C296   C     0.79904   0.47491   0.01948   0.00000  Uiso   1.00
H297   H     0.89504   0.54509   0.05032   0.00000  Uiso   1.00
H298   H     0.77163   0.45491   0.28302   0.00000  Uiso   1.00
N299   N     0.83332   0.49999   0.28573   0.00000  Uiso   1.00
N300   N     0.83335   0.50001   0.04760   0.00000  Uiso   1.00
O301   O     0.83333   0.43892   0.20487   0.00000  Uiso   1.00
O302   O     0.83334   0.56108   0.12846   0.00000  Uiso   1.00
O303   O     0.83333   0.43893   0.12843   0.00000  Uiso   1.00
O304   O     0.83334   0.56107   0.20490   0.00000  Uiso   1.00
O305   O     0.75725   0.50000   0.19595   0.00000  Uiso   1.00
O306   O     0.90942   0.50000   0.13739   0.00000  Uiso   1.00
O307   O     0.75725   0.50000   0.11950   0.00000  Uiso   1.00
O308   O     0.90942   0.50000   0.21383   0.00000  Uiso   1.00
Zn309  Zn    0.83333   0.49999   0.21771   0.00000  Uiso   1.00
Zn310  Zn    0.83333   0.50001   0.11563   0.00000  Uiso   1.00
C311   C     0.98825   0.47177   0.10654   0.00000  Uiso   1.00
O312   O     0.99598   0.48400   0.06873   0.00000  Uiso   1.00
O313   O     0.95721   0.43580   0.11030   0.00000  Uiso   1.00
H314   H     0.94224   0.42344   0.07936   0.00000  Uiso   1.00
C315   C     0.67841   0.52816   0.22675   0.00000  Uiso   1.00
O316   O     0.67088   0.51587   0.26459   0.00000  Uiso   1.00
O317   O     0.70914   0.56429   0.22287   0.00000  Uiso   1.00
H318   H     0.72394   0.57680   0.25378   0.00000  Uiso   1.00
C319   C     0.74244   0.37656   0.12403   0.00000  Uiso   1.00
O320   O     0.72362   0.40238   0.14617   0.00000  Uiso   1.00
O321   O     0.72024   0.36781   0.07875   0.00000  Uiso   1.00
H322   H     0.68898   0.38515   0.06791   0.00000  Uiso   1.00
C323   C     0.92364   0.62354   0.21062   0.00000  Uiso   1.00
O324   O     0.94168   0.59630   0.18982   0.00000  Uiso   1.00
O325   O     0.94636   0.63390   0.25535   0.00000  Uiso   1.00
H326   H     0.97727   0.61640   0.26693   0.00000  Uiso   1.00
C327   C     0.74177   0.61995   0.12254   0.00000  Uiso   1.00
O328   O     0.74396   0.59563   0.09127   0.00000  Uiso   1.00
O329   O     0.69446   0.62614   0.13754   0.00000  Uiso   1.00
H330   H     0.99843   0.60847   0.12001   0.00000  Uiso   1.00
C331   C     0.92533   0.38030   0.20906   0.00000  Uiso   1.00
O332   O     0.96580   0.37567   0.19405   0.00000  Uiso   1.00
O333   O     0.92418   0.40756   0.24558   0.00000  Uiso   1.00
H334   H     0.95902   0.42212   0.25612   0.00000  Uiso   1.00
F335   F     0.90197   0.55026   0.29567   0.00000  Uiso   1.00
F336   F     0.76471   0.44973   0.03766   0.00000  Uiso   1.00
C337   C     0.16726   0.75351   0.16701   0.00000  Uiso   1.00
C338   C     0.16597   0.91317   0.16631   0.00000  Uiso   1.00
C339   C     0.06714   0.83376   0.15469   0.00000  Uiso   1.00
C340   C     0.26619   0.83284   0.17864   0.00000  Uiso   1.00
C341   C     0.01245   0.82838   0.14884   0.00000  Uiso   1.00
C342   C     0.32088   0.83815   0.18449   0.00000  Uiso   1.00
C343   C     0.12216   0.68744   0.14557   0.00000  Uiso   1.00
C344   C     0.21094   0.97927   0.18809   0.00000  Uiso   1.00
C345   C     0.12241   0.97744   0.14388   0.00000  Uiso   1.00
C346   C     0.21097   0.68930   0.18906   0.00000  Uiso   1.00
C347   C     0.16676   0.95738   0.16545   0.00000  Uiso   1.00
C348   C     0.16648   0.70931   0.16788   0.00000  Uiso   1.00
C349   C     0.20097   0.85840   0.02849   0.00000  Uiso   1.00
C350   C     0.13237   0.80826   0.30484   0.00000  Uiso   1.00
C351   C     0.20097   0.85842   0.31385   0.00000  Uiso   1.00
C352   C     0.13237   0.80824   0.01948   0.00000  Uiso   1.00
H353   H     0.22837   0.87842   0.05032   0.00000  Uiso   1.00
H354   H     0.10497   0.78824   0.28302   0.00000  Uiso   1.00
N355   N     0.16665   0.83332   0.28573   0.00000  Uiso   1.00
N356   N     0.16668   0.83334   0.04760   0.00000  Uiso   1.00
O357   O     0.16666   0.77225   0.20487   0.00000  Uiso   1.00
O358   O     0.16667   0.89442   0.12846   0.00000  Uiso   1.00
O359   O     0.16666   0.77226   0.12843   0.00000  Uiso   1.00
O360   O     0.16667   0.89441   0.20490   0.00000  Uiso   1.00
O361   O     0.09058   0.83333   0.19595   0.00000  Uiso   1.00
O362   O     0.24275   0.83334   0.13739   0.00000  Uiso   1.00
O363   O     0.09058   0.83334   0.11950   0.00000  Uiso   1.00
O364   O     0.24275   0.83333   0.21383   0.00000  Uiso   1.00
Zn365  Zn    0.16667   0.83333   0.21771   0.00000  Uiso   1.00
Zn366  Zn    0.16667   0.83334   0.11563   0.00000  Uiso   1.00
C367   C     0.32158   0.80510   0.10654   0.00000  Uiso   1.00
O368   O     0.32931   0.81734   0.06873   0.00000  Uiso   1.00
O369   O     0.29054   0.76913   0.11030   0.00000  Uiso   1.00
H370   H     0.27557   0.75678   0.07936   0.00000  Uiso   1.00
C371   C     0.01175   0.86149   0.22675   0.00000  Uiso   1.00
O372   O     0.00421   0.84921   0.26459   0.00000  Uiso   1.00
O373   O     0.04247   0.89763   0.22287   0.00000  Uiso   1.00
H374   H     0.05727   0.91014   0.25378   0.00000  Uiso   1.00
C375   C     0.07577   0.70990   0.12403   0.00000  Uiso   1.00
O376   O     0.05696   0.73571   0.14617   0.00000  Uiso   1.00
O377   O     0.05357   0.70114   0.07875   0.00000  Uiso   1.00
H378   H     0.02231   0.71848   0.06791   0.00000  Uiso   1.00
C379   C     0.25697   0.95687   0.21062   0.00000  Uiso   1.00
O380   O     0.27501   0.92963   0.18982   0.00000  Uiso   1.00
O381   O     0.27969   0.96723   0.25535   0.00000  Uiso   1.00
H382   H     0.31060   0.94973   0.26693   0.00000  Uiso   1.00
C383   C     0.07510   0.95329   0.12254   0.00000  Uiso   1.00
O384   O     0.07730   0.92896   0.09127   0.00000  Uiso   1.00
O385   O     0.02779   0.95947   0.13754   0.00000  Uiso   1.00
H386   H     0.33176   0.94181   0.12001   0.00000  Uiso   1.00
C387   C     0.25867   0.71364   0.20906   0.00000  Uiso   1.00
O388   O     0.29913   0.70900   0.19405   0.00000  Uiso   1.00
O389   O     0.25752   0.74090   0.24558   0.00000  Uiso   1.00
H390   H     0.29236   0.75545   0.25612   0.00000  Uiso   1.00
F391   F     0.23530   0.88359   0.29567   0.00000  Uiso   1.00
F392   F     0.09804   0.78306   0.03766   0.00000  Uiso   1.00
C393   C     0.50059   0.75351   0.16701   0.00000  Uiso   1.00
C394   C     0.49930   0.91317   0.16631   0.00000  Uiso   1.00
C395   C     0.40047   0.83376   0.15469   0.00000  Uiso   1.00
C396   C     0.59953   0.83284   0.17864   0.00000  Uiso   1.00
C397   C     0.34579   0.82838   0.14884   0.00000  Uiso   1.00
C398   C     0.65421   0.83815   0.18449   0.00000  Uiso   1.00
C399   C     0.45549   0.68744   0.14557   0.00000  Uiso   1.00
C400   C     0.54427   0.97927   0.18809   0.00000  Uiso   1.00
C401   C     0.45574   0.97744   0.14388   0.00000  Uiso   1.00
C402   C     0.54431   0.68930   0.18906   0.00000  Uiso   1.00
C403   C     0.50009   0.95738   0.16545   0.00000  Uiso   1.00
C404   C     0.49982   0.70931   0.16788   0.00000  Uiso   1.00
C405   C     0.53430   0.85840   0.02849   0.00000  Uiso   1.00
C406   C     0.46571   0.80826   0.30484   0.00000  Uiso   1.00
C407   C     0.53430   0.85842   0.31385   0.00000  Uiso   1.00
C408   C     0.46571   0.80824   0.01948   0.00000  Uiso   1.00
H409   H     0.56171   0.87842   0.05032   0.00000  Uiso   1.00
H410   H     0.43830   0.78824   0.28302   0.00000  Uiso   1.00
N411   N     0.49999   0.83332   0.28573   0.00000  Uiso   1.00
N412   N     0.50001   0.83334   0.04760   0.00000  Uiso   1.00
O413   O     0.50000   0.77225   0.20487   0.00000  Uiso   1.00
O414   O     0.50000   0.89442   0.12846   0.00000  Uiso   1.00
O415   O     0.50000   0.77226   0.12843   0.00000  Uiso   1.00
O416   O     0.50000   0.89441   0.20490   0.00000  Uiso   1.00
O417   O     0.42392   0.83333   0.19595   0.00000  Uiso   1.00
O418   O     0.57608   0.83334   0.13739   0.00000  Uiso   1.00
O419   O     0.42392   0.83334   0.11950   0.00000  Uiso   1.00
O420   O     0.57608   0.83333   0.21383   0.00000  Uiso   1.00
Zn421  Zn    0.50000   0.83333   0.21771   0.00000  Uiso   1.00
Zn422  Zn    0.50000   0.83334   0.11563   0.00000  Uiso   1.00
C423   C     0.65492   0.80510   0.10654   0.00000  Uiso   1.00
O424   O     0.66265   0.81734   0.06873   0.00000  Uiso   1.00
O425   O     0.62387   0.76913   0.11030   0.00000  Uiso   1.00
H426   H     0.60890   0.75678   0.07936   0.00000  Uiso   1.00
C427   C     0.34508   0.86149   0.22675   0.00000  Uiso   1.00
O428   O     0.33755   0.84921   0.26459   0.00000  Uiso   1.00
O429   O     0.37581   0.89763   0.22287   0.00000  Uiso   1.00
H430   H     0.39061   0.91014   0.25378   0.00000  Uiso   1.00
C431   C     0.40911   0.70990   0.12403   0.00000  Uiso   1.00
O432   O     0.39029   0.73571   0.14617   0.00000  Uiso   1.00
O433   O     0.38690   0.70114   0.07875   0.00000  Uiso   1.00
H434   H     0.35565   0.71848   0.06791   0.00000  Uiso   1.00
C435   C     0.59030   0.95687   0.21062   0.00000  Uiso   1.00
O436   O     0.60834   0.92963   0.18982   0.00000  Uiso   1.00
O437   O     0.61303   0.96723   0.25535   0.00000  Uiso   1.00
H438   H     0.64393   0.94973   0.26693   0.00000  Uiso   1.00
C439   C     0.40843   0.95329   0.12254   0.00000  Uiso   1.00
O440   O     0.41063   0.92896   0.09127   0.00000  Uiso   1.00
O441   O     0.36113   0.95947   0.13754   0.00000  Uiso   1.00
H442   H     0.66510   0.94181   0.12001   0.00000  Uiso   1.00
C443   C     0.59200   0.71364   0.20906   0.00000  Uiso   1.00
O444   O     0.63247   0.70900   0.19405   0.00000  Uiso   1.00
O445   O     0.59085   0.74090   0.24558   0.00000  Uiso   1.00
H446   H     0.62569   0.75545   0.25612   0.00000  Uiso   1.00
F447   F     0.56863   0.88359   0.29567   0.00000  Uiso   1.00
F448   F     0.43138   0.78306   0.03766   0.00000  Uiso   1.00
C449   C     0.83392   0.75351   0.16701   0.00000  Uiso   1.00
C450   C     0.83263   0.91317   0.16631   0.00000  Uiso   1.00
C451   C     0.73380   0.83376   0.15469   0.00000  Uiso   1.00
C452   C     0.93286   0.83284   0.17864   0.00000  Uiso   1.00
C453   C     0.67912   0.82838   0.14884   0.00000  Uiso   1.00
C454   C     0.98755   0.83815   0.18449   0.00000  Uiso   1.00
C455   C     0.78882   0.68744   0.14557   0.00000  Uiso   1.00
C456   C     0.87761   0.97927   0.18809   0.00000  Uiso   1.00
C457   C     0.78907   0.97744   0.14388   0.00000  Uiso   1.00
C458   C     0.87764   0.68930   0.18906   0.00000  Uiso   1.00
C459   C     0.83342   0.95738   0.16545   0.00000  Uiso   1.00
C460   C     0.83315   0.70931   0.16788   0.00000  Uiso   1.00
C461   C     0.86763   0.85840   0.02849   0.00000  Uiso   1.00
C462   C     0.79904   0.80826   0.30484   0.00000  Uiso   1.00
C463   C     0.86763   0.85842   0.31385   0.00000  Uiso   1.00
C464   C     0.79904   0.80824   0.01948   0.00000  Uiso   1.00
H465   H     0.89504   0.87842   0.05032   0.00000  Uiso   1.00
H466   H     0.77163   0.78824   0.28302   0.00000  Uiso   1.00
N467   N     0.83332   0.83332   0.28573   0.00000  Uiso   1.00
N468   N     0.83335   0.83334   0.04760   0.00000  Uiso   1.00
O469   O     0.83333   0.77225   0.20487   0.00000  Uiso   1.00
O470   O     0.83334   0.89442   0.12846   0.00000  Uiso   1.00
O471   O     0.83333   0.77226   0.12843   0.00000  Uiso   1.00
O472   O     0.83334   0.89441   0.20490   0.00000  Uiso   1.00
O473   O     0.75725   0.83333   0.19595   0.00000  Uiso   1.00
O474   O     0.90942   0.83334   0.13739   0.00000  Uiso   1.00
O475   O     0.75725   0.83334   0.11950   0.00000  Uiso   1.00
O476   O     0.90942   0.83333   0.21383   0.00000  Uiso   1.00
Zn477  Zn    0.83333   0.83333   0.21771   0.00000  Uiso   1.00
Zn478  Zn    0.83333   0.83334   0.11563   0.00000  Uiso   1.00
C479   C     0.98825   0.80510   0.10654   0.00000  Uiso   1.00
O480   O     0.99598   0.81734   0.06873   0.00000  Uiso   1.00
O481   O     0.95721   0.76913   0.11030   0.00000  Uiso   1.00
H482   H     0.94224   0.75678   0.07936   0.00000  Uiso   1.00
C483   C     0.67841   0.86149   0.22675   0.00000  Uiso   1.00
O484   O     0.67088   0.84921   0.26459   0.00000  Uiso   1.00
O485   O     0.70914   0.89763   0.22287   0.00000  Uiso   1.00
H486   H     0.72394   0.91014   0.25378   0.00000  Uiso   1.00
C487   C     0.74244   0.70990   0.12403   0.00000  Uiso   1.00
O488   O     0.72362   0.73571   0.14617   0.00000  Uiso   1.00
O489   O     0.72024   0.70114   0.07875   0.00000  Uiso   1.00
H490   H     0.68898   0.71848   0.06791   0.00000  Uiso   1.00
C491   C     0.92364   0.95687   0.21062   0.00000  Uiso   1.00
O492   O     0.94168   0.92963   0.18982   0.00000  Uiso   1.00
O493   O     0.94636   0.96723   0.25535   0.00000  Uiso   1.00
H494   H     0.97727   0.94973   0.26693   0.00000  Uiso   1.00
C495   C     0.74177   0.95329   0.12254   0.00000  Uiso   1.00
O496   O     0.74396   0.92896   0.09127   0.00000  Uiso   1.00
O497   O     0.69446   0.95947   0.13754   0.00000  Uiso   1.00
H498   H     0.99843   0.94181   0.12001   0.00000  Uiso   1.00
C499   C     0.92533   0.71364   0.20906   0.00000  Uiso   1.00
O500   O     0.96580   0.70900   0.19405   0.00000  Uiso   1.00
O501   O     0.92418   0.74090   0.24558   0.00000  Uiso   1.00
H502   H     0.95902   0.75545   0.25612   0.00000  Uiso   1.00
F503   F     0.90197   0.88359   0.29567   0.00000  Uiso   1.00
F504   F     0.76471   0.78306   0.03766   0.00000  Uiso   1.00
C505   C     0.16726   0.08684   0.50034   0.00000  Uiso   1.00
C506   C     0.16597   0.24650   0.49965   0.00000  Uiso   1.00
C507   C     0.06714   0.16710   0.48802   0.00000  Uiso   1.00
C508   C     0.26619   0.16617   0.51197   0.00000  Uiso   1.00
C509   C     0.01245   0.16172   0.48217   0.00000  Uiso   1.00
C510   C     0.32088   0.17149   0.51783   0.00000  Uiso   1.00
C511   C     0.12216   0.02077   0.47891   0.00000  Uiso   1.00
C512   C     0.21094   0.31260   0.52142   0.00000  Uiso   1.00
C513   C     0.12241   0.31078   0.47721   0.00000  Uiso   1.00
C514   C     0.21097   0.02263   0.52239   0.00000  Uiso   1.00
C515   C     0.16676   0.29072   0.49879   0.00000  Uiso   1.00
C516   C     0.16648   0.04265   0.50121   0.00000  Uiso   1.00
C517   C     0.20097   0.19174   0.36183   0.00000  Uiso   1.00
C518   C     0.13237   0.14159   0.63818   0.00000  Uiso   1.00
C519   C     0.20097   0.19175   0.64718   0.00000  Uiso   1.00
C520   C     0.13237   0.14158   0.35282   0.00000  Uiso   1.00
H521   H     0.22837   0.21175   0.38365   0.00000  Uiso   1.00
H522   H     0.10497   0.12158   0.61635   0.00000  Uiso   1.00
N523   N     0.16665   0.16666   0.61907   0.00000  Uiso   1.00
N524   N     0.16668   0.16668   0.38093   0.00000  Uiso   1.00
O525   O     0.16666   0.10558   0.53821   0.00000  Uiso   1.00
O526   O     0.16667   0.22775   0.46179   0.00000  Uiso   1.00
O527   O     0.16666   0.10559   0.46176   0.00000  Uiso   1.00
O528   O     0.16667   0.22774   0.53824   0.00000  Uiso   1.00
O529   O     0.09058   0.16666   0.52928   0.00000  Uiso   1.00
O530   O     0.24275   0.16667   0.47072   0.00000  Uiso   1.00
O531   O     0.09058   0.16667   0.45284   0.00000  Uiso   1.00
O532   O     0.24275   0.16666   0.54716   0.00000  Uiso   1.00
Zn533  Zn    0.16667   0.16666   0.55104   0.00000  Uiso   1.00
Zn534  Zn    0.16667   0.16667   0.44896   0.00000  Uiso   1.00
C535   C     0.32158   0.13844   0.43987   0.00000  Uiso   1.00
O536   O     0.32931   0.15067   0.40206   0.00000  Uiso   1.00
O537   O     0.29054   0.10246   0.44363   0.00000  Uiso   1.00
H538   H     0.27557   0.09011   0.41269   0.00000  Uiso   1.00
C539   C     0.01175   0.19482   0.56008   0.00000  Uiso   1.00
O540   O     0.00421   0.18254   0.59792   0.00000  Uiso   1.00
O541   O     0.04247   0.23096   0.55621   0.00000  Uiso   1.00
H542   H     0.05727   0.24347   0.58711   0.00000  Uiso   1.00
C543   C     0.07577   0.04323   0.45737   0.00000  Uiso   1.00
O544   O     0.05696   0.06905   0.47951   0.00000  Uiso   1.00
O545   O     0.05357   0.03448   0.41209   0.00000  Uiso   1.00
H546   H     0.02231   0.05181   0.40125   0.00000  Uiso   1.00
C547   C     0.25697   0.29021   0.54396   0.00000  Uiso   1.00
O548   O     0.27501   0.26296   0.52316   0.00000  Uiso   1.00
O549   O     0.27969   0.30056   0.58869   0.00000  Uiso   1.00
H550   H     0.31060   0.28306   0.60026   0.00000  Uiso   1.00
C551   C     0.07510   0.28662   0.45588   0.00000  Uiso   1.00
O552   O     0.07730   0.26229   0.42460   0.00000  Uiso   1.00
O553   O     0.02779   0.29280   0.47087   0.00000  Uiso   1.00
H554   H     0.33176   0.27514   0.45334   0.00000  Uiso   1.00
C555   C     0.25867   0.04697   0.54240   0.00000  Uiso   1.00
O556   O     0.29913   0.04233   0.52738   0.00000  Uiso   1.00
O557   O     0.25752   0.07423   0.57892   0.00000  Uiso   1.00
H558   H     0.29236   0.08878   0.58945   0.00000  Uiso   1.00
F559   F     0.23530   0.21693   0.62901   0.00000  Uiso   1.00
F560   F     0.09804   0.11640   0.37099   0.00000  Uiso   1.00
C561   C     0.50059   0.08684   0.50034   0.00000  Uiso   1.00
C562   C     0.49930   0.24650   0.49965   0.00000  Uiso   1.00
C563   C     0.40047   0.16710   0.48802   0.00000  Uiso   1.00
C564   C     0.59953   0.16617   0.51197   0.00000  Uiso   1.00
C565   C     0.34579   0.16172   0.48217   0.00000  Uiso   1.00
C566   C     0.65421   0.17149   0.51783   0.00000  Uiso   1.00
C567   C     0.45549   0.02077   0.47891   0.00000  Uiso   1.00
C568   C     0.54427   0.31260   0.52142   0.00000  Uiso   1.00
C569   C     0.45574   0.31078   0.47721   0.00000  Uiso   1.00
C570   C     0.54431   0.02263   0.52239   0.00000  Uiso   1.00
C571   C     0.50009   0.29072   0.49879   0.00000  Uiso   1.00
C572   C     0.49982   0.04265   0.50121   0.00000  Uiso   1.00
C573   C     0.53430   0.19174   0.36183   0.00000  Uiso   1.00
C574   C     0.46571   0.14159   0.63818   0.00000  Uiso   1.00
C575   C     0.53430   0.19175   0.64718   0.00000  Uiso   1.00
C576   C     0.46571   0.14158   0.35282   0.00000  Uiso   1.00
H577   H     0.56171   0.21175   0.38365   0.00000  Uiso   1.00
H578   H     0.43830   0.12158   0.61635   0.00000  Uiso   1.00
N579   N     0.49999   0.16666   0.61907   0.00000  Uiso   1.00
N580   N     0.50001   0.16668   0.38093   0.00000  Uiso   1.00
O581   O     0.50000   0.10558   0.53821   0.00000  Uiso   1.00
O582   O     0.50000   0.22775   0.46179   0.00000  Uiso   1.00
O583   O     0.50000   0.10559   0.46176   0.00000  Uiso   1.00
O584   O     0.50000   0.22774   0.53824   0.00000  Uiso   1.00
O585   O     0.42392   0.16666   0.52928   0.00000  Uiso   1.00
O586   O     0.57608   0.16667   0.47072   0.00000  Uiso   1.00
O587   O     0.42392   0.16667   0.45284   0.00000  Uiso   1.00
O588   O     0.57608   0.16666   0.54716   0.00000  Uiso   1.00
Zn589  Zn    0.50000   0.16666   0.55104   0.00000  Uiso   1.00
Zn590  Zn    0.50000   0.16667   0.44896   0.00000  Uiso   1.00
C591   C     0.65492   0.13844   0.43987   0.00000  Uiso   1.00
O592   O     0.66265   0.15067   0.40206   0.00000  Uiso   1.00
O593   O     0.62387   0.10246   0.44363   0.00000  Uiso   1.00
H594   H     0.60890   0.09011   0.41269   0.00000  Uiso   1.00
C595   C     0.34508   0.19482   0.56008   0.00000  Uiso   1.00
O596   O     0.33755   0.18254   0.59792   0.00000  Uiso   1.00
O597   O     0.37581   0.23096   0.55621   0.00000  Uiso   1.00
H598   H     0.39061   0.24347   0.58711   0.00000  Uiso   1.00
C599   C     0.40911   0.04323   0.45737   0.00000  Uiso   1.00
O600   O     0.39029   0.06905   0.47951   0.00000  Uiso   1.00
O601   O     0.38690   0.03448   0.41209   0.00000  Uiso   1.00
H602   H     0.35565   0.05181   0.40125   0.00000  Uiso   1.00
C603   C     0.59030   0.29021   0.54396   0.00000  Uiso   1.00
O604   O     0.60834   0.26296   0.52316   0.00000  Uiso   1.00
O605   O     0.61303   0.30056   0.58869   0.00000  Uiso   1.00
H606   H     0.64393   0.28306   0.60026   0.00000  Uiso   1.00
C607   C     0.40843   0.28662   0.45588   0.00000  Uiso   1.00
O608   O     0.41063   0.26229   0.42460   0.00000  Uiso   1.00
O609   O     0.36113   0.29280   0.47087   0.00000  Uiso   1.00
H610   H     0.66510   0.27514   0.45334   0.00000  Uiso   1.00
C611   C     0.59200   0.04697   0.54240   0.00000  Uiso   1.00
O612   O     0.63247   0.04233   0.52738   0.00000  Uiso   1.00
O613   O     0.59085   0.07423   0.57892   0.00000  Uiso   1.00
H614   H     0.62569   0.08878   0.58945   0.00000  Uiso   1.00
F615   F     0.56863   0.21693   0.62901   0.00000  Uiso   1.00
F616   F     0.43138   0.11640   0.37099   0.00000  Uiso   1.00
C617   C     0.83392   0.08684   0.50034   0.00000  Uiso   1.00
C618   C     0.83263   0.24650   0.49965   0.00000  Uiso   1.00
C619   C     0.73380   0.16710   0.48802   0.00000  Uiso   1.00
C620   C     0.93286   0.16617   0.51197   0.00000  Uiso   1.00
C621   C     0.67912   0.16172   0.48217   0.00000  Uiso   1.00
C622   C     0.98755   0.17149   0.51783   0.00000  Uiso   1.00
C623   C     0.78882   0.02077   0.47891   0.00000  Uiso   1.00
C624   C     0.87761   0.31260   0.52142   0.00000  Uiso   1.00
C625   C     0.78907   0.31078   0.47721   0.00000  Uiso   1.00
C626   C     0.87764   0.02263   0.52239   0.00000  Uiso   1.00
C627   C     0.83342   0.29072   0.49879   0.00000  Uiso   1.00
C628   C     0.83315   0.04265   0.50121   0.00000  Uiso   1.00
C629   C     0.86763   0.19174   0.36183   0.00000  Uiso   1.00
C630   C     0.79904   0.14159   0.63818   0.00000  Uiso   1.00
C631   C     0.86763   0.19175   0.64718   0.00000  Uiso   1.00
C632   C     0.79904   0.14158   0.35282   0.00000  Uiso   1.00
H633   H     0.89504   0.21175   0.38365   0.00000  Uiso   1.00
H634   H     0.77163   0.12158   0.61635   0.00000  Uiso   1.00
N635   N     0.83332   0.16666   0.61907   0.00000  Uiso   1.00
N636   N     0.83335   0.16668   0.38093   0.00000  Uiso   1.00
O637   O     0.83333   0.10558   0.53821   0.00000  Uiso   1.00
O638   O     0.83334   0.22775   0.46179   0.00000  Uiso   1.00
O639   O     0.83333   0.10559   0.46176   0.00000  Uiso   1.00
O640   O     0.83334   0.22774   0.53824   0.00000  Uiso   1.00
O641   O     0.75725   0.16666   0.52928   0.00000  Uiso   1.00
O642   O     0.90942   0.16667   0.47072   0.00000  Uiso   1.00
O643   O     0.75725   0.16667   0.45284   0.00000  Uiso   1.00
O644   O     0.90942   0.16666   0.54716   0.00000  Uiso   1.00
Zn645  Zn    0.83333   0.16666   0.55104   0.00000  Uiso   1.00
Zn646  Zn    0.83333   0.16667   0.44896   0.00000  Uiso   1.00
C647   C     0.98825   0.13844   0.43987   0.00000  Uiso   1.00
O648   O     0.99598   0.15067   0.40206   0.00000  Uiso   1.00
O649   O     0.95721   0.10246   0.44363   0.00000  Uiso   1.00
H650   H     0.94224   0.09011   0.41269   0.00000  Uiso   1.00
C651   C     0.67841   0.19482   0.56008   0.00000  Uiso   1.00
O652   O     0.67088   0.18254   0.59792   0.00000  Uiso   1.00
O653   O     0.70914   0.23096   0.55621   0.00000  Uiso   1.00
H654   H     0.72394   0.24347   0.58711   0.00000  Uiso   1.00
C655   C     0.74244   0.04323   0.45737   0.00000  Uiso   1.00
O656   O     0.72362   0.06905   0.47951   0.00000  Uiso   1.00
O657   O     0.72024   0.03448   0.41209   0.00000  Uiso   1.00
H658   H     0.68898   0.05181   0.40125   0.00000  Uiso   1.00
C659   C     0.92364   0.29021   0.54396   0.00000  Uiso   1.00
O660   O     0.94168   0.26296   0.52316   0.00000  Uiso   1.00
O661   O     0.94636   0.30056   0.58869   0.00000  Uiso   1.00
H662   H     0.97727   0.28306   0.60026   0.00000  Uiso   1.00
C663   C     0.74177   0.28662   0.45588   0.00000  Uiso   1.00
O664   O     0.74396   0.26229   0.42460   0.00000  Uiso   1.00
O665   O     0.69446   0.29280   0.47087   0.00000  Uiso   1.00
H666   H     0.99843   0.27514   0.45334   0.00000  Uiso   1.00
C667   C     0.92533   0.04697   0.54240   0.00000  Uiso   1.00
O668   O     0.96580   0.04233   0.52738   0.00000  Uiso   1.00
O669   O     0.92418   0.07423   0.57892   0.00000  Uiso   1.00
H670   H     0.95902   0.08878   0.58945   0.00000  Uiso   1.00
F671   F     0.90197   0.21693   0.62901   0.00000  Uiso   1.00
F672   F     0.76471   0.11640   0.37099   0.00000  Uiso   1.00
C673   C     0.16726   0.42017   0.50034   0.00000  Uiso   1.00
C674   C     0.16597   0.57984   0.49965   0.00000  Uiso   1.00
C675   C     0.06714   0.50043   0.48802   0.00000  Uiso   1.00
C676   C     0.26619   0.49950   0.51197   0.00000  Uiso   1.00
C677   C     0.01245   0.49505   0.48217   0.00000  Uiso   1.00
C678   C     0.32088   0.50482   0.51783   0.00000  Uiso   1.00
C679   C     0.12216   0.35410   0.47891   0.00000  Uiso   1.00
C680   C     0.21094   0.64593   0.52142   0.00000  Uiso   1.00
C681   C     0.12241   0.64411   0.47721   0.00000  Uiso   1.00
C682   C     0.21097   0.35597   0.52239   0.00000  Uiso   1.00
C683   C     0.16676   0.62405   0.49879   0.00000  Uiso   1.00
C684   C     0.16648   0.37598   0.50121   0.00000  Uiso   1.00
C685   C     0.20097   0.52507   0.36183   0.00000  Uiso   1.00
C686   C     0.13237   0.47493   0.63818   0.00000  Uiso   1.00
C687   C     0.20097   0.52508   0.64718   0.00000  Uiso   1.00
C688   C     0.13237   0.47491   0.35282   0.00000  Uiso   1.00
H689   H     0.22837   0.54509   0.38365   0.00000  Uiso   1.00
H690   H     0.10497   0.45491   0.61635   0.00000  Uiso   1.00
N691   N     0.16665   0.49999   0.61907   0.00000  Uiso   1.00
N692   N     0.16668   0.50001   0.38093   0.00000  Uiso   1.00
O693   O     0.16666   0.43892   0.53821   0.00000  Uiso   1.00
O694   O     0.16667   0.56108   0.46179   0.00000  Uiso   1.00
O695   O     0.16666   0.43893   0.46176   0.00000  Uiso   1.00
O696   O     0.16667   0.56107   0.53824   0.00000  Uiso   1.00
O697   O     0.09058   0.50000   0.52928   0.00000  Uiso   1.00
O698   O     0.24275   0.50000   0.47072   0.00000  Uiso   1.00
O699   O     0.09058   0.50000   0.45284   0.00000  Uiso   1.00
O700   O     0.24275   0.50000   0.54716   0.00000  Uiso   1.00
Zn701  Zn    0.16667   0.49999   0.55104   0.00000  Uiso   1.00
Zn702  Zn    0.16667   0.50001   0.44896   0.00000  Uiso   1.00
C703   C     0.32158   0.47177   0.43987   0.00000  Uiso   1.00
O704   O     0.32931   0.48400   0.40206   0.00000  Uiso   1.00
O705   O     0.29054   0.43580   0.44363   0.00000  Uiso   1.00
H706   H     0.27557   0.42344   0.41269   0.00000  Uiso   1.00
C707   C     0.01175   0.52816   0.56008   0.00000  Uiso   1.00
O708   O     0.00421   0.51587   0.59792   0.00000  Uiso   1.00
O709   O     0.04247   0.56429   0.55621   0.00000  Uiso   1.00
H710   H     0.05727   0.57680   0.58711   0.00000  Uiso   1.00
C711   C     0.07577   0.37656   0.45737   0.00000  Uiso   1.00
O712   O     0.05696   0.40238   0.47951   0.00000  Uiso   1.00
O713   O     0.05357   0.36781   0.41209   0.00000  Uiso   1.00
H714   H     0.02231   0.38515   0.40125   0.00000  Uiso   1.00
C715   C     0.25697   0.62354   0.54396   0.00000  Uiso   1.00
O716   O     0.27501   0.59630   0.52316   0.00000  Uiso   1.00
O717   O     0.27969   0.63390   0.58869   0.00000  Uiso   1.00
H718   H     0.31060   0.61640   0.60026   0.00000  Uiso   1.00
C719   C     0.07510   0.61995   0.45588   0.00000  Uiso   1.00
O720   O     0.07730   0.59563   0.42460   0.00000  Uiso   1.00
O721   O     0.02779   0.62614   0.47087   0.00000  Uiso   1.00
H722   H     0.33176   0.60847   0.45334   0.00000  Uiso   1.00
C723   C     0.25867   0.38030   0.54240   0.00000  Uiso   1.00
O724   O     0.29913   0.37567   0.52738   0.00000  Uiso   1.00
O725   O     0.25752   0.40756   0.57892   0.00000  Uiso   1.00
H726   H     0.29236   0.42212   0.58945   0.00000  Uiso   1.00
F727   F     0.23530   0.55026   0.62901   0.00000  Uiso   1.00
F728   F     0.09804   0.44973   0.37099   0.00000  Uiso   1.00
C729   C     0.50059   0.42017   0.50034   0.00000  Uiso   1.00
C730   C     0.49930   0.57984   0.49965   0.00000  Uiso   1.00
C731   C     0.40047   0.50043   0.48802   0.00000  Uiso   1.00
C732   C     0.59953   0.49950   0.51197   0.00000  Uiso   1.00
C733   C     0.34579   0.49505   0.48217   0.00000  Uiso   1.00
C734   C     0.65421   0.50482   0.51783   0.00000  Uiso   1.00
C735   C     0.45549   0.35410   0.47891   0.00000  Uiso   1.00
C736   C     0.54427   0.64593   0.52142   0.00000  Uiso   1.00
C737   C     0.45574   0.64411   0.47721   0.00000  Uiso   1.00
C738   C     0.54431   0.35597   0.52239   0.00000  Uiso   1.00
C739   C     0.50009   0.62405   0.49879   0.00000  Uiso   1.00
C740   C     0.49982   0.37598   0.50121   0.00000  Uiso   1.00
C741   C     0.53430   0.52507   0.36183   0.00000  Uiso   1.00
C742   C     0.46571   0.47493   0.63818   0.00000  Uiso   1.00
C743   C     0.53430   0.52508   0.64718   0.00000  Uiso   1.00
C744   C     0.46571   0.47491   0.35282   0.00000  Uiso   1.00
H745   H     0.56171   0.54509   0.38365   0.00000  Uiso   1.00
H746   H     0.43830   0.45491   0.61635   0.00000  Uiso   1.00
N747   N     0.49999   0.49999   0.61907   0.00000  Uiso   1.00
N748   N     0.50001   0.50001   0.38093   0.00000  Uiso   1.00
O749   O     0.50000   0.43892   0.53821   0.00000  Uiso   1.00
O750   O     0.50000   0.56108   0.46179   0.00000  Uiso   1.00
O751   O     0.50000   0.43893   0.46176   0.00000  Uiso   1.00
O752   O     0.50000   0.56107   0.53824   0.00000  Uiso   1.00
O753   O     0.42392   0.50000   0.52928   0.00000  Uiso   1.00
O754   O     0.57608   0.50000   0.47072   0.00000  Uiso   1.00
O755   O     0.42392   0.50000   0.45284   0.00000  Uiso   1.00
O756   O     0.57608   0.50000   0.54716   0.00000  Uiso   1.00
Zn757  Zn    0.50000   0.49999   0.55104   0.00000  Uiso   1.00
Zn758  Zn    0.50000   0.50001   0.44896   0.00000  Uiso   1.00
C759   C     0.65492   0.47177   0.43987   0.00000  Uiso   1.00
O760   O     0.66265   0.48400   0.40206   0.00000  Uiso   1.00
O761   O     0.62387   0.43580   0.44363   0.00000  Uiso   1.00
H762   H     0.60890   0.42344   0.41269   0.00000  Uiso   1.00
C763   C     0.34508   0.52816   0.56008   0.00000  Uiso   1.00
O764   O     0.33755   0.51587   0.59792   0.00000  Uiso   1.00
O765   O     0.37581   0.56429   0.55621   0.00000  Uiso   1.00
H766   H     0.39061   0.57680   0.58711   0.00000  Uiso   1.00
C767   C     0.40911   0.37656   0.45737   0.00000  Uiso   1.00
O768   O     0.39029   0.40238   0.47951   0.00000  Uiso   1.00
O769   O     0.38690   0.36781   0.41209   0.00000  Uiso   1.00
H770   H     0.35565   0.38515   0.40125   0.00000  Uiso   1.00
C771   C     0.59030   0.62354   0.54396   0.00000  Uiso   1.00
O772   O     0.60834   0.59630   0.52316   0.00000  Uiso   1.00
O773   O     0.61303   0.63390   0.58869   0.00000  Uiso   1.00
H774   H     0.64393   0.61640   0.60026   0.00000  Uiso   1.00
C775   C     0.40843   0.61995   0.45588   0.00000  Uiso   1.00
O776   O     0.41063   0.59563   0.42460   0.00000  Uiso   1.00
O777   O     0.36113   0.62614   0.47087   0.00000  Uiso   1.00
H778   H     0.66510   0.60847   0.45334   0.00000  Uiso   1.00
C779   C     0.59200   0.38030   0.54240   0.00000  Uiso   1.00
O780   O     0.63247   0.37567   0.52738   0.00000  Uiso   1.00
O781   O     0.59085   0.40756   0.57892   0.00000  Uiso   1.00
H782   H     0.62569   0.42212   0.58945   0.00000  Uiso   1.00
F783   F     0.56863   0.55026   0.62901   0.00000  Uiso   1.00
F784   F     0.43138   0.44973   0.37099   0.00000  Uiso   1.00
C785   C     0.83392   0.42017   0.50034   0.00000  Uiso   1.00
C786   C     0.83263   0.57984   0.49965   0.00000  Uiso   1.00
C787   C     0.73380   0.50043   0.48802   0.00000  Uiso   1.00
C788   C     0.93286   0.49950   0.51197   0.00000  Uiso   1.00
C789   C     0.67912   0.49505   0.48217   0.00000  Uiso   1.00
C790   C     0.98755   0.50482   0.51783   0.00000  Uiso   1.00
C791   C     0.78882   0.35410   0.47891   0.00000  Uiso   1.00
C792   C     0.87761   0.64593   0.52142   0.00000  Uiso   1.00
C793   C     0.78907   0.64411   0.47721   0.00000  Uiso   1.00
C794   C     0.87764   0.35597   0.52239   0.00000  Uiso   1.00
C795   C     0.83342   0.62405   0.49879   0.00000  Uiso   1.00
C796   C     0.83315   0.37598   0.50121   0.00000  Uiso   1.00
C797   C     0.86763   0.52507   0.36183   0.00000  Uiso   1.00
C798   C     0.79904   0.47493   0.63818   0.00000  Uiso   1.00
C799   C     0.86763   0.52508   0.64718   0.00000  Uiso   1.00
C800   C     0.79904   0.47491   0.35282   0.00000  Uiso   1.00
H801   H     0.89504   0.54509   0.38365   0.00000  Uiso   1.00
H802   H     0.77163   0.45491   0.61635   0.00000  Uiso   1.00
N803   N     0.83332   0.49999   0.61907   0.00000  Uiso   1.00
N804   N     0.83335   0.50001   0.38093   0.00000  Uiso   1.00
O805   O     0.83333   0.43892   0.53821   0.00000  Uiso   1.00
O806   O     0.83334   0.56108   0.46179   0.00000  Uiso   1.00
O807   O     0.83333   0.43893   0.46176   0.00000  Uiso   1.00
O808   O     0.83334   0.56107   0.53824   0.00000  Uiso   1.00
O809   O     0.75725   0.50000   0.52928   0.00000  Uiso   1.00
O810   O     0.90942   0.50000   0.47072   0.00000  Uiso   1.00
O811   O     0.75725   0.50000   0.45284   0.00000  Uiso   1.00
O812   O     0.90942   0.50000   0.54716   0.00000  Uiso   1.00
Zn813  Zn    0.83333   0.49999   0.55104   0.00000  Uiso   1.00
Zn814  Zn    0.83333   0.50001   0.44896   0.00000  Uiso   1.00
C815   C     0.98825   0.47177   0.43987   0.00000  Uiso   1.00
O816   O     0.99598   0.48400   0.40206   0.00000  Uiso   1.00
O817   O     0.95721   0.43580   0.44363   0.00000  Uiso   1.00
H818   H     0.94224   0.42344   0.41269   0.00000  Uiso   1.00
C819   C     0.67841   0.52816   0.56008   0.00000  Uiso   1.00
O820   O     0.67088   0.51587   0.59792   0.00000  Uiso   1.00
O821   O     0.70914   0.56429   0.55621   0.00000  Uiso   1.00
H822   H     0.72394   0.57680   0.58711   0.00000  Uiso   1.00
C823   C     0.74244   0.37656   0.45737   0.00000  Uiso   1.00
O824   O     0.72362   0.40238   0.47951   0.00000  Uiso   1.00
O825   O     0.72024   0.36781   0.41209   0.00000  Uiso   1.00
H826   H     0.68898   0.38515   0.40125   0.00000  Uiso   1.00
C827   C     0.92364   0.62354   0.54396   0.00000  Uiso   1.00
O828   O     0.94168   0.59630   0.52316   0.00000  Uiso   1.00
O829   O     0.94636   0.63390   0.58869   0.00000  Uiso   1.00
H830   H     0.97727   0.61640   0.60026   0.00000  Uiso   1.00
C831   C     0.74177   0.61995   0.45588   0.00000  Uiso   1.00
O832   O     0.74396   0.59563   0.42460   0.00000  Uiso   1.00
O833   O     0.69446   0.62614   0.47087   0.00000  Uiso   1.00
H834   H     0.99843   0.60847   0.45334   0.00000  Uiso   1.00
C835   C     0.92533   0.38030   0.54240   0.00000  Uiso   1.00
O836   O     0.96580   0.37567   0.52738   0.00000  Uiso   1.00
O837   O     0.92418   0.40756   0.57892   0.00000  Uiso   1.00
H838   H     0.95902   0.42212   0.58945   0.00000  Uiso   1.00
F839   F     0.90197   0.55026   0.62901   0.00000  Uiso   1.00
F840   F     0.76471   0.44973   0.37099   0.00000  Uiso   1.00
C841   C     0.16726   0.75351   0.50034   0.00000  Uiso   1.00
C842   C     0.16597   0.91317   0.49965   0.00000  Uiso   1.00
C843   C     0.06714   0.83376   0.48802   0.00000  Uiso   1.00
C844   C     0.26619   0.83284   0.51197   0.00000  Uiso   1.00
C845   C     0.01245   0.82838   0.48217   0.00000  Uiso   1.00
C846   C     0.32088   0.83815   0.51783   0.00000  Uiso   1.00
C847   C     0.12216   0.68744   0.47891   0.00000  Uiso   1.00
C848   C     0.21094   0.97927   0.52142   0.00000  Uiso   1.00
C849   C     0.12241   0.97744   0.47721   0.00000  Uiso   1.00
C850   C     0.21097   0.68930   0.52239   0.00000  Uiso   1.00
C851   C     0.16676   0.95738   0.49879   0.00000  Uiso   1.00
C852   C     0.16648   0.70931   0.50121   0.00000  Uiso   1.00
C853   C     0.20097   0.85840   0.36183   0.00000  Uiso   1.00
C854   C     0.13237   0.80826   0.63818   0.00000  Uiso   1.00
C855   C     0.20097   0.85842   0.64718   0.00000  Uiso   1.00
C856   C     0.13237   0.80824   0.35282   0.00000  Uiso   1.00
H857   H     0.22837   0.87842   0.38365   0.00000  Uiso   1.00
H858   H     0.10497   0.78824   0.61635   0.00000  Uiso   1.00
N859   N     0.16665   0.83332   0.61907   0.00000  Uiso   1.00
N860   N     0.16668   0.83334   0.38093   0.00000  Uiso   1.00
O861   O     0.16666   0.77225   0.53821   0.00000  Uiso   1.00
O862   O     0.16667   0.89442   0.46179   0.00000  Uiso   1.00
O863   O     0.16666   0.77226   0.46176   0.00000  Uiso   1.00
O864   O     0.16667   0.89441   0.53824   0.00000  Uiso   1.00
O865   O     0.09058   0.83333   0.52928   0.00000  Uiso   1.00
O866   O     0.24275   0.83334   0.47072   0.00000  Uiso   1.00
O867   O     0.09058   0.83334   0.45284   0.00000  Uiso   1.00
O868   O     0.24275   0.83333   0.54716   0.00000  Uiso   1.00
Zn869  Zn    0.16667   0.83333   0.55104   0.00000  Uiso   1.00
Zn870  Zn    0.16667   0.83334   0.44896   0.00000  Uiso   1.00
C871   C     0.32158   0.80510   0.43987   0.00000  Uiso   1.00
O872   O     0.32931   0.81734   0.40206   0.00000  Uiso   1.00
O873   O     0.29054   0.76913   0.44363   0.00000  Uiso   1.00
H874   H     0.27557   0.75678   0.41269   0.00000  Uiso   1.00
C875   C     0.01175   0.86149   0.56008   0.00000  Uiso   1.00
O876   O     0.00421   0.84921   0.59792   0.00000  Uiso   1.00
O877   O     0.04247   0.89763   0.55621   0.00000  Uiso   1.00
H878   H     0.05727   0.91014   0.58711   0.00000  Uiso   1.00
C879   C     0.07577   0.70990   0.45737   0.00000  Uiso   1.00
O880   O     0.05696   0.73571   0.47951   0.00000  Uiso   1.00
O881   O     0.05357   0.70114   0.41209   0.00000  Uiso   1.00
H882   H     0.02231   0.71848   0.40125   0.00000  Uiso   1.00
C883   C     0.25697   0.95687   0.54396   0.00000  Uiso   1.00
O884   O     0.27501   0.92963   0.52316   0.00000  Uiso   1.00
O885   O     0.27969   0.96723   0.58869   0.00000  Uiso   1.00
H886   H     0.31060   0.94973   0.60026   0.00000  Uiso   1.00
C887   C     0.07510   0.95329   0.45588   0.00000  Uiso   1.00
O888   O     0.07730   0.92896   0.42460   0.00000  Uiso   1.00
O889   O     0.02779   0.95947   0.47087   0.00000  Uiso   1.00
H890   H     0.33176   0.94181   0.45334   0.00000  Uiso   1.00
C891   C     0.25867   0.71364   0.54240   0.00000  Uiso   1.00
O892   O     0.29913   0.70900   0.52738   0.00000  Uiso   1.00
O893   O     0.25752   0.74090   0.57892   0.00000  Uiso   1.00
H894   H     0.29236   0.75545   0.58945   0.00000  Uiso   1.00
F895   F     0.23530   0.88359   0.62901   0.00000  Uiso   1.00
F896   F     0.09804   0.78306   0.37099   0.00000  Uiso   1.00
C897   C     0.50059   0.75351   0.50034   0.00000  Uiso   1.00
C898   C     0.49930   0.91317   0.49965   0.00000  Uiso   1.00
C899   C     0.40047   0.83376   0.48802   0.00000  Uiso   1.00
C900   C     0.59953   0.83284   0.51197   0.00000  Uiso   1.00
C901   C     0.34579   0.82838   0.48217   0.00000  Uiso   1.00
C902   C     0.65421   0.83815   0.51783   0.00000  Uiso   1.00
C903   C     0.45549   0.68744   0.47891   0.00000  Uiso   1.00
C904   C     0.54427   0.97927   0.52142   0.00000  Uiso   1.00
C905   C     0.45574   0.97744   0.47721   0.00000  Uiso   1.00
C906   C     0.54431   0.68930   0.52239   0.00000  Uiso   1.00
C907   C     0.50009   0.95738   0.49879   0.00000  Uiso   1.00
C908   C     0.49982   0.70931   0.50121   0.00000  Uiso   1.00
C909   C     0.53430   0.85840   0.36183   0.00000  Uiso   1.00
C910   C     0.46571   0.80826   0.63818   0.00000  Uiso   1.00
C911   C     0.53430   0.85842   0.64718   0.00000  Uiso   1.00
C912   C     0.46571   0.80824   0.35282   0.00000  Uiso   1.00
H913   H     0.56171   0.87842   0.38365   0.00000  Uiso   1.00
H914   H     0.43830   0.78824   0.61635   0.00000  Uiso   1.00
N915   N     0.49999   0.83332   0.61907   0.00000  Uiso   1.00
N916   N     0.50001   0.83334   0.38093   0.00000  Uiso   1.00
O917   O     0.50000   0.77225   0.53821   0.00000  Uiso   1.00
O918   O     0.50000   0.89442   0.46179   0.00000  Uiso   1.00
O919   O     0.50000   0.77226   0.46176   0.00000  Uiso   1.00
O920   O     0.50000   0.89441   0.53824   0.00000  Uiso   1.00
O921   O     0.42392   0.83333   0.52928   0.00000  Uiso   1.00
O922   O     0.57608   0.83334   0.47072   0.00000  Uiso   1.00
O923   O     0.42392   0.83334   0.45284   0.00000  Uiso   1.00
O924   O     0.57608   0.83333   0.54716   0.00000  Uiso   1.00
Zn925  Zn    0.50000   0.83333   0.55104   0.00000  Uiso   1.00
Zn926  Zn    0.50000   0.83334   0.44896   0.00000  Uiso   1.00
C927   C     0.65492   0.80510   0.43987   0.00000  Uiso   1.00
O928   O     0.66265   0.81734   0.40206   0.00000  Uiso   1.00
O929   O     0.62387   0.76913   0.44363   0.00000  Uiso   1.00
H930   H     0.60890   0.75678   0.41269   0.00000  Uiso   1.00
C931   C     0.34508   0.86149   0.56008   0.00000  Uiso   1.00
O932   O     0.33755   0.84921   0.59792   0.00000  Uiso   1.00
O933   O     0.37581   0.89763   0.55621   0.00000  Uiso   1.00
H934   H     0.39061   0.91014   0.58711   0.00000  Uiso   1.00
C935   C     0.40911   0.70990   0.45737   0.00000  Uiso   1.00
O936   O     0.39029   0.73571   0.47951   0.00000  Uiso   1.00
O937   O     0.38690   0.70114   0.41209   0.00000  Uiso   1.00
H938   H     0.35565   0.71848   0.40125   0.00000  Uiso   1.00
C939   C     0.59030   0.95687   0.54396   0.00000  Uiso   1.00
O940   O     0.60834   0.92963   0.52316   0.00000  Uiso   1.00
O941   O     0.61303   0.96723   0.58869   0.00000  Uiso   1.00
H942   H     0.64393   0.94973   0.60026   0.00000  Uiso   1.00
C943   C     0.40843   0.95329   0.45588   0.00000  Uiso   1.00
O944   O     0.41063   0.92896   0.42460   0.00000  Uiso   1.00
O945   O     0.36113   0.95947   0.47087   0.00000  Uiso   1.00
H946   H     0.66510   0.94181   0.45334   0.00000  Uiso   1.00
C947   C     0.59200   0.71364   0.54240   0.00000  Uiso   1.00
O948   O     0.63247   0.70900   0.52738   0.00000  Uiso   1.00
O949   O     0.59085   0.74090   0.57892   0.00000  Uiso   1.00
H950   H     0.62569   0.75545   0.58945   0.00000  Uiso   1.00
F951   F     0.56863   0.88359   0.62901   0.00000  Uiso   1.00
F952   F     0.43138   0.78306   0.37099   0.00000  Uiso   1.00
C953   C     0.83392   0.75351   0.50034   0.00000  Uiso   1.00
C954   C     0.83263   0.91317   0.49965   0.00000  Uiso   1.00
C955   C     0.73380   0.83376   0.48802   0.00000  Uiso   1.00
C956   C     0.93286   0.83284   0.51197   0.00000  Uiso   1.00
C957   C     0.67912   0.82838   0.48217   0.00000  Uiso   1.00
C958   C     0.98755   0.83815   0.51783   0.00000  Uiso   1.00
C959   C     0.78882   0.68744   0.47891   0.00000  Uiso   1.00
C960   C     0.87761   0.97927   0.52142   0.00000  Uiso   1.00
C961   C     0.78907   0.97744   0.47721   0.00000  Uiso   1.00
C962   C     0.87764   0.68930   0.52239   0.00000  Uiso   1.00
C963   C     0.83342   0.95738   0.49879   0.00000  Uiso   1.00
C964   C     0.83315   0.70931   0.50121   0.00000  Uiso   1.00
C965   C     0.86763   0.85840   0.36183   0.00000  Uiso   1.00
C966   C     0.79904   0.80826   0.63818   0.00000  Uiso   1.00
C967   C     0.86763   0.85842   0.64718   0.00000  Uiso   1.00
C968   C     0.79904   0.80824   0.35282   0.00000  Uiso   1.00
H969   H     0.89504   0.87842   0.38365   0.00000  Uiso   1.00
H970   H     0.77163   0.78824   0.61635   0.00000  Uiso   1.00
N971   N     0.83332   0.83332   0.61907   0.00000  Uiso   1.00
N972   N     0.83335   0.83334   0.38093   0.00000  Uiso   1.00
O973   O     0.83333   0.77225   0.53821   0.00000  Uiso   1.00
O974   O     0.83334   0.89442   0.46179   0.00000  Uiso   1.00
O975   O     0.83333   0.77226   0.46176   0.00000  Uiso   1.00
O976   O     0.83334   0.89441   0.53824   0.00000  Uiso   1.00
O977   O     0.75725   0.83333   0.52928   0.00000  Uiso   1.00
O978   O     0.90942   0.83334   0.47072   0.00000  Uiso   1.00
O979   O     0.75725   0.83334   0.45284   0.00000  Uiso   1.00
O980   O     0.90942   0.83333   0.54716   0.00000  Uiso   1.00
Zn981  Zn    0.83333   0.83333   0.55104   0.00000  Uiso   1.00
Zn982  Zn    0.83333   0.83334   0.44896   0.00000  Uiso   1.00
C983   C     0.98825   0.80510   0.43987   0.00000  Uiso   1.00
O984   O     0.99598   0.81734   0.40206   0.00000  Uiso   1.00
O985   O     0.95721   0.76913   0.44363   0.00000  Uiso   1.00
H986   H     0.94224   0.75678   0.41269   0.00000  Uiso   1.00
C987   C     0.67841   0.86149   0.56008   0.00000  Uiso   1.00
O988   O     0.67088   0.84921   0.59792   0.00000  Uiso   1.00
O989   O     0.70914   0.89763   0.55621   0.00000  Uiso   1.00
H990   H     0.72394   0.91014   0.58711   0.00000  Uiso   1.00
C991   C     0.74244   0.70990   0.45737   0.00000  Uiso   1.00
O992   O     0.72362   0.73571   0.47951   0.00000  Uiso   1.00
O993   O     0.72024   0.70114   0.41209   0.00000  Uiso   1.00
H994   H     0.68898   0.71848   0.40125   0.00000  Uiso   1.00
C995   C     0.92364   0.95687   0.54396   0.00000  Uiso   1.00
O996   O     0.94168   0.92963   0.52316   0.00000  Uiso   1.00
O997   O     0.94636   0.96723   0.58869   0.00000  Uiso   1.00
H998   H     0.97727   0.94973   0.60026   0.00000  Uiso   1.00
C999   C     0.74177   0.95329   0.45588   0.00000  Uiso   1.00
O1000  O     0.74396   0.92896   0.42460   0.00000  Uiso   1.00
O1001  O     0.69446   0.95947   0.47087   0.00000  Uiso   1.00
H1002  H     0.99843   0.94181   0.45334   0.00000  Uiso   1.00
C1003  C     0.92533   0.71364   0.54240   0.00000  Uiso   1.00
O1004  O     0.96580   0.70900   0.52738   0.00000  Uiso   1.00
O1005  O     0.92418   0.74090   0.57892   0.00000  Uiso   1.00
H1006  H     0.95902   0.75545   0.58945   0.00000  Uiso   1.00
F1007  F     0.90197   0.88359   0.62901   0.00000  Uiso   1.00
F1008  F     0.76471   0.78306   0.37099   0.00000  Uiso   1.00
C1009  C     0.16726   0.08684   0.83367   0.00000  Uiso   1.00
C1010  C     0.16597   0.24650   0.83298   0.00000  Uiso   1.00
C1011  C     0.06714   0.16710   0.82136   0.00000  Uiso   1.00
C1012  C     0.26619   0.16617   0.84531   0.00000  Uiso   1.00
C1013  C     0.01245   0.16172   0.81550   0.00000  Uiso   1.00
C1014  C     0.32088   0.17149   0.85116   0.00000  Uiso   1.00
C1015  C     0.12216   0.02077   0.81224   0.00000  Uiso   1.00
C1016  C     0.21094   0.31260   0.85476   0.00000  Uiso   1.00
C1017  C     0.12241   0.31078   0.81055   0.00000  Uiso   1.00
C1018  C     0.21097   0.02263   0.85573   0.00000  Uiso   1.00
C1019  C     0.16676   0.29072   0.83212   0.00000  Uiso   1.00
C1020  C     0.16648   0.04265   0.83454   0.00000  Uiso   1.00
C1021  C     0.20097   0.19174   0.69516   0.00000  Uiso   1.00
C1022  C     0.13237   0.14159   0.97151   0.00000  Uiso   1.00
C1023  C     0.20097   0.19175   0.98052   0.00000  Uiso   1.00
C1024  C     0.13237   0.14158   0.68615   0.00000  Uiso   1.00
H1025  H     0.22837   0.21175   0.71698   0.00000  Uiso   1.00
H1026  H     0.10497   0.12158   0.94968   0.00000  Uiso   1.00
N1027  N     0.16665   0.16666   0.95240   0.00000  Uiso   1.00
N1028  N     0.16668   0.16668   0.71427   0.00000  Uiso   1.00
O1029  O     0.16666   0.10558   0.87154   0.00000  Uiso   1.00
O1030  O     0.16667   0.22775   0.79513   0.00000  Uiso   1.00
O1031  O     0.16666   0.10559   0.79510   0.00000  Uiso   1.00
O1032  O     0.16667   0.22774   0.87157   0.00000  Uiso   1.00
O1033  O     0.09058   0.16666   0.86261   0.00000  Uiso   1.00
O1034  O     0.24275   0.16667   0.80405   0.00000  Uiso   1.00
O1035  O     0.09058   0.16667   0.78617   0.00000  Uiso   1.00
O1036  O     0.24275   0.16666   0.88050   0.00000  Uiso   1.00
Zn1037 Zn    0.16667   0.16666   0.88437   0.00000  Uiso   1.00
Zn1038 Zn    0.16667   0.16667   0.78229   0.00000  Uiso   1.00
C1039  C     0.32158   0.13844   0.77321   0.00000  Uiso   1.00
O1040  O     0.32931   0.15067   0.73540   0.00000  Uiso   1.00
O1041  O     0.29054   0.10246   0.77697   0.00000  Uiso   1.00
H1042  H     0.27557   0.09011   0.74603   0.00000  Uiso   1.00
C1043  C     0.01175   0.19482   0.89341   0.00000  Uiso   1.00
O1044  O     0.00421   0.18254   0.93126   0.00000  Uiso   1.00
O1045  O     0.04247   0.23096   0.88954   0.00000  Uiso   1.00
H1046  H     0.05727   0.24347   0.92044   0.00000  Uiso   1.00
C1047  C     0.07577   0.04323   0.79070   0.00000  Uiso   1.00
O1048  O     0.05696   0.06905   0.81284   0.00000  Uiso   1.00
O1049  O     0.05357   0.03448   0.74542   0.00000  Uiso   1.00
H1050  H     0.02231   0.05181   0.73458   0.00000  Uiso   1.00
C1051  C     0.25697   0.29021   0.87729   0.00000  Uiso   1.00
O1052  O     0.27501   0.26296   0.85649   0.00000  Uiso   1.00
O1053  O     0.27969   0.30056   0.92202   0.00000  Uiso   1.00
H1054  H     0.31060   0.28306   0.93359   0.00000  Uiso   1.00
C1055  C     0.07510   0.28662   0.78921   0.00000  Uiso   1.00
O1056  O     0.07730   0.26229   0.75794   0.00000  Uiso   1.00
O1057  O     0.02779   0.29280   0.80420   0.00000  Uiso   1.00
H1058  H     0.33176   0.27514   0.78667   0.00000  Uiso   1.00
C1059  C     0.25867   0.04697   0.87573   0.00000  Uiso   1.00
O1060  O     0.29913   0.04233   0.86071   0.00000  Uiso   1.00
O1061  O     0.25752   0.07423   0.91225   0.00000  Uiso   1.00
H1062  H     0.29236   0.08878   0.92278   0.00000  Uiso   1.00
F1063  F     0.23530   0.21693   0.96234   0.00000  Uiso   1.00
F1064  F     0.09804   0.11640   0.70433   0.00000  Uiso   1.00
C1065  C     0.50059   0.08684   0.83367   0.00000  Uiso   1.00
C1066  C     0.49930   0.24650   0.83298   0.00000  Uiso   1.00
C1067  C     0.40047   0.16710   0.82136   0.00000  Uiso   1.00
C1068  C     0.59953   0.16617   0.84531   0.00000  Uiso   1.00
C1069  C     0.34579   0.16172   0.81550   0.00000  Uiso   1.00
C1070  C     0.65421   0.17149   0.85116   0.00000  Uiso   1.00
C1071  C     0.45549   0.02077   0.81224   0.00000  Uiso   1.00
C1072  C     0.54427   0.31260   0.85476   0.00000  Uiso   1.00
C1073  C     0.45574   0.31078   0.81055   0.00000  Uiso   1.00
C1074  C     0.54431   0.02263   0.85573   0.00000  Uiso   1.00
C1075  C     0.50009   0.29072   0.83212   0.00000  Uiso   1.00
C1076  C     0.49982   0.04265   0.83454   0.00000  Uiso   1.00
C1077  C     0.53430   0.19174   0.69516   0.00000  Uiso   1.00
C1078  C     0.46571   0.14159   0.97151   0.00000  Uiso   1.00
C1079  C     0.53430   0.19175   0.98052   0.00000  Uiso   1.00
C1080  C     0.46571   0.14158   0.68615   0.00000  Uiso   1.00
H1081  H     0.56171   0.21175   0.71698   0.00000  Uiso   1.00
H1082  H     0.43830   0.12158   0.94968   0.00000  Uiso   1.00
N1083  N     0.49999   0.16666   0.95240   0.00000  Uiso   1.00
N1084  N     0.50001   0.16668   0.71427   0.00000  Uiso   1.00
O1085  O     0.50000   0.10558   0.87154   0.00000  Uiso   1.00
O1086  O     0.50000   0.22775   0.79513   0.00000  Uiso   1.00
O1087  O     0.50000   0.10559   0.79510   0.00000  Uiso   1.00
O1088  O     0.50000   0.22774   0.87157   0.00000  Uiso   1.00
O1089  O     0.42392   0.16666   0.86261   0.00000  Uiso   1.00
O1090  O     0.57608   0.16667   0.80405   0.00000  Uiso   1.00
O1091  O     0.42392   0.16667   0.78617   0.00000  Uiso   1.00
O1092  O     0.57608   0.16666   0.88050   0.00000  Uiso   1.00
Zn1093 Zn    0.50000   0.16666   0.88437   0.00000  Uiso   1.00
Zn1094 Zn    0.50000   0.16667   0.78229   0.00000  Uiso   1.00
C1095  C     0.65492   0.13844   0.77321   0.00000  Uiso   1.00
O1096  O     0.66265   0.15067   0.73540   0.00000  Uiso   1.00
O1097  O     0.62387   0.10246   0.77697   0.00000  Uiso   1.00
H1098  H     0.60890   0.09011   0.74603   0.00000  Uiso   1.00
C1099  C     0.34508   0.19482   0.89341   0.00000  Uiso   1.00
O1100  O     0.33755   0.18254   0.93126   0.00000  Uiso   1.00
O1101  O     0.37581   0.23096   0.88954   0.00000  Uiso   1.00
H1102  H     0.39061   0.24347   0.92044   0.00000  Uiso   1.00
C1103  C     0.40911   0.04323   0.79070   0.00000  Uiso   1.00
O1104  O     0.39029   0.06905   0.81284   0.00000  Uiso   1.00
O1105  O     0.38690   0.03448   0.74542   0.00000  Uiso   1.00
H1106  H     0.35565   0.05181   0.73458   0.00000  Uiso   1.00
C1107  C     0.59030   0.29021   0.87729   0.00000  Uiso   1.00
O1108  O     0.60834   0.26296   0.85649   0.00000  Uiso   1.00
O1109  O     0.61303   0.30056   0.92202   0.00000  Uiso   1.00
H1110  H     0.64393   0.28306   0.93359   0.00000  Uiso   1.00
C1111  C     0.40843   0.28662   0.78921   0.00000  Uiso   1.00
O1112  O     0.41063   0.26229   0.75794   0.00000  Uiso   1.00
O1113  O     0.36113   0.29280   0.80420   0.00000  Uiso   1.00
H1114  H     0.66510   0.27514   0.78667   0.00000  Uiso   1.00
C1115  C     0.59200   0.04697   0.87573   0.00000  Uiso   1.00
O1116  O     0.63247   0.04233   0.86071   0.00000  Uiso   1.00
O1117  O     0.59085   0.07423   0.91225   0.00000  Uiso   1.00
H1118  H     0.62569   0.08878   0.92278   0.00000  Uiso   1.00
F1119  F     0.56863   0.21693   0.96234   0.00000  Uiso   1.00
F1120  F     0.43138   0.11640   0.70433   0.00000  Uiso   1.00
C1121  C     0.83392   0.08684   0.83367   0.00000  Uiso   1.00
C1122  C     0.83263   0.24650   0.83298   0.00000  Uiso   1.00
C1123  C     0.73380   0.16710   0.82136   0.00000  Uiso   1.00
C1124  C     0.93286   0.16617   0.84531   0.00000  Uiso   1.00
C1125  C     0.67912   0.16172   0.81550   0.00000  Uiso   1.00
C1126  C     0.98755   0.17149   0.85116   0.00000  Uiso   1.00
C1127  C     0.78882   0.02077   0.81224   0.00000  Uiso   1.00
C1128  C     0.87761   0.31260   0.85476   0.00000  Uiso   1.00
C1129  C     0.78907   0.31078   0.81055   0.00000  Uiso   1.00
C1130  C     0.87764   0.02263   0.85573   0.00000  Uiso   1.00
C1131  C     0.83342   0.29072   0.83212   0.00000  Uiso   1.00
C1132  C     0.83315   0.04265   0.83454   0.00000  Uiso   1.00
C1133  C     0.86763   0.19174   0.69516   0.00000  Uiso   1.00
C1134  C     0.79904   0.14159   0.97151   0.00000  Uiso   1.00
C1135  C     0.86763   0.19175   0.98052   0.00000  Uiso   1.00
C1136  C     0.79904   0.14158   0.68615   0.00000  Uiso   1.00
H1137  H     0.89504   0.21175   0.71698   0.00000  Uiso   1.00
H1138  H     0.77163   0.12158   0.94968   0.00000  Uiso   1.00
N1139  N     0.83332   0.16666   0.95240   0.00000  Uiso   1.00
N1140  N     0.83335   0.16668   0.71427   0.00000  Uiso   1.00
O1141  O     0.83333   0.10558   0.87154   0.00000  Uiso   1.00
O1142  O     0.83334   0.22775   0.79513   0.00000  Uiso   1.00
O1143  O     0.83333   0.10559   0.79510   0.00000  Uiso   1.00
O1144  O     0.83334   0.22774   0.87157   0.00000  Uiso   1.00
O1145  O     0.75725   0.16666   0.86261   0.00000  Uiso   1.00
O1146  O     0.90942   0.16667   0.80405   0.00000  Uiso   1.00
O1147  O     0.75725   0.16667   0.78617   0.00000  Uiso   1.00
O1148  O     0.90942   0.16666   0.88050   0.00000  Uiso   1.00
Zn1149 Zn    0.83333   0.16666   0.88437   0.00000  Uiso   1.00
Zn1150 Zn    0.83333   0.16667   0.78229   0.00000  Uiso   1.00
C1151  C     0.98825   0.13844   0.77321   0.00000  Uiso   1.00
O1152  O     0.99598   0.15067   0.73540   0.00000  Uiso   1.00
O1153  O     0.95721   0.10246   0.77697   0.00000  Uiso   1.00
H1154  H     0.94224   0.09011   0.74603   0.00000  Uiso   1.00
C1155  C     0.67841   0.19482   0.89341   0.00000  Uiso   1.00
O1156  O     0.67088   0.18254   0.93126   0.00000  Uiso   1.00
O1157  O     0.70914   0.23096   0.88954   0.00000  Uiso   1.00
H1158  H     0.72394   0.24347   0.92044   0.00000  Uiso   1.00
C1159  C     0.74244   0.04323   0.79070   0.00000  Uiso   1.00
O1160  O     0.72362   0.06905   0.81284   0.00000  Uiso   1.00
O1161  O     0.72024   0.03448   0.74542   0.00000  Uiso   1.00
H1162  H     0.68898   0.05181   0.73458   0.00000  Uiso   1.00
C1163  C     0.92364   0.29021   0.87729   0.00000  Uiso   1.00
O1164  O     0.94168   0.26296   0.85649   0.00000  Uiso   1.00
O1165  O     0.94636   0.30056   0.92202   0.00000  Uiso   1.00
H1166  H     0.97727   0.28306   0.93359   0.00000  Uiso   1.00
C1167  C     0.74177   0.28662   0.78921   0.00000  Uiso   1.00
O1168  O     0.74396   0.26229   0.75794   0.00000  Uiso   1.00
O1169  O     0.69446   0.29280   0.80420   0.00000  Uiso   1.00
H1170  H     0.99843   0.27514   0.78667   0.00000  Uiso   1.00
C1171  C     0.92533   0.04697   0.87573   0.00000  Uiso   1.00
O1172  O     0.96580   0.04233   0.86071   0.00000  Uiso   1.00
O1173  O     0.92418   0.07423   0.91225   0.00000  Uiso   1.00
H1174  H     0.95902   0.08878   0.92278   0.00000  Uiso   1.00
F1175  F     0.90197   0.21693   0.96234   0.00000  Uiso   1.00
F1176  F     0.76471   0.11640   0.70433   0.00000  Uiso   1.00
C1177  C     0.16726   0.42017   0.83367   0.00000  Uiso   1.00
C1178  C     0.16597   0.57984   0.83298   0.00000  Uiso   1.00
C1179  C     0.06714   0.50043   0.82136   0.00000  Uiso   1.00
C1180  C     0.26619   0.49950   0.84531   0.00000  Uiso   1.00
C1181  C     0.01245   0.49505   0.81550   0.00000  Uiso   1.00
C1182  C     0.32088   0.50482   0.85116   0.00000  Uiso   1.00
C1183  C     0.12216   0.35410   0.81224   0.00000  Uiso   1.00
C1184  C     0.21094   0.64593   0.85476   0.00000  Uiso   1.00
C1185  C     0.12241   0.64411   0.81055   0.00000  Uiso   1.00
C1186  C     0.21097   0.35597   0.85573   0.00000  Uiso   1.00
C1187  C     0.16676   0.62405   0.83212   0.00000  Uiso   1.00
C1188  C     0.16648   0.37598   0.83454   0.00000  Uiso   1.00
C1189  C     0.20097   0.52507   0.69516   0.00000  Uiso   1.00
C1190  C     0.13237   0.47493   0.97151   0.00000  Uiso   1.00
C1191  C     0.20097   0.52508   0.98052   0.00000  Uiso   1.00
C1192  C     0.13237   0.47491   0.68615   0.00000  Uiso   1.00
H1193  H     0.22837   0.54509   0.71698   0.00000  Uiso   1.00
H1194  H     0.10497   0.45491   0.94968   0.00000  Uiso   1.00
N1195  N     0.16665   0.49999   0.95240   0.00000  Uiso   1.00
N1196  N     0.16668   0.50001   0.71427   0.00000  Uiso   1.00
O1197  O     0.16666   0.43892   0.87154   0.00000  Uiso   1.00
O1198  O     0.16667   0.56108   0.79513   0.00000  Uiso   1.00
O1199  O     0.16666   0.43893   0.79510   0.00000  Uiso   1.00
O1200  O     0.16667   0.56107   0.87157   0.00000  Uiso   1.00
O1201  O     0.09058   0.50000   0.86261   0.00000  Uiso   1.00
O1202  O     0.24275   0.50000   0.80405   0.00000  Uiso   1.00
O1203  O     0.09058   0.50000   0.78617   0.00000  Uiso   1.00
O1204  O     0.24275   0.50000   0.88050   0.00000  Uiso   1.00
Zn1205 Zn    0.16667   0.49999   0.88437   0.00000  Uiso   1.00
Zn1206 Zn    0.16667   0.50001   0.78229   0.00000  Uiso   1.00
C1207  C     0.32158   0.47177   0.77321   0.00000  Uiso   1.00
O1208  O     0.32931   0.48400   0.73540   0.00000  Uiso   1.00
O1209  O     0.29054   0.43580   0.77697   0.00000  Uiso   1.00
H1210  H     0.27557   0.42344   0.74603   0.00000  Uiso   1.00
C1211  C     0.01175   0.52816   0.89341   0.00000  Uiso   1.00
O1212  O     0.00421   0.51587   0.93126   0.00000  Uiso   1.00
O1213  O     0.04247   0.56429   0.88954   0.00000  Uiso   1.00
H1214  H     0.05727   0.57680   0.92044   0.00000  Uiso   1.00
C1215  C     0.07577   0.37656   0.79070   0.00000  Uiso   1.00
O1216  O     0.05696   0.40238   0.81284   0.00000  Uiso   1.00
O1217  O     0.05357   0.36781   0.74542   0.00000  Uiso   1.00
H1218  H     0.02231   0.38515   0.73458   0.00000  Uiso   1.00
C1219  C     0.25697   0.62354   0.87729   0.00000  Uiso   1.00
O1220  O     0.27501   0.59630   0.85649   0.00000  Uiso   1.00
O1221  O     0.27969   0.63390   0.92202   0.00000  Uiso   1.00
H1222  H     0.31060   0.61640   0.93359   0.00000  Uiso   1.00
C1223  C     0.07510   0.61995   0.78921   0.00000  Uiso   1.00
O1224  O     0.07730   0.59563   0.75794   0.00000  Uiso   1.00
O1225  O     0.02779   0.62614   0.80420   0.00000  Uiso   1.00
H1226  H     0.33176   0.60847   0.78667   0.00000  Uiso   1.00
C1227  C     0.25867   0.38030   0.87573   0.00000  Uiso   1.00
O1228  O     0.29913   0.37567   0.86071   0.00000  Uiso   1.00
O1229  O     0.25752   0.40756   0.91225   0.00000  Uiso   1.00
H1230  H     0.29236   0.42212   0.92278   0.00000  Uiso   1.00
F1231  F     0.23530   0.55026   0.96234   0.00000  Uiso   1.00
F1232  F     0.09804   0.44973   0.70433   0.00000  Uiso   1.00
C1233  C     0.50059   0.42017   0.83367   0.00000  Uiso   1.00
C1234  C     0.49930   0.57984   0.83298   0.00000  Uiso   1.00
C1235  C     0.40047   0.50043   0.82136   0.00000  Uiso   1.00
C1236  C     0.59953   0.49950   0.84531   0.00000  Uiso   1.00
C1237  C     0.34579   0.49505   0.81550   0.00000  Uiso   1.00
C1238  C     0.65421   0.50482   0.85116   0.00000  Uiso   1.00
C1239  C     0.45549   0.35410   0.81224   0.00000  Uiso   1.00
C1240  C     0.54427   0.64593   0.85476   0.00000  Uiso   1.00
C1241  C     0.45574   0.64411   0.81055   0.00000  Uiso   1.00
C1242  C     0.54431   0.35597   0.85573   0.00000  Uiso   1.00
C1243  C     0.50009   0.62405   0.83212   0.00000  Uiso   1.00
C1244  C     0.49982   0.37598   0.83454   0.00000  Uiso   1.00
C1245  C     0.53430   0.52507   0.69516   0.00000  Uiso   1.00
C1246  C     0.46571   0.47493   0.97151   0.00000  Uiso   1.00
C1247  C     0.53430   0.52508   0.98052   0.00000  Uiso   1.00
C1248  C     0.46571   0.47491   0.68615   0.00000  Uiso   1.00
H1249  H     0.56171   0.54509   0.71698   0.00000  Uiso   1.00
H1250  H     0.43830   0.45491   0.94968   0.00000  Uiso   1.00
N1251  N     0.49999   0.49999   0.95240   0.00000  Uiso   1.00
N1252  N     0.50001   0.50001   0.71427   0.00000  Uiso   1.00
O1253  O     0.50000   0.43892   0.87154   0.00000  Uiso   1.00
O1254  O     0.50000   0.56108   0.79513   0.00000  Uiso   1.00
O1255  O     0.50000   0.43893   0.79510   0.00000  Uiso   1.00
O1256  O     0.50000   0.56107   0.87157   0.00000  Uiso   1.00
O1257  O     0.42392   0.50000   0.86261   0.00000  Uiso   1.00
O1258  O     0.57608   0.50000   0.80405   0.00000  Uiso   1.00
O1259  O     0.42392   0.50000   0.78617   0.00000  Uiso   1.00
O1260  O     0.57608   0.50000   0.88050   0.00000  Uiso   1.00
Zn1261 Zn    0.50000   0.49999   0.88437   0.00000  Uiso   1.00
Zn1262 Zn    0.50000   0.50001   0.78229   0.00000  Uiso   1.00
C1263  C     0.65492   0.47177   0.77321   0.00000  Uiso   1.00
O1264  O     0.66265   0.48400   0.73540   0.00000  Uiso   1.00
O1265  O     0.62387   0.43580   0.77697   0.00000  Uiso   1.00
H1266  H     0.60890   0.42344   0.74603   0.00000  Uiso   1.00
C1267  C     0.34508   0.52816   0.89341   0.00000  Uiso   1.00
O1268  O     0.33755   0.51587   0.93126   0.00000  Uiso   1.00
O1269  O     0.37581   0.56429   0.88954   0.00000  Uiso   1.00
H1270  H     0.39061   0.57680   0.92044   0.00000  Uiso   1.00
C1271  C     0.40911   0.37656   0.79070   0.00000  Uiso   1.00
O1272  O     0.39029   0.40238   0.81284   0.00000  Uiso   1.00
O1273  O     0.38690   0.36781   0.74542   0.00000  Uiso   1.00
H1274  H     0.35565   0.38515   0.73458   0.00000  Uiso   1.00
C1275  C     0.59030   0.62354   0.87729   0.00000  Uiso   1.00
O1276  O     0.60834   0.59630   0.85649   0.00000  Uiso   1.00
O1277  O     0.61303   0.63390   0.92202   0.00000  Uiso   1.00
H1278  H     0.64393   0.61640   0.93359   0.00000  Uiso   1.00
C1279  C     0.40843   0.61995   0.78921   0.00000  Uiso   1.00
O1280  O     0.41063   0.59563   0.75794   0.00000  Uiso   1.00
O1281  O     0.36113   0.62614   0.80420   0.00000  Uiso   1.00
H1282  H     0.66510   0.60847   0.78667   0.00000  Uiso   1.00
C1283  C     0.59200   0.38030   0.87573   0.00000  Uiso   1.00
O1284  O     0.63247   0.37567   0.86071   0.00000  Uiso   1.00
O1285  O     0.59085   0.40756   0.91225   0.00000  Uiso   1.00
H1286  H     0.62569   0.42212   0.92278   0.00000  Uiso   1.00
F1287  F     0.56863   0.55026   0.96234   0.00000  Uiso   1.00
F1288  F     0.43138   0.44973   0.70433   0.00000  Uiso   1.00
C1289  C     0.83392   0.42017   0.83367   0.00000  Uiso   1.00
C1290  C     0.83263   0.57984   0.83298   0.00000  Uiso   1.00
C1291  C     0.73380   0.50043   0.82136   0.00000  Uiso   1.00
C1292  C     0.93286   0.49950   0.84531   0.00000  Uiso   1.00
C1293  C     0.67912   0.49505   0.81550   0.00000  Uiso   1.00
C1294  C     0.98755   0.50482   0.85116   0.00000  Uiso   1.00
C1295  C     0.78882   0.35410   0.81224   0.00000  Uiso   1.00
C1296  C     0.87761   0.64593   0.85476   0.00000  Uiso   1.00
C1297  C     0.78907   0.64411   0.81055   0.00000  Uiso   1.00
C1298  C     0.87764   0.35597   0.85573   0.00000  Uiso   1.00
C1299  C     0.83342   0.62405   0.83212   0.00000  Uiso   1.00
C1300  C     0.83315   0.37598   0.83454   0.00000  Uiso   1.00
C1301  C     0.86763   0.52507   0.69516   0.00000  Uiso   1.00
C1302  C     0.79904   0.47493   0.97151   0.00000  Uiso   1.00
C1303  C     0.86763   0.52508   0.98052   0.00000  Uiso   1.00
C1304  C     0.79904   0.47491   0.68615   0.00000  Uiso   1.00
H1305  H     0.89504   0.54509   0.71698   0.00000  Uiso   1.00
H1306  H     0.77163   0.45491   0.94968   0.00000  Uiso   1.00
N1307  N     0.83332   0.49999   0.95240   0.00000  Uiso   1.00
N1308  N     0.83335   0.50001   0.71427   0.00000  Uiso   1.00
O1309  O     0.83333   0.43892   0.87154   0.00000  Uiso   1.00
O1310  O     0.83334   0.56108   0.79513   0.00000  Uiso   1.00
O1311  O     0.83333   0.43893   0.79510   0.00000  Uiso   1.00
O1312  O     0.83334   0.56107   0.87157   0.00000  Uiso   1.00
O1313  O     0.75725   0.50000   0.86261   0.00000  Uiso   1.00
O1314  O     0.90942   0.50000   0.80405   0.00000  Uiso   1.00
O1315  O     0.75725   0.50000   0.78617   0.00000  Uiso   1.00
O1316  O     0.90942   0.50000   0.88050   0.00000  Uiso   1.00
Zn1317 Zn    0.83333   0.49999   0.88437   0.00000  Uiso   1.00
Zn1318 Zn    0.83333   0.50001   0.78229   0.00000  Uiso   1.00
C1319  C     0.98825   0.47177   0.77321   0.00000  Uiso   1.00
O1320  O     0.99598   0.48400   0.73540   0.00000  Uiso   1.00
O1321  O     0.95721   0.43580   0.77697   0.00000  Uiso   1.00
H1322  H     0.94224   0.42344   0.74603   0.00000  Uiso   1.00
C1323  C     0.67841   0.52816   0.89341   0.00000  Uiso   1.00
O1324  O     0.67088   0.51587   0.93126   0.00000  Uiso   1.00
O1325  O     0.70914   0.56429   0.88954   0.00000  Uiso   1.00
H1326  H     0.72394   0.57680   0.92044   0.00000  Uiso   1.00
C1327  C     0.74244   0.37656   0.79070   0.00000  Uiso   1.00
O1328  O     0.72362   0.40238   0.81284   0.00000  Uiso   1.00
O1329  O     0.72024   0.36781   0.74542   0.00000  Uiso   1.00
H1330  H     0.68898   0.38515   0.73458   0.00000  Uiso   1.00
C1331  C     0.92364   0.62354   0.87729   0.00000  Uiso   1.00
O1332  O     0.94168   0.59630   0.85649   0.00000  Uiso   1.00
O1333  O     0.94636   0.63390   0.92202   0.00000  Uiso   1.00
H1334  H     0.97727   0.61640   0.93359   0.00000  Uiso   1.00
C1335  C     0.74177   0.61995   0.78921   0.00000  Uiso   1.00
O1336  O     0.74396   0.59563   0.75794   0.00000  Uiso   1.00
O1337  O     0.69446   0.62614   0.80420   0.00000  Uiso   1.00
H1338  H     0.99843   0.60847   0.78667   0.00000  Uiso   1.00
C1339  C     0.92533   0.38030   0.87573   0.00000  Uiso   1.00
O1340  O     0.96580   0.37567   0.86071   0.00000  Uiso   1.00
O1341  O     0.92418   0.40756   0.91225   0.00000  Uiso   1.00
H1342  H     0.95902   0.42212   0.92278   0.00000  Uiso   1.00
F1343  F     0.90197   0.55026   0.96234   0.00000  Uiso   1.00
F1344  F     0.76471   0.44973   0.70433   0.00000  Uiso   1.00
C1345  C     0.16726   0.75351   0.83367   0.00000  Uiso   1.00
C1346  C     0.16597   0.91317   0.83298   0.00000  Uiso   1.00
C1347  C     0.06714   0.83376   0.82136   0.00000  Uiso   1.00
C1348  C     0.26619   0.83284   0.84531   0.00000  Uiso   1.00
C1349  C     0.01245   0.82838   0.81550   0.00000  Uiso   1.00
C1350  C     0.32088   0.83815   0.85116   0.00000  Uiso   1.00
C1351  C     0.12216   0.68744   0.81224   0.00000  Uiso   1.00
C1352  C     0.21094   0.97927   0.85476   0.00000  Uiso   1.00
C1353  C     0.12241   0.97744   0.81055   0.00000  Uiso   1.00
C1354  C     0.21097   0.68930   0.85573   0.00000  Uiso   1.00
C1355  C     0.16676   0.95738   0.83212   0.00000  Uiso   1.00
C1356  C     0.16648   0.70931   0.83454   0.00000  Uiso   1.00
C1357  C     0.20097   0.85840   0.69516   0.00000  Uiso   1.00
C1358  C     0.13237   0.80826   0.97151   0.00000  Uiso   1.00
C1359  C     0.20097   0.85842   0.98052   0.00000  Uiso   1.00
C1360  C     0.13237   0.80824   0.68615   0.00000  Uiso   1.00
H1361  H     0.22837   0.87842   0.71698   0.00000  Uiso   1.00
H1362  H     0.10497   0.78824   0.94968   0.00000  Uiso   1.00
N1363  N     0.16665   0.83332   0.95240   0.00000  Uiso   1.00
N1364  N     0.16668   0.83334   0.71427   0.00000  Uiso   1.00
O1365  O     0.16666   0.77225   0.87154   0.00000  Uiso   1.00
O1366  O     0.16667   0.89442   0.79513   0.00000  Uiso   1.00
O1367  O     0.16666   0.77226   0.79510   0.00000  Uiso   1.00
O1368  O     0.16667   0.89441   0.87157   0.00000  Uiso   1.00
O1369  O     0.09058   0.83333   0.86261   0.00000  Uiso   1.00
O1370  O     0.24275   0.83334   0.80405   0.00000  Uiso   1.00
O1371  O     0.09058   0.83334   0.78617   0.00000  Uiso   1.00
O1372  O     0.24275   0.83333   0.88050   0.00000  Uiso   1.00
Zn1373 Zn    0.16667   0.83333   0.88437   0.00000  Uiso   1.00
Zn1374 Zn    0.16667   0.83334   0.78229   0.00000  Uiso   1.00
C1375  C     0.32158   0.80510   0.77321   0.00000  Uiso   1.00
O1376  O     0.32931   0.81734   0.73540   0.00000  Uiso   1.00
O1377  O     0.29054   0.76913   0.77697   0.00000  Uiso   1.00
H1378  H     0.27557   0.75678   0.74603   0.00000  Uiso   1.00
C1379  C     0.01175   0.86149   0.89341   0.00000  Uiso   1.00
O1380  O     0.00421   0.84921   0.93126   0.00000  Uiso   1.00
O1381  O     0.04247   0.89763   0.88954   0.00000  Uiso   1.00
H1382  H     0.05727   0.91014   0.92044   0.00000  Uiso   1.00
C1383  C     0.07577   0.70990   0.79070   0.00000  Uiso   1.00
O1384  O     0.05696   0.73571   0.81284   0.00000  Uiso   1.00
O1385  O     0.05357   0.70114   0.74542   0.00000  Uiso   1.00
H1386  H     0.02231   0.71848   0.73458   0.00000  Uiso   1.00
C1387  C     0.25697   0.95687   0.87729   0.00000  Uiso   1.00
O1388  O     0.27501   0.92963   0.85649   0.00000  Uiso   1.00
O1389  O     0.27969   0.96723   0.92202   0.00000  Uiso   1.00
H1390  H     0.31060   0.94973   0.93359   0.00000  Uiso   1.00
C1391  C     0.07510   0.95329   0.78921   0.00000  Uiso   1.00
O1392  O     0.07730   0.92896   0.75794   0.00000  Uiso   1.00
O1393  O     0.02779   0.95947   0.80420   0.00000  Uiso   1.00
H1394  H     0.33176   0.94181   0.78667   0.00000  Uiso   1.00
C1395  C     0.25867   0.71364   0.87573   0.00000  Uiso   1.00
O1396  O     0.29913   0.70900   0.86071   0.00000  Uiso   1.00
O1397  O     0.25752   0.74090   0.91225   0.00000  Uiso   1.00
H1398  H     0.29236   0.75545   0.92278   0.00000  Uiso   1.00
F1399  F     0.23530   0.88359   0.96234   0.00000  Uiso   1.00
F1400  F     0.09804   0.78306   0.70433   0.00000  Uiso   1.00
C1401  C     0.50059   0.75351   0.83367   0.00000  Uiso   1.00
C1402  C     0.49930   0.91317   0.83298   0.00000  Uiso   1.00
C1403  C     0.40047   0.83376   0.82136   0.00000  Uiso   1.00
C1404  C     0.59953   0.83284   0.84531   0.00000  Uiso   1.00
C1405  C     0.34579   0.82838   0.81550   0.00000  Uiso   1.00
C1406  C     0.65421   0.83815   0.85116   0.00000  Uiso   1.00
C1407  C     0.45549   0.68744   0.81224   0.00000  Uiso   1.00
C1408  C     0.54427   0.97927   0.85476   0.00000  Uiso   1.00
C1409  C     0.45574   0.97744   0.81055   0.00000  Uiso   1.00
C1410  C     0.54431   0.68930   0.85573   0.00000  Uiso   1.00
C1411  C     0.50009   0.95738   0.83212   0.00000  Uiso   1.00
C1412  C     0.49982   0.70931   0.83454   0.00000  Uiso   1.00
C1413  C     0.53430   0.85840   0.69516   0.00000  Uiso   1.00
C1414  C     0.46571   0.80826   0.97151   0.00000  Uiso   1.00
C1415  C     0.53430   0.85842   0.98052   0.00000  Uiso   1.00
C1416  C     0.46571   0.80824   0.68615   0.00000  Uiso   1.00
H1417  H     0.56171   0.87842   0.71698   0.00000  Uiso   1.00
H1418  H     0.43830   0.78824   0.94968   0.00000  Uiso   1.00
N1419  N     0.49999   0.83332   0.95240   0.00000  Uiso   1.00
N1420  N     0.50001   0.83334   0.71427   0.00000  Uiso   1.00
O1421  O     0.50000   0.77225   0.87154   0.00000  Uiso   1.00
O1422  O     0.50000   0.89442   0.79513   0.00000  Uiso   1.00
O1423  O     0.50000   0.77226   0.79510   0.00000  Uiso   1.00
O1424  O     0.50000   0.89441   0.87157   0.00000  Uiso   1.00
O1425  O     0.42392   0.83333   0.86261   0.00000  Uiso   1.00
O1426  O     0.57608   0.83334   0.80405   0.00000  Uiso   1.00
O1427  O     0.42392   0.83334   0.78617   0.00000  Uiso   1.00
O1428  O     0.57608   0.83333   0.88050   0.00000  Uiso   1.00
Zn1429 Zn    0.50000   0.83333   0.88437   0.00000  Uiso   1.00
Zn1430 Zn    0.50000   0.83334   0.78229   0.00000  Uiso   1.00
C1431  C     0.65492   0.80510   0.77321   0.00000  Uiso   1.00
O1432  O     0.66265   0.81734   0.73540   0.00000  Uiso   1.00
O1433  O     0.62387   0.76913   0.77697   0.00000  Uiso   1.00
H1434  H     0.60890   0.75678   0.74603   0.00000  Uiso   1.00
C1435  C     0.34508   0.86149   0.89341   0.00000  Uiso   1.00
O1436  O     0.33755   0.84921   0.93126   0.00000  Uiso   1.00
O1437  O     0.37581   0.89763   0.88954   0.00000  Uiso   1.00
H1438  H     0.39061   0.91014   0.92044   0.00000  Uiso   1.00
C1439  C     0.40911   0.70990   0.79070   0.00000  Uiso   1.00
O1440  O     0.39029   0.73571   0.81284   0.00000  Uiso   1.00
O1441  O     0.38690   0.70114   0.74542   0.00000  Uiso   1.00
H1442  H     0.35565   0.71848   0.73458   0.00000  Uiso   1.00
C1443  C     0.59030   0.95687   0.87729   0.00000  Uiso   1.00
O1444  O     0.60834   0.92963   0.85649   0.00000  Uiso   1.00
O1445  O     0.61303   0.96723   0.92202   0.00000  Uiso   1.00
H1446  H     0.64393   0.94973   0.93359   0.00000  Uiso   1.00
C1447  C     0.40843   0.95329   0.78921   0.00000  Uiso   1.00
O1448  O     0.41063   0.92896   0.75794   0.00000  Uiso   1.00
O1449  O     0.36113   0.95947   0.80420   0.00000  Uiso   1.00
H1450  H     0.66510   0.94181   0.78667   0.00000  Uiso   1.00
C1451  C     0.59200   0.71364   0.87573   0.00000  Uiso   1.00
O1452  O     0.63247   0.70900   0.86071   0.00000  Uiso   1.00
O1453  O     0.59085   0.74090   0.91225   0.00000  Uiso   1.00
H1454  H     0.62569   0.75545   0.92278   0.00000  Uiso   1.00
F1455  F     0.56863   0.88359   0.96234   0.00000  Uiso   1.00
F1456  F     0.43138   0.78306   0.70433   0.00000  Uiso   1.00
C1457  C     0.83392   0.75351   0.83367   0.00000  Uiso   1.00
C1458  C     0.83263   0.91317   0.83298   0.00000  Uiso   1.00
C1459  C     0.73380   0.83376   0.82136   0.00000  Uiso   1.00
C1460  C     0.93286   0.83284   0.84531   0.00000  Uiso   1.00
C1461  C     0.67912   0.82838   0.81550   0.00000  Uiso   1.00
C1462  C     0.98755   0.83815   0.85116   0.00000  Uiso   1.00
C1463  C     0.78882   0.68744   0.81224   0.00000  Uiso   1.00
C1464  C     0.87761   0.97927   0.85476   0.00000  Uiso   1.00
C1465  C     0.78907   0.97744   0.81055   0.00000  Uiso   1.00
C1466  C     0.87764   0.68930   0.85573   0.00000  Uiso   1.00
C1467  C     0.83342   0.95738   0.83212   0.00000  Uiso   1.00
C1468  C     0.83315   0.70931   0.83454   0.00000  Uiso   1.00
C1469  C     0.86763   0.85840   0.69516   0.00000  Uiso   1.00
C1470  C     0.79904   0.80826   0.97151   0.00000  Uiso   1.00
C1471  C     0.86763   0.85842   0.98052   0.00000  Uiso   1.00
C1472  C     0.79904   0.80824   0.68615   0.00000  Uiso   1.00
H1473  H     0.89504   0.87842   0.71698   0.00000  Uiso   1.00
H1474  H     0.77163   0.78824   0.94968   0.00000  Uiso   1.00
N1475  N     0.83332   0.83332   0.95240   0.00000  Uiso   1.00
N1476  N     0.83335   0.83334   0.71427   0.00000  Uiso   1.00
O1477  O     0.83333   0.77225   0.87154   0.00000  Uiso   1.00
O1478  O     0.83334   0.89442   0.79513   0.00000  Uiso   1.00
O1479  O     0.83333   0.77226   0.79510   0.00000  Uiso   1.00
O1480  O     0.83334   0.89441   0.87157   0.00000  Uiso   1.00
O1481  O     0.75725   0.83333   0.86261   0.00000  Uiso   1.00
O1482  O     0.90942   0.83334   0.80405   0.00000  Uiso   1.00
O1483  O     0.75725   0.83334   0.78617   0.00000  Uiso   1.00
O1484  O     0.90942   0.83333   0.88050   0.00000  Uiso   1.00
Zn1485 Zn    0.83333   0.83333   0.88437   0.00000  Uiso   1.00
Zn1486 Zn    0.83333   0.83334   0.78229   0.00000  Uiso   1.00
C1487  C     0.98825   0.80510   0.77321   0.00000  Uiso   1.00
O1488  O     0.99598   0.81734   0.73540   0.00000  Uiso   1.00
O1489  O     0.95721   0.76913   0.77697   0.00000  Uiso   1.00
H1490  H     0.94224   0.75678   0.74603   0.00000  Uiso   1.00
C1491  C     0.67841   0.86149   0.89341   0.00000  Uiso   1.00
O1492  O     0.67088   0.84921   0.93126   0.00000  Uiso   1.00
O1493  O     0.70914   0.89763   0.88954   0.00000  Uiso   1.00
H1494  H     0.72394   0.91014   0.92044   0.00000  Uiso   1.00
C1495  C     0.74244   0.70990   0.79070   0.00000  Uiso   1.00
O1496  O     0.72362   0.73571   0.81284   0.00000  Uiso   1.00
O1497  O     0.72024   0.70114   0.74542   0.00000  Uiso   1.00
H1498  H     0.68898   0.71848   0.73458   0.00000  Uiso   1.00
C1499  C     0.92364   0.95687   0.87729   0.00000  Uiso   1.00
O1500  O     0.94168   0.92963   0.85649   0.00000  Uiso   1.00
O1501  O     0.94636   0.96723   0.92202   0.00000  Uiso   1.00
H1502  H     0.97727   0.94973   0.93359   0.00000  Uiso   1.00
C1503  C     0.74177   0.95329   0.78921   0.00000  Uiso   1.00
O1504  O     0.74396   0.92896   0.75794   0.00000  Uiso   1.00
O1505  O     0.69446   0.95947   0.80420   0.00000  Uiso   1.00
H1506  H     0.99843   0.94181   0.78667   0.00000  Uiso   1.00
C1507  C     0.92533   0.71364   0.87573   0.00000  Uiso   1.00
O1508  O     0.96580   0.70900   0.86071   0.00000  Uiso   1.00
O1509  O     0.92418   0.74090   0.91225   0.00000  Uiso   1.00
H1510  H     0.95902   0.75545   0.92278   0.00000  Uiso   1.00
F1511  F     0.90197   0.88359   0.96234   0.00000  Uiso   1.00
F1512  F     0.76471   0.78306   0.70433   0.00000  Uiso   1.00
loop_
_geom_bond_atom_site_label_1
_geom_bond_atom_site_label_2
_geom_bond_distance
_geom_bond_site_symmetry_2
_ccdc_geom_bond_type
C1     O21     1.275   .     A
C1     C12     1.415   .     S
C1     O23     1.281   .     A
C2     O22     1.276   .     A
C2     O24     1.281   .     A
C2     C11     1.416   .     S
C3     O27     1.285   .     A
C3     C5      1.418   .     S
C3     O25     1.275   .     A
C4     O26     1.275   .     A
C4     C6      1.417   .     S
C4     O28     1.286   .     A
C5     C118    1.364   1_455 S
C5     C143    1.501   1_455 S
C6     C61     1.364   .     S
C6     C91     1.500   .     S
C7     C12     1.407   .     A
C7     C39     1.485   .     S
C7     C345    1.390   1_545 S
C8     C43     1.486   .     S
C8     C11     1.408   .     A
C8     C178    1.390   .     S
C9     C11     1.407   .     A
C9     C47     1.491   .     S
C9     C175    1.390   .     S
C10    C12     1.405   .     A
C10    C51     1.491   .     S
C10    C344    1.390   1_545 S
C13    H17     1.082   .     S
C13    N20     1.366   .     A
C13    C1023   1.416   1_554 S
C14    H18     1.082   .     S
C14    N19     1.365   .     A
C14    C520    1.416   .     S
C15    N19     1.367   .     A
C15    F55     1.355   .     S
C15    C517    1.416   .     S
C16    F56     1.355   .     S
C16    N20     1.367   .     A
C16    C1022   1.416   1_554 S
N19    Zn29    2.007   .     S
N20    Zn30    2.007   .     S
O21    Zn29    1.996   .     S
O22    Zn30    1.996   .     S
O23    Zn30    1.990   .     S
O24    Zn29    1.990   .     S
O25    Zn29    1.993   .     S
O26    Zn30    1.993   .     S
O27    Zn30    2.010   .     S
O28    Zn29    2.010   .     S
C31    O33     1.400   .     S
C31    O32     1.223   .     D
C31    C61     1.501   .     S
O33    H34     1.014   .     S
C35    O37     1.400   .     S
C35    O36     1.223   .     D
C35    C118    1.500   1_455 S
O37    H38     1.014   .     S
C39    O41     1.398   .     S
C39    O40     1.221   .     D
O41    H42     1.013   .     S
C43    O44     1.220   .     D
C43    O45     1.398   .     S
O45    H46     1.013   .     S
C47    O48     1.222   .     D
C47    O49     1.398   .     S
O49    H162    1.014   1_455 S
H50    O105    1.014   .     S
C51    O53     1.397   .     S
C51    O52     1.223   .     D
O53    H54     1.014   .     S
C57    O77     1.275   .     A
C57    C68     1.415   .     S
C57    O79     1.281   .     A
C58    O78     1.276   .     A
C58    O80     1.281   .     A
C58    C67     1.416   .     S
C59    O83     1.285   .     A
C59    C61     1.418   .     S
C59    O81     1.275   .     A
C60    O82     1.275   .     A
C60    C62     1.417   .     S
C60    O84     1.286   .     A
C62    C117    1.364   .     S
C62    C147    1.500   .     S
C63    C68     1.407   .     A
C63    C95     1.485   .     S
C63    C401    1.390   1_545 S
C64    C99     1.486   .     S
C64    C67     1.408   .     A
C64    C234    1.390   .     S
C65    C67     1.407   .     A
C65    C103    1.491   .     S
C65    C231    1.390   .     S
C66    C68     1.405   .     A
C66    C107    1.491   .     S
C66    C400    1.390   1_545 S
C69    H73     1.082   .     S
C69    N76     1.366   .     A
C69    C1079   1.416   1_554 S
C70    H74     1.082   .     S
C70    N75     1.365   .     A
C70    C576    1.416   .     S
C71    N75     1.367   .     A
C71    F111    1.355   .     S
C71    C573    1.416   .     S
C72    F112    1.355   .     S
C72    N76     1.367   .     A
C72    C1078   1.416   1_554 S
N75    Zn85    2.007   .     S
N76    Zn86    2.007   .     S
O77    Zn85    1.996   .     S
O78    Zn86    1.996   .     S
O79    Zn86    1.990   .     S
O80    Zn85    1.990   .     S
O81    Zn85    1.993   .     S
O82    Zn86    1.993   .     S
O83    Zn86    2.010   .     S
O84    Zn85    2.010   .     S
C87    O89     1.400   .     S
C87    O88     1.223   .     D
C87    C117    1.501   .     S
O89    H90     1.014   .     S
C91    O93     1.400   .     S
C91    O92     1.223   .     D
O93    H94     1.014   .     S
C95    O97     1.398   .     S
C95    O96     1.221   .     D
O97    H98     1.013   .     S
C99    O100    1.220   .     D
C99    O101    1.398   .     S
O101   H102    1.013   .     S
C103   O104    1.222   .     D
C103   O105    1.398   .     S
H106   O161    1.014   .     S
C107   O109    1.397   .     S
C107   O108    1.223   .     D
O109   H110    1.014   .     S
C113   O133    1.275   .     A
C113   C124    1.415   .     S
C113   O135    1.281   .     A
C114   O134    1.276   .     A
C114   O136    1.281   .     A
C114   C123    1.416   .     S
C115   O139    1.285   .     A
C115   C117    1.418   .     S
C115   O137    1.275   .     A
C116   O138    1.275   .     A
C116   C118    1.417   .     S
C116   O140    1.286   .     A
C118   C5      1.364   1_655 S
C118   C35     1.500   1_655 S
C119   C124    1.407   .     A
C119   C151    1.485   .     S
C119   C457    1.390   1_545 S
C120   C155    1.486   .     S
C120   C123    1.408   .     A
C120   C290    1.390   .     S
C121   C123    1.407   .     A
C121   C159    1.491   .     S
C121   C287    1.390   .     S
C122   C124    1.405   .     A
C122   C163    1.491   .     S
C122   C456    1.390   1_545 S
C125   H129    1.082   .     S
C125   N132    1.366   .     A
C125   C1135   1.416   1_554 S
C126   H130    1.082   .     S
C126   N131    1.365   .     A
C126   C632    1.416   .     S
C127   N131    1.367   .     A
C127   F167    1.355   .     S
C127   C629    1.416   .     S
C128   F168    1.355   .     S
C128   N132    1.367   .     A
C128   C1134   1.416   1_554 S
N131   Zn141   2.007   .     S
N132   Zn142   2.007   .     S
O133   Zn141   1.996   .     S
O134   Zn142   1.996   .     S
O135   Zn142   1.990   .     S
O136   Zn141   1.990   .     S
O137   Zn141   1.993   .     S
O138   Zn142   1.993   .     S
O139   Zn142   2.010   .     S
O140   Zn141   2.010   .     S
C143   O145    1.400   .     S
C143   O144    1.223   .     D
C143   C5      1.501   1_655 S
O145   H146    1.014   .     S
C147   O149    1.400   .     S
C147   O148    1.223   .     D
O149   H150    1.014   .     S
C151   O153    1.398   .     S
C151   O152    1.221   .     D
O153   H154    1.013   .     S
C155   O156    1.220   .     D
C155   O157    1.398   .     S
O157   H158    1.013   .     S
C159   O160    1.222   .     D
C159   O161    1.398   .     S
H162   O49     1.014   1_655 S
C163   O165    1.397   .     S
C163   O164    1.223   .     D
O165   H166    1.014   .     S
C169   O189    1.275   .     A
C169   C180    1.415   .     S
C169   O191    1.281   .     A
C170   O190    1.276   .     A
C170   O192    1.281   .     A
C170   C179    1.416   .     S
C171   O195    1.285   .     A
C171   C173    1.418   .     S
C171   O193    1.275   .     A
C172   O194    1.275   .     A
C172   C174    1.417   .     S
C172   O196    1.286   .     A
C173   C286    1.364   1_455 S
C173   C311    1.501   1_455 S
C174   C229    1.364   .     S
C174   C259    1.500   .     S
C175   C180    1.407   .     A
C175   C207    1.485   .     S
C176   C211    1.486   .     S
C176   C179    1.408   .     A
C176   C346    1.390   .     S
C177   C179    1.407   .     A
C177   C215    1.491   .     S
C177   C343    1.390   .     S
C178   C180    1.405   .     A
C178   C219    1.491   .     S
C181   H185    1.082   .     S
C181   N188    1.366   .     A
C181   C1191   1.416   1_554 S
C182   H186    1.082   .     S
C182   N187    1.365   .     A
C182   C688    1.416   .     S
C183   N187    1.367   .     A
C183   F223    1.355   .     S
C183   C685    1.416   .     S
C184   F224    1.355   .     S
C184   N188    1.367   .     A
C184   C1190   1.416   1_554 S
N187   Zn197   2.007   .     S
N188   Zn198   2.007   .     S
O189   Zn197   1.996   .     S
O190   Zn198   1.996   .     S
O191   Zn198   1.990   .     S
O192   Zn197   1.990   .     S
O193   Zn197   1.993   .     S
O194   Zn198   1.993   .     S
O195   Zn198   2.010   .     S
O196   Zn197   2.010   .     S
C199   O201    1.400   .     S
C199   O200    1.223   .     D
C199   C229    1.501   .     S
O201   H202    1.014   .     S
C203   O205    1.400   .     S
C203   O204    1.223   .     D
C203   C286    1.500   1_455 S
O205   H206    1.014   .     S
C207   O209    1.398   .     S
C207   O208    1.221   .     D
O209   H210    1.013   .     S
C211   O212    1.220   .     D
C211   O213    1.398   .     S
O213   H214    1.013   .     S
C215   O216    1.222   .     D
C215   O217    1.398   .     S
O217   H330    1.014   1_455 S
H218   O273    1.014   .     S
C219   O221    1.397   .     S
C219   O220    1.223   .     D
O221   H222    1.014   .     S
C225   O245    1.275   .     A
C225   C236    1.415   .     S
C225   O247    1.281   .     A
C226   O246    1.276   .     A
C226   O248    1.281   .     A
C226   C235    1.416   .     S
C227   O251    1.285   .     A
C227   C229    1.418   .     S
C227   O249    1.275   .     A
C228   O250    1.275   .     A
C228   C230    1.417   .     S
C228   O252    1.286   .     A
C230   C285    1.364   .     S
C230   C315    1.500   .     S
C231   C236    1.407   .     A
C231   C263    1.485   .     S
C232   C267    1.486   .     S
C232   C235    1.408   .     A
C232   C402    1.390   .     S
C233   C235    1.407   .     A
C233   C271    1.491   .     S
C233   C399    1.390   .     S
C234   C236    1.405   .     A
C234   C275    1.491   .     S
C237   H241    1.082   .     S
C237   N244    1.366   .     A
C237   C1247   1.416   1_554 S
C238   H242    1.082   .     S
C238   N243    1.365   .     A
C238   C744    1.416   .     S
C239   N243    1.367   .     A
C239   F279    1.355   .     S
C239   C741    1.416   .     S
C240   F280    1.355   .     S
C240   N244    1.367   .     A
C240   C1246   1.416   1_554 S
N243   Zn253   2.007   .     S
N244   Zn254   2.007   .     S
O245   Zn253   1.996   .     S
O246   Zn254   1.996   .     S
O247   Zn254   1.990   .     S
O248   Zn253   1.990   .     S
O249   Zn253   1.993   .     S
O250   Zn254   1.993   .     S
O251   Zn254   2.010   .     S
O252   Zn253   2.010   .     S
C255   O257    1.400   .     S
C255   O256    1.223   .     D
C255   C285    1.501   .     S
O257   H258    1.014   .     S
C259   O261    1.400   .     S
C259   O260    1.223   .     D
O261   H262    1.014   .     S
C263   O265    1.398   .     S
C263   O264    1.221   .     D
O265   H266    1.013   .     S
C267   O268    1.220   .     D
C267   O269    1.398   .     S
O269   H270    1.013   .     S
C271   O272    1.222   .     D
C271   O273    1.398   .     S
H274   O329    1.014   .     S
C275   O277    1.397   .     S
C275   O276    1.223   .     D
O277   H278    1.014   .     S
C281   O301    1.275   .     A
C281   C292    1.415   .     S
C281   O303    1.281   .     A
C282   O302    1.276   .     A
C282   O304    1.281   .     A
C282   C291    1.416   .     S
C283   O307    1.285   .     A
C283   C285    1.418   .     S
C283   O305    1.275   .     A
C284   O306    1.275   .     A
C284   C286    1.417   .     S
C284   O308    1.286   .     A
C286   C173    1.364   1_655 S
C286   C203    1.500   1_655 S
C287   C292    1.407   .     A
C287   C319    1.485   .     S
C288   C323    1.486   .     S
C288   C291    1.408   .     A
C288   C458    1.390   .     S
C289   C291    1.407   .     A
C289   C327    1.491   .     S
C289   C455    1.390   .     S
C290   C292    1.405   .     A
C290   C331    1.491   .     S
C293   H297    1.082   .     S
C293   N300    1.366   .     A
C293   C1303   1.416   1_554 S
C294   H298    1.082   .     S
C294   N299    1.365   .     A
C294   C800    1.416   .     S
C295   N299    1.367   .     A
C295   F335    1.355   .     S
C295   C797    1.416   .     S
C296   F336    1.355   .     S
C296   N300    1.367   .     A
C296   C1302   1.416   1_554 S
N299   Zn309   2.007   .     S
N300   Zn310   2.007   .     S
O301   Zn309   1.996   .     S
O302   Zn310   1.996   .     S
O303   Zn310   1.990   .     S
O304   Zn309   1.990   .     S
O305   Zn309   1.993   .     S
O306   Zn310   1.993   .     S
O307   Zn310   2.010   .     S
O308   Zn309   2.010   .     S
C311   O313    1.400   .     S
C311   O312    1.223   .     D
C311   C173    1.501   1_655 S
O313   H314    1.014   .     S
C315   O317    1.400   .     S
C315   O316    1.223   .     D
O317   H318    1.014   .     S
C319   O321    1.398   .     S
C319   O320    1.221   .     D
O321   H322    1.013   .     S
C323   O324    1.220   .     D
C323   O325    1.398   .     S
O325   H326    1.013   .     S
C327   O328    1.222   .     D
C327   O329    1.398   .     S
H330   O217    1.014   1_655 S
C331   O333    1.397   .     S
C331   O332    1.223   .     D
O333   H334    1.014   .     S
C337   O357    1.275   .     A
C337   C348    1.415   .     S
C337   O359    1.281   .     A
C338   O358    1.276   .     A
C338   O360    1.281   .     A
C338   C347    1.416   .     S
C339   O363    1.285   .     A
C339   C341    1.418   .     S
C339   O361    1.275   .     A
C340   O362    1.275   .     A
C340   C342    1.417   .     S
C340   O364    1.286   .     A
C341   C454    1.364   1_455 S
C341   C479    1.501   1_455 S
C342   C397    1.364   .     S
C342   C427    1.500   .     S
C343   C348    1.407   .     A
C343   C375    1.485   .     S
C344   C379    1.486   .     S
C344   C347    1.408   .     A
C344   C10     1.390   1_565 S
C345   C347    1.407   .     A
C345   C383    1.491   .     S
C345   C7      1.390   1_565 S
C346   C348    1.405   .     A
C346   C387    1.491   .     S
C349   H353    1.082   .     S
C349   N356    1.366   .     A
C349   C1359   1.416   1_554 S
C350   H354    1.082   .     S
C350   N355    1.365   .     A
C350   C856    1.416   .     S
C351   N355    1.367   .     A
C351   F391    1.355   .     S
C351   C853    1.416   .     S
C352   F392    1.355   .     S
C352   N356    1.367   .     A
C352   C1358   1.416   1_554 S
N355   Zn365   2.007   .     S
N356   Zn366   2.007   .     S
O357   Zn365   1.996   .     S
O358   Zn366   1.996   .     S
O359   Zn366   1.990   .     S
O360   Zn365   1.990   .     S
O361   Zn365   1.993   .     S
O362   Zn366   1.993   .     S
O363   Zn366   2.010   .     S
O364   Zn365   2.010   .     S
C367   O369    1.400   .     S
C367   O368    1.223   .     D
C367   C397    1.501   .     S
O369   H370    1.014   .     S
C371   O373    1.400   .     S
C371   O372    1.223   .     D
C371   C454    1.500   1_455 S
O373   H374    1.014   .     S
C375   O377    1.398   .     S
C375   O376    1.221   .     D
O377   H378    1.013   .     S
C379   O380    1.220   .     D
C379   O381    1.398   .     S
O381   H382    1.013   .     S
C383   O384    1.222   .     D
C383   O385    1.398   .     S
O385   H498    1.014   1_455 S
H386   O441    1.014   .     S
C387   O389    1.397   .     S
C387   O388    1.223   .     D
O389   H390    1.014   .     S
C393   O413    1.275   .     A
C393   C404    1.415   .     S
C393   O415    1.281   .     A
C394   O414    1.276   .     A
C394   O416    1.281   .     A
C394   C403    1.416   .     S
C395   O419    1.285   .     A
C395   C397    1.418   .     S
C395   O417    1.275   .     A
C396   O418    1.275   .     A
C396   C398    1.417   .     S
C396   O420    1.286   .     A
C398   C453    1.364   .     S
C398   C483    1.500   .     S
C399   C404    1.407   .     A
C399   C431    1.485   .     S
C400   C435    1.486   .     S
C400   C403    1.408   .     A
C400   C66     1.390   1_565 S
C401   C403    1.407   .     A
C401   C439    1.491   .     S
C401   C63     1.390   1_565 S
C402   C404    1.405   .     A
C402   C443    1.491   .     S
C405   H409    1.082   .     S
C405   N412    1.366   .     A
C405   C1415   1.416   1_554 S
C406   H410    1.082   .     S
C406   N411    1.365   .     A
C406   C912    1.416   .     S
C407   N411    1.367   .     A
C407   F447    1.355   .     S
C407   C909    1.416   .     S
C408   F448    1.355   .     S
C408   N412    1.367   .     A
C408   C1414   1.416   1_554 S
N411   Zn421   2.007   .     S
N412   Zn422   2.007   .     S
O413   Zn421   1.996   .     S
O414   Zn422   1.996   .     S
O415   Zn422   1.990   .     S
O416   Zn421   1.990   .     S
O417   Zn421   1.993   .     S
O418   Zn422   1.993   .     S
O419   Zn422   2.010   .     S
O420   Zn421   2.010   .     S
C423   O425    1.400   .     S
C423   O424    1.223   .     D
C423   C453    1.501   .     S
O425   H426    1.014   .     S
C427   O429    1.400   .     S
C427   O428    1.223   .     D
O429   H430    1.014   .     S
C431   O433    1.398   .     S
C431   O432    1.221   .     D
O433   H434    1.013   .     S
C435   O436    1.220   .     D
C435   O437    1.398   .     S
O437   H438    1.013   .     S
C439   O440    1.222   .     D
C439   O441    1.398   .     S
H442   O497    1.014   .     S
C443   O445    1.397   .     S
C443   O444    1.223   .     D
O445   H446    1.014   .     S
C449   O469    1.275   .     A
C449   C460    1.415   .     S
C449   O471    1.281   .     A
C450   O470    1.276   .     A
C450   O472    1.281   .     A
C450   C459    1.416   .     S
C451   O475    1.285   .     A
C451   C453    1.418   .     S
C451   O473    1.275   .     A
C452   O474    1.275   .     A
C452   C454    1.417   .     S
C452   O476    1.286   .     A
C454   C341    1.364   1_655 S
C454   C371    1.500   1_655 S
C455   C460    1.407   .     A
C455   C487    1.485   .     S
C456   C491    1.486   .     S
C456   C459    1.408   .     A
C456   C122    1.390   1_565 S
C457   C459    1.407   .     A
C457   C495    1.491   .     S
C457   C119    1.390   1_565 S
C458   C460    1.405   .     A
C458   C499    1.491   .     S
C461   H465    1.082   .     S
C461   N468    1.366   .     A
C461   C1471   1.416   1_554 S
C462   H466    1.082   .     S
C462   N467    1.365   .     A
C462   C968    1.416   .     S
C463   N467    1.367   .     A
C463   F503    1.355   .     S
C463   C965    1.416   .     S
C464   F504    1.355   .     S
C464   N468    1.367   .     A
C464   C1470   1.416   1_554 S
N467   Zn477   2.007   .     S
N468   Zn478   2.007   .     S
O469   Zn477   1.996   .     S
O470   Zn478   1.996   .     S
O471   Zn478   1.990   .     S
O472   Zn477   1.990   .     S
O473   Zn477   1.993   .     S
O474   Zn478   1.993   .     S
O475   Zn478   2.010   .     S
O476   Zn477   2.010   .     S
C479   O481    1.400   .     S
C479   O480    1.223   .     D
C479   C341    1.501   1_655 S
O481   H482    1.014   .     S
C483   O485    1.400   .     S
C483   O484    1.223   .     D
O485   H486    1.014   .     S
C487   O489    1.398   .     S
C487   O488    1.221   .     D
O489   H490    1.013   .     S
C491   O492    1.220   .     D
C491   O493    1.398   .     S
O493   H494    1.013   .     S
C495   O496    1.222   .     D
C495   O497    1.398   .     S
H498   O385    1.014   1_655 S
C499   O501    1.397   .     S
C499   O500    1.223   .     D
O501   H502    1.014   .     S
C505   O525    1.275   .     A
C505   C516    1.415   .     S
C505   O527    1.281   .     A
C506   O526    1.276   .     A
C506   O528    1.281   .     A
C506   C515    1.416   .     S
C507   O531    1.285   .     A
C507   C509    1.418   .     S
C507   O529    1.275   .     A
C508   O530    1.275   .     A
C508   C510    1.417   .     S
C508   O532    1.286   .     A
C509   C622    1.364   1_455 S
C509   C647    1.501   1_455 S
C510   C565    1.364   .     S
C510   C595    1.500   .     S
C511   C516    1.407   .     A
C511   C543    1.485   .     S
C511   C849    1.390   1_545 S
C512   C547    1.486   .     S
C512   C515    1.408   .     A
C512   C682    1.390   .     S
C513   C515    1.407   .     A
C513   C551    1.491   .     S
C513   C679    1.390   .     S
C514   C516    1.405   .     A
C514   C555    1.491   .     S
C514   C848    1.390   1_545 S
C517   H521    1.082   .     S
C517   N524    1.366   .     A
C518   H522    1.082   .     S
C518   N523    1.365   .     A
C518   C1024   1.416   .     S
C519   N523    1.367   .     A
C519   F559    1.355   .     S
C519   C1021   1.416   .     S
C520   F560    1.355   .     S
C520   N524    1.367   .     A
N523   Zn533   2.007   .     S
N524   Zn534   2.007   .     S
O525   Zn533   1.996   .     S
O526   Zn534   1.996   .     S
O527   Zn534   1.990   .     S
O528   Zn533   1.990   .     S
O529   Zn533   1.993   .     S
O530   Zn534   1.993   .     S
O531   Zn534   2.010   .     S
O532   Zn533   2.010   .     S
C535   O537    1.400   .     S
C535   O536    1.223   .     D
C535   C565    1.501   .     S
O537   H538    1.014   .     S
C539   O541    1.400   .     S
C539   O540    1.223   .     D
C539   C622    1.500   1_455 S
O541   H542    1.014   .     S
C543   O545    1.398   .     S
C543   O544    1.221   .     D
O545   H546    1.013   .     S
C547   O548    1.220   .     D
C547   O549    1.398   .     S
O549   H550    1.013   .     S
C551   O552    1.222   .     D
C551   O553    1.398   .     S
O553   H666    1.014   1_455 S
H554   O609    1.014   .     S
C555   O557    1.397   .     S
C555   O556    1.223   .     D
O557   H558    1.014   .     S
C561   O581    1.275   .     A
C561   C572    1.415   .     S
C561   O583    1.281   .     A
C562   O582    1.276   .     A
C562   O584    1.281   .     A
C562   C571    1.416   .     S
C563   O587    1.285   .     A
C563   C565    1.418   .     S
C563   O585    1.275   .     A
C564   O586    1.275   .     A
C564   C566    1.417   .     S
C564   O588    1.286   .     A
C566   C621    1.364   .     S
C566   C651    1.500   .     S
C567   C572    1.407   .     A
C567   C599    1.485   .     S
C567   C905    1.390   1_545 S
C568   C603    1.486   .     S
C568   C571    1.408   .     A
C568   C738    1.390   .     S
C569   C571    1.407   .     A
C569   C607    1.491   .     S
C569   C735    1.390   .     S
C570   C572    1.405   .     A
C570   C611    1.491   .     S
C570   C904    1.390   1_545 S
C573   H577    1.082   .     S
C573   N580    1.366   .     A
C574   H578    1.082   .     S
C574   N579    1.365   .     A
C574   C1080   1.416   .     S
C575   N579    1.367   .     A
C575   F615    1.355   .     S
C575   C1077   1.416   .     S
C576   F616    1.355   .     S
C576   N580    1.367   .     A
N579   Zn589   2.007   .     S
N580   Zn590   2.007   .     S
O581   Zn589   1.996   .     S
O582   Zn590   1.996   .     S
O583   Zn590   1.990   .     S
O584   Zn589   1.990   .     S
O585   Zn589   1.993   .     S
O586   Zn590   1.993   .     S
O587   Zn590   2.010   .     S
O588   Zn589   2.010   .     S
C591   O593    1.400   .     S
C591   O592    1.223   .     D
C591   C621    1.501   .     S
O593   H594    1.014   .     S
C595   O597    1.400   .     S
C595   O596    1.223   .     D
O597   H598    1.014   .     S
C599   O601    1.398   .     S
C599   O600    1.221   .     D
O601   H602    1.013   .     S
C603   O604    1.220   .     D
C603   O605    1.398   .     S
O605   H606    1.013   .     S
C607   O608    1.222   .     D
C607   O609    1.398   .     S
H610   O665    1.014   .     S
C611   O613    1.397   .     S
C611   O612    1.223   .     D
O613   H614    1.014   .     S
C617   O637    1.275   .     A
C617   C628    1.415   .     S
C617   O639    1.281   .     A
C618   O638    1.276   .     A
C618   O640    1.281   .     A
C618   C627    1.416   .     S
C619   O643    1.285   .     A
C619   C621    1.418   .     S
C619   O641    1.275   .     A
C620   O642    1.275   .     A
C620   C622    1.417   .     S
C620   O644    1.286   .     A
C622   C509    1.364   1_655 S
C622   C539    1.500   1_655 S
C623   C628    1.407   .     A
C623   C655    1.485   .     S
C623   C961    1.390   1_545 S
C624   C659    1.486   .     S
C624   C627    1.408   .     A
C624   C794    1.390   .     S
C625   C627    1.407   .     A
C625   C663    1.491   .     S
C625   C791    1.390   .     S
C626   C628    1.405   .     A
C626   C667    1.491   .     S
C626   C960    1.390   1_545 S
C629   H633    1.082   .     S
C629   N636    1.366   .     A
C630   H634    1.082   .     S
C630   N635    1.365   .     A
C630   C1136   1.416   .     S
C631   N635    1.367   .     A
C631   F671    1.355   .     S
C631   C1133   1.416   .     S
C632   F672    1.355   .     S
C632   N636    1.367   .     A
N635   Zn645   2.007   .     S
N636   Zn646   2.007   .     S
O637   Zn645   1.996   .     S
O638   Zn646   1.996   .     S
O639   Zn646   1.990   .     S
O640   Zn645   1.990   .     S
O641   Zn645   1.993   .     S
O642   Zn646   1.993   .     S
O643   Zn646   2.010   .     S
O644   Zn645   2.010   .     S
C647   O649    1.400   .     S
C647   O648    1.223   .     D
C647   C509    1.501   1_655 S
O649   H650    1.014   .     S
C651   O653    1.400   .     S
C651   O652    1.223   .     D
O653   H654    1.014   .     S
C655   O657    1.398   .     S
C655   O656    1.221   .     D
O657   H658    1.013   .     S
C659   O660    1.220   .     D
C659   O661    1.398   .     S
O661   H662    1.013   .     S
C663   O664    1.222   .     D
C663   O665    1.398   .     S
H666   O553    1.014   1_655 S
C667   O669    1.397   .     S
C667   O668    1.223   .     D
O669   H670    1.014   .     S
C673   O693    1.275   .     A
C673   C684    1.415   .     S
C673   O695    1.281   .     A
C674   O694    1.276   .     A
C674   O696    1.281   .     A
C674   C683    1.416   .     S
C675   O699    1.285   .     A
C675   C677    1.418   .     S
C675   O697    1.275   .     A
C676   O698    1.275   .     A
C676   C678    1.417   .     S
C676   O700    1.286   .     A
C677   C790    1.364   1_455 S
C677   C815    1.501   1_455 S
C678   C733    1.364   .     S
C678   C763    1.500   .     S
C679   C684    1.407   .     A
C679   C711    1.485   .     S
C680   C715    1.486   .     S
C680   C683    1.408   .     A
C680   C850    1.390   .     S
C681   C683    1.407   .     A
C681   C719    1.491   .     S
C681   C847    1.390   .     S
C682   C684    1.405   .     A
C682   C723    1.491   .     S
C685   H689    1.082   .     S
C685   N692    1.366   .     A
C686   H690    1.082   .     S
C686   N691    1.365   .     A
C686   C1192   1.416   .     S
C687   N691    1.367   .     A
C687   F727    1.355   .     S
C687   C1189   1.416   .     S
C688   F728    1.355   .     S
C688   N692    1.367   .     A
N691   Zn701   2.007   .     S
N692   Zn702   2.007   .     S
O693   Zn701   1.996   .     S
O694   Zn702   1.996   .     S
O695   Zn702   1.990   .     S
O696   Zn701   1.990   .     S
O697   Zn701   1.993   .     S
O698   Zn702   1.993   .     S
O699   Zn702   2.010   .     S
O700   Zn701   2.010   .     S
C703   O705    1.400   .     S
C703   O704    1.223   .     D
C703   C733    1.501   .     S
O705   H706    1.014   .     S
C707   O709    1.400   .     S
C707   O708    1.223   .     D
C707   C790    1.500   1_455 S
O709   H710    1.014   .     S
C711   O713    1.398   .     S
C711   O712    1.221   .     D
O713   H714    1.013   .     S
C715   O716    1.220   .     D
C715   O717    1.398   .     S
O717   H718    1.013   .     S
C719   O720    1.222   .     D
C719   O721    1.398   .     S
O721   H834    1.014   1_455 S
H722   O777    1.014   .     S
C723   O725    1.397   .     S
C723   O724    1.223   .     D
O725   H726    1.014   .     S
C729   O749    1.275   .     A
C729   C740    1.415   .     S
C729   O751    1.281   .     A
C730   O750    1.276   .     A
C730   O752    1.281   .     A
C730   C739    1.416   .     S
C731   O755    1.285   .     A
C731   C733    1.418   .     S
C731   O753    1.275   .     A
C732   O754    1.275   .     A
C732   C734    1.417   .     S
C732   O756    1.286   .     A
C734   C789    1.364   .     S
C734   C819    1.500   .     S
C735   C740    1.407   .     A
C735   C767    1.485   .     S
C736   C771    1.486   .     S
C736   C739    1.408   .     A
C736   C906    1.390   .     S
C737   C739    1.407   .     A
C737   C775    1.491   .     S
C737   C903    1.390   .     S
C738   C740    1.405   .     A
C738   C779    1.491   .     S
C741   H745    1.082   .     S
C741   N748    1.366   .     A
C742   H746    1.082   .     S
C742   N747    1.365   .     A
C742   C1248   1.416   .     S
C743   N747    1.367   .     A
C743   F783    1.355   .     S
C743   C1245   1.416   .     S
C744   F784    1.355   .     S
C744   N748    1.367   .     A
N747   Zn757   2.007   .     S
N748   Zn758   2.007   .     S
O749   Zn757   1.996   .     S
O750   Zn758   1.996   .     S
O751   Zn758   1.990   .     S
O752   Zn757   1.990   .     S
O753   Zn757   1.993   .     S
O754   Zn758   1.993   .     S
O755   Zn758   2.010   .     S
O756   Zn757   2.010   .     S
C759   O761    1.400   .     S
C759   O760    1.223   .     D
C759   C789    1.501   .     S
O761   H762    1.014   .     S
C763   O765    1.400   .     S
C763   O764    1.223   .     D
O765   H766    1.014   .     S
C767   O769    1.398   .     S
C767   O768    1.221   .     D
O769   H770    1.013   .     S
C771   O772    1.220   .     D
C771   O773    1.398   .     S
O773   H774    1.013   .     S
C775   O776    1.222   .     D
C775   O777    1.398   .     S
H778   O833    1.014   .     S
C779   O781    1.397   .     S
C779   O780    1.223   .     D
O781   H782    1.014   .     S
C785   O805    1.275   .     A
C785   C796    1.415   .     S
C785   O807    1.281   .     A
C786   O806    1.276   .     A
C786   O808    1.281   .     A
C786   C795    1.416   .     S
C787   O811    1.285   .     A
C787   C789    1.418   .     S
C787   O809    1.275   .     A
C788   O810    1.275   .     A
C788   C790    1.417   .     S
C788   O812    1.286   .     A
C790   C677    1.364   1_655 S
C790   C707    1.500   1_655 S
C791   C796    1.407   .     A
C791   C823    1.485   .     S
C792   C827    1.486   .     S
C792   C795    1.408   .     A
C792   C962    1.390   .     S
C793   C795    1.407   .     A
C793   C831    1.491   .     S
C793   C959    1.390   .     S
C794   C796    1.405   .     A
C794   C835    1.491   .     S
C797   H801    1.082   .     S
C797   N804    1.366   .     A
C798   H802    1.082   .     S
C798   N803    1.365   .     A
C798   C1304   1.416   .     S
C799   N803    1.367   .     A
C799   F839    1.355   .     S
C799   C1301   1.416   .     S
C800   F840    1.355   .     S
C800   N804    1.367   .     A
N803   Zn813   2.007   .     S
N804   Zn814   2.007   .     S
O805   Zn813   1.996   .     S
O806   Zn814   1.996   .     S
O807   Zn814   1.990   .     S
O808   Zn813   1.990   .     S
O809   Zn813   1.993   .     S
O810   Zn814   1.993   .     S
O811   Zn814   2.010   .     S
O812   Zn813   2.010   .     S
C815   O817    1.400   .     S
C815   O816    1.223   .     D
C815   C677    1.501   1_655 S
O817   H818    1.014   .     S
C819   O821    1.400   .     S
C819   O820    1.223   .     D
O821   H822    1.014   .     S
C823   O825    1.398   .     S
C823   O824    1.221   .     D
O825   H826    1.013   .     S
C827   O828    1.220   .     D
C827   O829    1.398   .     S
O829   H830    1.013   .     S
C831   O832    1.222   .     D
C831   O833    1.398   .     S
H834   O721    1.014   1_655 S
C835   O837    1.397   .     S
C835   O836    1.223   .     D
O837   H838    1.014   .     S
C841   O861    1.275   .     A
C841   C852    1.415   .     S
C841   O863    1.281   .     A
C842   O862    1.276   .     A
C842   O864    1.281   .     A
C842   C851    1.416   .     S
C843   O867    1.285   .     A
C843   C845    1.418   .     S
C843   O865    1.275   .     A
C844   O866    1.275   .     A
C844   C846    1.417   .     S
C844   O868    1.286   .     A
C845   C958    1.364   1_455 S
C845   C983    1.501   1_455 S
C846   C901    1.364   .     S
C846   C931    1.500   .     S
C847   C852    1.407   .     A
C847   C879    1.485   .     S
C848   C883    1.486   .     S
C848   C851    1.408   .     A
C848   C514    1.390   1_565 S
C849   C851    1.407   .     A
C849   C887    1.491   .     S
C849   C511    1.390   1_565 S
C850   C852    1.405   .     A
C850   C891    1.491   .     S
C853   H857    1.082   .     S
C853   N860    1.366   .     A
C854   H858    1.082   .     S
C854   N859    1.365   .     A
C854   C1360   1.416   .     S
C855   N859    1.367   .     A
C855   F895    1.355   .     S
C855   C1357   1.416   .     S
C856   F896    1.355   .     S
C856   N860    1.367   .     A
N859   Zn869   2.007   .     S
N860   Zn870   2.007   .     S
O861   Zn869   1.996   .     S
O862   Zn870   1.996   .     S
O863   Zn870   1.990   .     S
O864   Zn869   1.990   .     S
O865   Zn869   1.993   .     S
O866   Zn870   1.993   .     S
O867   Zn870   2.010   .     S
O868   Zn869   2.010   .     S
C871   O873    1.400   .     S
C871   O872    1.223   .     D
C871   C901    1.501   .     S
O873   H874    1.014   .     S
C875   O877    1.400   .     S
C875   O876    1.223   .     D
C875   C958    1.500   1_455 S
O877   H878    1.014   .     S
C879   O881    1.398   .     S
C879   O880    1.221   .     D
O881   H882    1.013   .     S
C883   O884    1.220   .     D
C883   O885    1.398   .     S
O885   H886    1.013   .     S
C887   O888    1.222   .     D
C887   O889    1.398   .     S
O889   H1002   1.014   1_455 S
H890   O945    1.014   .     S
C891   O893    1.397   .     S
C891   O892    1.223   .     D
O893   H894    1.014   .     S
C897   O917    1.275   .     A
C897   C908    1.415   .     S
C897   O919    1.281   .     A
C898   O918    1.276   .     A
C898   O920    1.281   .     A
C898   C907    1.416   .     S
C899   O923    1.285   .     A
C899   C901    1.418   .     S
C899   O921    1.275   .     A
C900   O922    1.275   .     A
C900   C902    1.417   .     S
C900   O924    1.286   .     A
C902   C957    1.364   .     S
C902   C987    1.500   .     S
C903   C908    1.407   .     A
C903   C935    1.485   .     S
C904   C939    1.486   .     S
C904   C907    1.408   .     A
C904   C570    1.390   1_565 S
C905   C907    1.407   .     A
C905   C943    1.491   .     S
C905   C567    1.390   1_565 S
C906   C908    1.405   .     A
C906   C947    1.491   .     S
C909   H913    1.082   .     S
C909   N916    1.366   .     A
C910   H914    1.082   .     S
C910   N915    1.365   .     A
C910   C1416   1.416   .     S
C911   N915    1.367   .     A
C911   F951    1.355   .     S
C911   C1413   1.416   .     S
C912   F952    1.355   .     S
C912   N916    1.367   .     A
N915   Zn925   2.007   .     S
N916   Zn926   2.007   .     S
O917   Zn925   1.996   .     S
O918   Zn926   1.996   .     S
O919   Zn926   1.990   .     S
O920   Zn925   1.990   .     S
O921   Zn925   1.993   .     S
O922   Zn926   1.993   .     S
O923   Zn926   2.010   .     S
O924   Zn925   2.010   .     S
C927   O929    1.400   .     S
C927   O928    1.223   .     D
C927   C957    1.501   .     S
O929   H930    1.014   .     S
C931   O933    1.400   .     S
C931   O932    1.223   .     D
O933   H934    1.014   .     S
C935   O937    1.398   .     S
C935   O936    1.221   .     D
O937   H938    1.013   .     S
C939   O940    1.220   .     D
C939   O941    1.398   .     S
O941   H942    1.013   .     S
C943   O944    1.222   .     D
C943   O945    1.398   .     S
H946   O1001   1.014   .     S
C947   O949    1.397   .     S
C947   O948    1.223   .     D
O949   H950    1.014   .     S
C953   O973    1.275   .     A
C953   C964    1.415   .     S
C953   O975    1.281   .     A
C954   O974    1.276   .     A
C954   O976    1.281   .     A
C954   C963    1.416   .     S
C955   O979    1.285   .     A
C955   C957    1.418   .     S
C955   O977    1.275   .     A
C956   O978    1.275   .     A
C956   C958    1.417   .     S
C956   O980    1.286   .     A
C958   C845    1.364   1_655 S
C958   C875    1.500   1_655 S
C959   C964    1.407   .     A
C959   C991    1.485   .     S
C960   C995    1.486   .     S
C960   C963    1.408   .     A
C960   C626    1.390   1_565 S
C961   C963    1.407   .     A
C961   C999    1.491   .     S
C961   C623    1.390   1_565 S
C962   C964    1.405   .     A
C962   C1003   1.491   .     S
C965   H969    1.082   .     S
C965   N972    1.366   .     A
C966   H970    1.082   .     S
C966   N971    1.365   .     A
C966   C1472   1.416   .     S
C967   N971    1.367   .     A
C967   F1007   1.355   .     S
C967   C1469   1.416   .     S
C968   F1008   1.355   .     S
C968   N972    1.367   .     A
N971   Zn981   2.007   .     S
N972   Zn982   2.007   .     S
O973   Zn981   1.996   .     S
O974   Zn982   1.996   .     S
O975   Zn982   1.990   .     S
O976   Zn981   1.990   .     S
O977   Zn981   1.993   .     S
O978   Zn982   1.993   .     S
O979   Zn982   2.010   .     S
O980   Zn981   2.010   .     S
C983   O985    1.400   .     S
C983   O984    1.223   .     D
C983   C845    1.501   1_655 S
O985   H986    1.014   .     S
C987   O989    1.400   .     S
C987   O988    1.223   .     D
O989   H990    1.014   .     S
C991   O993    1.398   .     S
C991   O992    1.221   .     D
O993   H994    1.013   .     S
C995   O996    1.220   .     D
C995   O997    1.398   .     S
O997   H998    1.013   .     S
C999   O1000   1.222   .     D
C999   O1001   1.398   .     S
H1002  O889    1.014   1_655 S
C1003  O1005   1.397   .     S
C1003  O1004   1.223   .     D
O1005  H1006   1.014   .     S
C1009  O1029   1.275   .     A
C1009  C1020   1.415   .     S
C1009  O1031   1.281   .     A
C1010  O1030   1.276   .     A
C1010  O1032   1.281   .     A
C1010  C1019   1.416   .     S
C1011  O1035   1.285   .     A
C1011  C1013   1.418   .     S
C1011  O1033   1.275   .     A
C1012  O1034   1.275   .     A
C1012  C1014   1.417   .     S
C1012  O1036   1.286   .     A
C1013  C1126   1.364   1_455 S
C1013  C1151   1.501   1_455 S
C1014  C1069   1.364   .     S
C1014  C1099   1.500   .     S
C1015  C1020   1.407   .     A
C1015  C1047   1.485   .     S
C1015  C1353   1.390   1_545 S
C1016  C1051   1.486   .     S
C1016  C1019   1.408   .     A
C1016  C1186   1.390   .     S
C1017  C1019   1.407   .     A
C1017  C1055   1.491   .     S
C1017  C1183   1.390   .     S
C1018  C1020   1.405   .     A
C1018  C1059   1.491   .     S
C1018  C1352   1.390   1_545 S
C1021  H1025   1.082   .     S
C1021  N1028   1.366   .     A
C1022  H1026   1.082   .     S
C1022  N1027   1.365   .     A
C1022  C16     1.416   1_556 S
C1023  N1027   1.367   .     A
C1023  F1063   1.355   .     S
C1023  C13     1.416   1_556 S
C1024  F1064   1.355   .     S
C1024  N1028   1.367   .     A
N1027  Zn1037  2.007   .     S
N1028  Zn1038  2.007   .     S
O1029  Zn1037  1.996   .     S
O1030  Zn1038  1.996   .     S
O1031  Zn1038  1.990   .     S
O1032  Zn1037  1.990   .     S
O1033  Zn1037  1.993   .     S
O1034  Zn1038  1.993   .     S
O1035  Zn1038  2.010   .     S
O1036  Zn1037  2.010   .     S
C1039  O1041   1.400   .     S
C1039  O1040   1.223   .     D
C1039  C1069   1.501   .     S
O1041  H1042   1.014   .     S
C1043  O1045   1.400   .     S
C1043  O1044   1.223   .     D
C1043  C1126   1.500   1_455 S
O1045  H1046   1.014   .     S
C1047  O1049   1.398   .     S
C1047  O1048   1.221   .     D
O1049  H1050   1.013   .     S
C1051  O1052   1.220   .     D
C1051  O1053   1.398   .     S
O1053  H1054   1.013   .     S
C1055  O1056   1.222   .     D
C1055  O1057   1.398   .     S
O1057  H1170   1.014   1_455 S
H1058  O1113   1.014   .     S
C1059  O1061   1.397   .     S
C1059  O1060   1.223   .     D
O1061  H1062   1.014   .     S
C1065  O1085   1.275   .     A
C1065  C1076   1.415   .     S
C1065  O1087   1.281   .     A
C1066  O1086   1.276   .     A
C1066  O1088   1.281   .     A
C1066  C1075   1.416   .     S
C1067  O1091   1.285   .     A
C1067  C1069   1.418   .     S
C1067  O1089   1.275   .     A
C1068  O1090   1.275   .     A
C1068  C1070   1.417   .     S
C1068  O1092   1.286   .     A
C1070  C1125   1.364   .     S
C1070  C1155   1.500   .     S
C1071  C1076   1.407   .     A
C1071  C1103   1.485   .     S
C1071  C1409   1.390   1_545 S
C1072  C1107   1.486   .     S
C1072  C1075   1.408   .     A
C1072  C1242   1.390   .     S
C1073  C1075   1.407   .     A
C1073  C1111   1.491   .     S
C1073  C1239   1.390   .     S
C1074  C1076   1.405   .     A
C1074  C1115   1.491   .     S
C1074  C1408   1.390   1_545 S
C1077  H1081   1.082   .     S
C1077  N1084   1.366   .     A
C1078  H1082   1.082   .     S
C1078  N1083   1.365   .     A
C1078  C72     1.416   1_556 S
C1079  N1083   1.367   .     A
C1079  F1119   1.355   .     S
C1079  C69     1.416   1_556 S
C1080  F1120   1.355   .     S
C1080  N1084   1.367   .     A
N1083  Zn1093  2.007   .     S
N1084  Zn1094  2.007   .     S
O1085  Zn1093  1.996   .     S
O1086  Zn1094  1.996   .     S
O1087  Zn1094  1.990   .     S
O1088  Zn1093  1.990   .     S
O1089  Zn1093  1.993   .     S
O1090  Zn1094  1.993   .     S
O1091  Zn1094  2.010   .     S
O1092  Zn1093  2.010   .     S
C1095  O1097   1.400   .     S
C1095  O1096   1.223   .     D
C1095  C1125   1.501   .     S
O1097  H1098   1.014   .     S
C1099  O1101   1.400   .     S
C1099  O1100   1.223   .     D
O1101  H1102   1.014   .     S
C1103  O1105   1.398   .     S
C1103  O1104   1.221   .     D
O1105  H1106   1.013   .     S
C1107  O1108   1.220   .     D
C1107  O1109   1.398   .     S
O1109  H1110   1.013   .     S
C1111  O1112   1.222   .     D
C1111  O1113   1.398   .     S
H1114  O1169   1.014   .     S
C1115  O1117   1.397   .     S
C1115  O1116   1.223   .     D
O1117  H1118   1.014   .     S
C1121  O1141   1.275   .     A
C1121  C1132   1.415   .     S
C1121  O1143   1.281   .     A
C1122  O1142   1.276   .     A
C1122  O1144   1.281   .     A
C1122  C1131   1.416   .     S
C1123  O1147   1.285   .     A
C1123  C1125   1.418   .     S
C1123  O1145   1.275   .     A
C1124  O1146   1.275   .     A
C1124  C1126   1.417   .     S
C1124  O1148   1.286   .     A
C1126  C1013   1.364   1_655 S
C1126  C1043   1.500   1_655 S
C1127  C1132   1.407   .     A
C1127  C1159   1.485   .     S
C1127  C1465   1.390   1_545 S
C1128  C1163   1.486   .     S
C1128  C1131   1.408   .     A
C1128  C1298   1.390   .     S
C1129  C1131   1.407   .     A
C1129  C1167   1.491   .     S
C1129  C1295   1.390   .     S
C1130  C1132   1.405   .     A
C1130  C1171   1.491   .     S
C1130  C1464   1.390   1_545 S
C1133  H1137   1.082   .     S
C1133  N1140   1.366   .     A
C1134  H1138   1.082   .     S
C1134  N1139   1.365   .     A
C1134  C128    1.416   1_556 S
C1135  N1139   1.367   .     A
C1135  F1175   1.355   .     S
C1135  C125    1.416   1_556 S
C1136  F1176   1.355   .     S
C1136  N1140   1.367   .     A
N1139  Zn1149  2.007   .     S
N1140  Zn1150  2.007   .     S
O1141  Zn1149  1.996   .     S
O1142  Zn1150  1.996   .     S
O1143  Zn1150  1.990   .     S
O1144  Zn1149  1.990   .     S
O1145  Zn1149  1.993   .     S
O1146  Zn1150  1.993   .     S
O1147  Zn1150  2.010   .     S
O1148  Zn1149  2.010   .     S
C1151  O1153   1.400   .     S
C1151  O1152   1.223   .     D
C1151  C1013   1.501   1_655 S
O1153  H1154   1.014   .     S
C1155  O1157   1.400   .     S
C1155  O1156   1.223   .     D
O1157  H1158   1.014   .     S
C1159  O1161   1.398   .     S
C1159  O1160   1.221   .     D
O1161  H1162   1.013   .     S
C1163  O1164   1.220   .     D
C1163  O1165   1.398   .     S
O1165  H1166   1.013   .     S
C1167  O1168   1.222   .     D
C1167  O1169   1.398   .     S
H1170  O1057   1.014   1_655 S
C1171  O1173   1.397   .     S
C1171  O1172   1.223   .     D
O1173  H1174   1.014   .     S
C1177  O1197   1.275   .     A
C1177  C1188   1.415   .     S
C1177  O1199   1.281   .     A
C1178  O1198   1.276   .     A
C1178  O1200   1.281   .     A
C1178  C1187   1.416   .     S
C1179  O1203   1.285   .     A
C1179  C1181   1.418   .     S
C1179  O1201   1.275   .     A
C1180  O1202   1.275   .     A
C1180  C1182   1.417   .     S
C1180  O1204   1.286   .     A
C1181  C1294   1.364   1_455 S
C1181  C1319   1.501   1_455 S
C1182  C1237   1.364   .     S
C1182  C1267   1.500   .     S
C1183  C1188   1.407   .     A
C1183  C1215   1.485   .     S
C1184  C1219   1.486   .     S
C1184  C1187   1.408   .     A
C1184  C1354   1.390   .     S
C1185  C1187   1.407   .     A
C1185  C1223   1.491   .     S
C1185  C1351   1.390   .     S
C1186  C1188   1.405   .     A
C1186  C1227   1.491   .     S
C1189  H1193   1.082   .     S
C1189  N1196   1.366   .     A
C1190  H1194   1.082   .     S
C1190  N1195   1.365   .     A
C1190  C184    1.416   1_556 S
C1191  N1195   1.367   .     A
C1191  F1231   1.355   .     S
C1191  C181    1.416   1_556 S
C1192  F1232   1.355   .     S
C1192  N1196   1.367   .     A
N1195  Zn1205  2.007   .     S
N1196  Zn1206  2.007   .     S
O1197  Zn1205  1.996   .     S
O1198  Zn1206  1.996   .     S
O1199  Zn1206  1.990   .     S
O1200  Zn1205  1.990   .     S
O1201  Zn1205  1.993   .     S
O1202  Zn1206  1.993   .     S
O1203  Zn1206  2.010   .     S
O1204  Zn1205  2.010   .     S
C1207  O1209   1.400   .     S
C1207  O1208   1.223   .     D
C1207  C1237   1.501   .     S
O1209  H1210   1.014   .     S
C1211  O1213   1.400   .     S
C1211  O1212   1.223   .     D
C1211  C1294   1.500   1_455 S
O1213  H1214   1.014   .     S
C1215  O1217   1.398   .     S
C1215  O1216   1.221   .     D
O1217  H1218   1.013   .     S
C1219  O1220   1.220   .     D
C1219  O1221   1.398   .     S
O1221  H1222   1.013   .     S
C1223  O1224   1.222   .     D
C1223  O1225   1.398   .     S
O1225  H1338   1.014   1_455 S
H1226  O1281   1.014   .     S
C1227  O1229   1.397   .     S
C1227  O1228   1.223   .     D
O1229  H1230   1.014   .     S
C1233  O1253   1.275   .     A
C1233  C1244   1.415   .     S
C1233  O1255   1.281   .     A
C1234  O1254   1.276   .     A
C1234  O1256   1.281   .     A
C1234  C1243   1.416   .     S
C1235  O1259   1.285   .     A
C1235  C1237   1.418   .     S
C1235  O1257   1.275   .     A
C1236  O1258   1.275   .     A
C1236  C1238   1.417   .     S
C1236  O1260   1.286   .     A
C1238  C1293   1.364   .     S
C1238  C1323   1.500   .     S
C1239  C1244   1.407   .     A
C1239  C1271   1.485   .     S
C1240  C1275   1.486   .     S
C1240  C1243   1.408   .     A
C1240  C1410   1.390   .     S
C1241  C1243   1.407   .     A
C1241  C1279   1.491   .     S
C1241  C1407   1.390   .     S
C1242  C1244   1.405   .     A
C1242  C1283   1.491   .     S
C1245  H1249   1.082   .     S
C1245  N1252   1.366   .     A
C1246  H1250   1.082   .     S
C1246  N1251   1.365   .     A
C1246  C240    1.416   1_556 S
C1247  N1251   1.367   .     A
C1247  F1287   1.355   .     S
C1247  C237    1.416   1_556 S
C1248  F1288   1.355   .     S
C1248  N1252   1.367   .     A
N1251  Zn1261  2.007   .     S
N1252  Zn1262  2.007   .     S
O1253  Zn1261  1.996   .     S
O1254  Zn1262  1.996   .     S
O1255  Zn1262  1.990   .     S
O1256  Zn1261  1.990   .     S
O1257  Zn1261  1.993   .     S
O1258  Zn1262  1.993   .     S
O1259  Zn1262  2.010   .     S
O1260  Zn1261  2.010   .     S
C1263  O1265   1.400   .     S
C1263  O1264   1.223   .     D
C1263  C1293   1.501   .     S
O1265  H1266   1.014   .     S
C1267  O1269   1.400   .     S
C1267  O1268   1.223   .     D
O1269  H1270   1.014   .     S
C1271  O1273   1.398   .     S
C1271  O1272   1.221   .     D
O1273  H1274   1.013   .     S
C1275  O1276   1.220   .     D
C1275  O1277   1.398   .     S
O1277  H1278   1.013   .     S
C1279  O1280   1.222   .     D
C1279  O1281   1.398   .     S
H1282  O1337   1.014   .     S
C1283  O1285   1.397   .     S
C1283  O1284   1.223   .     D
O1285  H1286   1.014   .     S
C1289  O1309   1.275   .     A
C1289  C1300   1.415   .     S
C1289  O1311   1.281   .     A
C1290  O1310   1.276   .     A
C1290  O1312   1.281   .     A
C1290  C1299   1.416   .     S
C1291  O1315   1.285   .     A
C1291  C1293   1.418   .     S
C1291  O1313   1.275   .     A
C1292  O1314   1.275   .     A
C1292  C1294   1.417   .     S
C1292  O1316   1.286   .     A
C1294  C1181   1.364   1_655 S
C1294  C1211   1.500   1_655 S
C1295  C1300   1.407   .     A
C1295  C1327   1.485   .     S
C1296  C1331   1.486   .     S
C1296  C1299   1.408   .     A
C1296  C1466   1.390   .     S
C1297  C1299   1.407   .     A
C1297  C1335   1.491   .     S
C1297  C1463   1.390   .     S
C1298  C1300   1.405   .     A
C1298  C1339   1.491   .     S
C1301  H1305   1.082   .     S
C1301  N1308   1.366   .     A
C1302  H1306   1.082   .     S
C1302  N1307   1.365   .     A
C1302  C296    1.416   1_556 S
C1303  N1307   1.367   .     A
C1303  F1343   1.355   .     S
C1303  C293    1.416   1_556 S
C1304  F1344   1.355   .     S
C1304  N1308   1.367   .     A
N1307  Zn1317  2.007   .     S
N1308  Zn1318  2.007   .     S
O1309  Zn1317  1.996   .     S
O1310  Zn1318  1.996   .     S
O1311  Zn1318  1.990   .     S
O1312  Zn1317  1.990   .     S
O1313  Zn1317  1.993   .     S
O1314  Zn1318  1.993   .     S
O1315  Zn1318  2.010   .     S
O1316  Zn1317  2.010   .     S
C1319  O1321   1.400   .     S
C1319  O1320   1.223   .     D
C1319  C1181   1.501   1_655 S
O1321  H1322   1.014   .     S
C1323  O1325   1.400   .     S
C1323  O1324   1.223   .     D
O1325  H1326   1.014   .     S
C1327  O1329   1.398   .     S
C1327  O1328   1.221   .     D
O1329  H1330   1.013   .     S
C1331  O1332   1.220   .     D
C1331  O1333   1.398   .     S
O1333  H1334   1.013   .     S
C1335  O1336   1.222   .     D
C1335  O1337   1.398   .     S
H1338  O1225   1.014   1_655 S
C1339  O1341   1.397   .     S
C1339  O1340   1.223   .     D
O1341  H1342   1.014   .     S
C1345  O1365   1.275   .     A
C1345  C1356   1.415   .     S
C1345  O1367   1.281   .     A
C1346  O1366   1.276   .     A
C1346  O1368   1.281   .     A
C1346  C1355   1.416   .     S
C1347  O1371   1.285   .     A
C1347  C1349   1.418   .     S
C1347  O1369   1.275   .     A
C1348  O1370   1.275   .     A
C1348  C1350   1.417   .     S
C1348  O1372   1.286   .     A
C1349  C1462   1.364   1_455 S
C1349  C1487   1.501   1_455 S
C1350  C1405   1.364   .     S
C1350  C1435   1.500   .     S
C1351  C1356   1.407   .     A
C1351  C1383   1.485   .     S
C1352  C1387   1.486   .     S
C1352  C1355   1.408   .     A
C1352  C1018   1.390   1_565 S
C1353  C1355   1.407   .     A
C1353  C1391   1.491   .     S
C1353  C1015   1.390   1_565 S
C1354  C1356   1.405   .     A
C1354  C1395   1.491   .     S
C1357  H1361   1.082   .     S
C1357  N1364   1.366   .     A
C1358  H1362   1.082   .     S
C1358  N1363   1.365   .     A
C1358  C352    1.416   1_556 S
C1359  N1363   1.367   .     A
C1359  F1399   1.355   .     S
C1359  C349    1.416   1_556 S
C1360  F1400   1.355   .     S
C1360  N1364   1.367   .     A
N1363  Zn1373  2.007   .     S
N1364  Zn1374  2.007   .     S
O1365  Zn1373  1.996   .     S
O1366  Zn1374  1.996   .     S
O1367  Zn1374  1.990   .     S
O1368  Zn1373  1.990   .     S
O1369  Zn1373  1.993   .     S
O1370  Zn1374  1.993   .     S
O1371  Zn1374  2.010   .     S
O1372  Zn1373  2.010   .     S
C1375  O1377   1.400   .     S
C1375  O1376   1.223   .     D
C1375  C1405   1.501   .     S
O1377  H1378   1.014   .     S
C1379  O1381   1.400   .     S
C1379  O1380   1.223   .     D
C1379  C1462   1.500   1_455 S
O1381  H1382   1.014   .     S
C1383  O1385   1.398   .     S
C1383  O1384   1.221   .     D
O1385  H1386   1.013   .     S
C1387  O1388   1.220   .     D
C1387  O1389   1.398   .     S
O1389  H1390   1.013   .     S
C1391  O1392   1.222   .     D
C1391  O1393   1.398   .     S
O1393  H1506   1.014   1_455 S
H1394  O1449   1.014   .     S
C1395  O1397   1.397   .     S
C1395  O1396   1.223   .     D
O1397  H1398   1.014   .     S
C1401  O1421   1.275   .     A
C1401  C1412   1.415   .     S
C1401  O1423   1.281   .     A
C1402  O1422   1.276   .     A
C1402  O1424   1.281   .     A
C1402  C1411   1.416   .     S
C1403  O1427   1.285   .     A
C1403  C1405   1.418   .     S
C1403  O1425   1.275   .     A
C1404  O1426   1.275   .     A
C1404  C1406   1.417   .     S
C1404  O1428   1.286   .     A
C1406  C1461   1.364   .     S
C1406  C1491   1.500   .     S
C1407  C1412   1.407   .     A
C1407  C1439   1.485   .     S
C1408  C1443   1.486   .     S
C1408  C1411   1.408   .     A
C1408  C1074   1.390   1_565 S
C1409  C1411   1.407   .     A
C1409  C1447   1.491   .     S
C1409  C1071   1.390   1_565 S
C1410  C1412   1.405   .     A
C1410  C1451   1.491   .     S
C1413  H1417   1.082   .     S
C1413  N1420   1.366   .     A
C1414  H1418   1.082   .     S
C1414  N1419   1.365   .     A
C1414  C408    1.416   1_556 S
C1415  N1419   1.367   .     A
C1415  F1455   1.355   .     S
C1415  C405    1.416   1_556 S
C1416  F1456   1.355   .     S
C1416  N1420   1.367   .     A
N1419  Zn1429  2.007   .     S
N1420  Zn1430  2.007   .     S
O1421  Zn1429  1.996   .     S
O1422  Zn1430  1.996   .     S
O1423  Zn1430  1.990   .     S
O1424  Zn1429  1.990   .     S
O1425  Zn1429  1.993   .     S
O1426  Zn1430  1.993   .     S
O1427  Zn1430  2.010   .     S
O1428  Zn1429  2.010   .     S
C1431  O1433   1.400   .     S
C1431  O1432   1.223   .     D
C1431  C1461   1.501   .     S
O1433  H1434   1.014   .     S
C1435  O1437   1.400   .     S
C1435  O1436   1.223   .     D
O1437  H1438   1.014   .     S
C1439  O1441   1.398   .     S
C1439  O1440   1.221   .     D
O1441  H1442   1.013   .     S
C1443  O1444   1.220   .     D
C1443  O1445   1.398   .     S
O1445  H1446   1.013   .     S
C1447  O1448   1.222   .     D
C1447  O1449   1.398   .     S
H1450  O1505   1.014   .     S
C1451  O1453   1.397   .     S
C1451  O1452   1.223   .     D
O1453  H1454   1.014   .     S
C1457  O1477   1.275   .     A
C1457  C1468   1.415   .     S
C1457  O1479   1.281   .     A
C1458  O1478   1.276   .     A
C1458  O1480   1.281   .     A
C1458  C1467   1.416   .     S
C1459  O1483   1.285   .     A
C1459  C1461   1.418   .     S
C1459  O1481   1.275   .     A
C1460  O1482   1.275   .     A
C1460  C1462   1.417   .     S
C1460  O1484   1.286   .     A
C1462  C1349   1.364   1_655 S
C1462  C1379   1.500   1_655 S
C1463  C1468   1.407   .     A
C1463  C1495   1.485   .     S
C1464  C1499   1.486   .     S
C1464  C1467   1.408   .     A
C1464  C1130   1.390   1_565 S
C1465  C1467   1.407   .     A
C1465  C1503   1.491   .     S
C1465  C1127   1.390   1_565 S
C1466  C1468   1.405   .     A
C1466  C1507   1.491   .     S
C1469  H1473   1.082   .     S
C1469  N1476   1.366   .     A
C1470  H1474   1.082   .     S
C1470  N1475   1.365   .     A
C1470  C464    1.416   1_556 S
C1471  N1475   1.367   .     A
C1471  F1511   1.355   .     S
C1471  C461    1.416   1_556 S
C1472  F1512   1.355   .     S
C1472  N1476   1.367   .     A
N1475  Zn1485  2.007   .     S
N1476  Zn1486  2.007   .     S
O1477  Zn1485  1.996   .     S
O1478  Zn1486  1.996   .     S
O1479  Zn1486  1.990   .     S
O1480  Zn1485  1.990   .     S
O1481  Zn1485  1.993   .     S
O1482  Zn1486  1.993   .     S
O1483  Zn1486  2.010   .     S
O1484  Zn1485  2.010   .     S
C1487  O1489   1.400   .     S
C1487  O1488   1.223   .     D
C1487  C1349   1.501   1_655 S
O1489  H1490   1.014   .     S
C1491  O1493   1.400   .     S
C1491  O1492   1.223   .     D
O1493  H1494   1.014   .     S
C1495  O1497   1.398   .     S
C1495  O1496   1.221   .     D
O1497  H1498   1.013   .     S
C1499  O1500   1.220   .     D
C1499  O1501   1.398   .     S
O1501  H1502   1.013   .     S
C1503  O1504   1.222   .     D
C1503  O1505   1.398   .     S
H1506  O1393   1.014   1_655 S
C1507  O1509   1.397   .     S
C1507  O1508   1.223   .     D
O1509  H1510   1.014   .     S
