data_str_m3_o1_o10_pcu_sym.216
_audit_creation_date              2020-01-03
_audit_creation_method            'Materials Studio'
_symmetry_space_group_name_H-M    'P1'
_symmetry_Int_Tables_number       1
_symmetry_cell_setting            triclinic
loop_
_symmetry_equiv_pos_as_xyz
  x,y,z
_cell_length_a                    25.8002
_cell_length_b                    31.9084
_cell_length_c                    29.7222
_cell_angle_alpha                 88.8383
_cell_angle_beta                  98.0804
_cell_angle_gamma                 90.4592
loop_
_atom_site_label
_atom_site_type_symbol
_atom_site_fract_x
_atom_site_fract_y
_atom_site_fract_z
_atom_site_U_iso_or_equiv
_atom_site_adp_type
_atom_site_occupancy
C1     C     0.16635   0.08680   0.16699   0.00000  Uiso   1.00
C2     C     0.16698   0.24653   0.16634   0.00000  Uiso   1.00
C3     C     0.06717   0.16659   0.15486   0.00000  Uiso   1.00
C4     C     0.26616   0.16674   0.17848   0.00000  Uiso   1.00
C5     C     0.01221   0.16620   0.14848   0.00000  Uiso   1.00
C6     C     0.32112   0.16713   0.18485   0.00000  Uiso   1.00
C7     C     0.12183   0.02178   0.14582   0.00000  Uiso   1.00
C8     C     0.21150   0.31155   0.18751   0.00000  Uiso   1.00
C9     C     0.12251   0.31174   0.14471   0.00000  Uiso   1.00
C10    C     0.21082   0.02160   0.18862   0.00000  Uiso   1.00
C11    C     0.16724   0.29071   0.16566   0.00000  Uiso   1.00
C12    C     0.16609   0.04263   0.16767   0.00000  Uiso   1.00
C13    C     0.19741   0.19426   0.02642   0.00000  Uiso   1.00
C14    C     0.13592   0.13908   0.30691   0.00000  Uiso   1.00
C15    C     0.19725   0.19406   0.31211   0.00000  Uiso   1.00
C16    C     0.13608   0.13927   0.02122   0.00000  Uiso   1.00
H17    H     0.32533   0.16498   0.11386   0.00000  Uiso   1.00
H18    H     0.00800   0.16835   0.21948   0.00000  Uiso   1.00
H19    H     0.22170   0.21593   0.29623   0.00000  Uiso   1.00
H20    H     0.11164   0.11740   0.03710   0.00000  Uiso   1.00
N21    N     0.16665   0.16666   0.28573   0.00000  Uiso   1.00
N22    N     0.16668   0.16668   0.04760   0.00000  Uiso   1.00
O23    O     0.16666   0.10558   0.20487   0.00000  Uiso   1.00
O24    O     0.16667   0.22775   0.12846   0.00000  Uiso   1.00
O25    O     0.16666   0.10559   0.12843   0.00000  Uiso   1.00
O26    O     0.16667   0.22774   0.20490   0.00000  Uiso   1.00
O27    O     0.09058   0.16666   0.19595   0.00000  Uiso   1.00
O28    O     0.24275   0.16667   0.13739   0.00000  Uiso   1.00
O29    O     0.09058   0.16667   0.11950   0.00000  Uiso   1.00
O30    O     0.24275   0.16666   0.21383   0.00000  Uiso   1.00
Zn31   Zn    0.16667   0.16666   0.21771   0.00000  Uiso   1.00
Zn32   Zn    0.16667   0.16667   0.11563   0.00000  Uiso   1.00
I33    I     0.05364   0.05596   0.11640   0.00000  Uiso   1.00
I34    I     0.27967   0.27738   0.21696   0.00000  Uiso   1.00
I35    I     0.05581   0.27771   0.11305   0.00000  Uiso   1.00
I36    I     0.27752   0.05563   0.22028   0.00000  Uiso   1.00
I37    I     0.24704   0.23914   0.06183   0.00000  Uiso   1.00
I38    I     0.08630   0.09419   0.27150   0.00000  Uiso   1.00
C39    C     0.49968   0.08680   0.16699   0.00000  Uiso   1.00
C40    C     0.50032   0.24653   0.16634   0.00000  Uiso   1.00
C41    C     0.40050   0.16659   0.15486   0.00000  Uiso   1.00
C42    C     0.59950   0.16674   0.17848   0.00000  Uiso   1.00
C43    C     0.34555   0.16620   0.14848   0.00000  Uiso   1.00
C44    C     0.65445   0.16713   0.18485   0.00000  Uiso   1.00
C45    C     0.45516   0.02178   0.14582   0.00000  Uiso   1.00
C46    C     0.54484   0.31155   0.18751   0.00000  Uiso   1.00
C47    C     0.45584   0.31174   0.14471   0.00000  Uiso   1.00
C48    C     0.54416   0.02160   0.18862   0.00000  Uiso   1.00
C49    C     0.50058   0.29071   0.16566   0.00000  Uiso   1.00
C50    C     0.49942   0.04263   0.16767   0.00000  Uiso   1.00
C51    C     0.53074   0.19426   0.02642   0.00000  Uiso   1.00
C52    C     0.46926   0.13908   0.30691   0.00000  Uiso   1.00
C53    C     0.53059   0.19406   0.31211   0.00000  Uiso   1.00
C54    C     0.46941   0.13927   0.02122   0.00000  Uiso   1.00
H55    H     0.65866   0.16498   0.11386   0.00000  Uiso   1.00
H56    H     0.34134   0.16835   0.21948   0.00000  Uiso   1.00
H57    H     0.55503   0.21593   0.29623   0.00000  Uiso   1.00
H58    H     0.44497   0.11740   0.03710   0.00000  Uiso   1.00
N59    N     0.49999   0.16666   0.28573   0.00000  Uiso   1.00
N60    N     0.50001   0.16668   0.04760   0.00000  Uiso   1.00
O61    O     0.50000   0.10558   0.20487   0.00000  Uiso   1.00
O62    O     0.50000   0.22775   0.12846   0.00000  Uiso   1.00
O63    O     0.50000   0.10559   0.12843   0.00000  Uiso   1.00
O64    O     0.50000   0.22774   0.20490   0.00000  Uiso   1.00
O65    O     0.42392   0.16666   0.19595   0.00000  Uiso   1.00
O66    O     0.57608   0.16667   0.13739   0.00000  Uiso   1.00
O67    O     0.42392   0.16667   0.11950   0.00000  Uiso   1.00
O68    O     0.57608   0.16666   0.21383   0.00000  Uiso   1.00
Zn69   Zn    0.50000   0.16666   0.21771   0.00000  Uiso   1.00
Zn70   Zn    0.50000   0.16667   0.11563   0.00000  Uiso   1.00
I71    I     0.38697   0.05596   0.11640   0.00000  Uiso   1.00
I72    I     0.61300   0.27738   0.21696   0.00000  Uiso   1.00
I73    I     0.38914   0.27771   0.11305   0.00000  Uiso   1.00
I74    I     0.61086   0.05563   0.22028   0.00000  Uiso   1.00
I75    I     0.58037   0.23914   0.06183   0.00000  Uiso   1.00
I76    I     0.41963   0.09419   0.27150   0.00000  Uiso   1.00
C77    C     0.83302   0.08680   0.16699   0.00000  Uiso   1.00
C78    C     0.83365   0.24653   0.16634   0.00000  Uiso   1.00
C79    C     0.73384   0.16659   0.15486   0.00000  Uiso   1.00
C80    C     0.93283   0.16674   0.17848   0.00000  Uiso   1.00
C81    C     0.67888   0.16620   0.14848   0.00000  Uiso   1.00
C82    C     0.98779   0.16713   0.18485   0.00000  Uiso   1.00
C83    C     0.78849   0.02178   0.14582   0.00000  Uiso   1.00
C84    C     0.87817   0.31155   0.18751   0.00000  Uiso   1.00
C85    C     0.78917   0.31174   0.14471   0.00000  Uiso   1.00
C86    C     0.87749   0.02160   0.18862   0.00000  Uiso   1.00
C87    C     0.83391   0.29071   0.16566   0.00000  Uiso   1.00
C88    C     0.83275   0.04263   0.16767   0.00000  Uiso   1.00
C89    C     0.86408   0.19426   0.02642   0.00000  Uiso   1.00
C90    C     0.80259   0.13908   0.30691   0.00000  Uiso   1.00
C91    C     0.86392   0.19406   0.31211   0.00000  Uiso   1.00
C92    C     0.80275   0.13927   0.02122   0.00000  Uiso   1.00
H93    H     0.99200   0.16498   0.11386   0.00000  Uiso   1.00
H94    H     0.67467   0.16835   0.21948   0.00000  Uiso   1.00
H95    H     0.88836   0.21593   0.29623   0.00000  Uiso   1.00
H96    H     0.77831   0.11740   0.03710   0.00000  Uiso   1.00
N97    N     0.83332   0.16666   0.28573   0.00000  Uiso   1.00
N98    N     0.83335   0.16668   0.04760   0.00000  Uiso   1.00
O99    O     0.83333   0.10558   0.20487   0.00000  Uiso   1.00
O100   O     0.83334   0.22775   0.12846   0.00000  Uiso   1.00
O101   O     0.83333   0.10559   0.12843   0.00000  Uiso   1.00
O102   O     0.83334   0.22774   0.20490   0.00000  Uiso   1.00
O103   O     0.75725   0.16666   0.19595   0.00000  Uiso   1.00
O104   O     0.90942   0.16667   0.13739   0.00000  Uiso   1.00
O105   O     0.75725   0.16667   0.11950   0.00000  Uiso   1.00
O106   O     0.90942   0.16666   0.21383   0.00000  Uiso   1.00
Zn107  Zn    0.83333   0.16666   0.21771   0.00000  Uiso   1.00
Zn108  Zn    0.83333   0.16667   0.11563   0.00000  Uiso   1.00
I109   I     0.72031   0.05596   0.11640   0.00000  Uiso   1.00
I110   I     0.94633   0.27738   0.21696   0.00000  Uiso   1.00
I111   I     0.72247   0.27771   0.11305   0.00000  Uiso   1.00
I112   I     0.94419   0.05563   0.22028   0.00000  Uiso   1.00
I113   I     0.91370   0.23914   0.06183   0.00000  Uiso   1.00
I114   I     0.75296   0.09419   0.27150   0.00000  Uiso   1.00
C115   C     0.16635   0.42013   0.16699   0.00000  Uiso   1.00
C116   C     0.16698   0.57987   0.16634   0.00000  Uiso   1.00
C117   C     0.06717   0.49993   0.15486   0.00000  Uiso   1.00
C118   C     0.26616   0.50007   0.17848   0.00000  Uiso   1.00
C119   C     0.01221   0.49953   0.14848   0.00000  Uiso   1.00
C120   C     0.32112   0.50047   0.18485   0.00000  Uiso   1.00
C121   C     0.12183   0.35512   0.14582   0.00000  Uiso   1.00
C122   C     0.21150   0.64488   0.18751   0.00000  Uiso   1.00
C123   C     0.12251   0.64507   0.14471   0.00000  Uiso   1.00
C124   C     0.21082   0.35493   0.18862   0.00000  Uiso   1.00
C125   C     0.16724   0.62404   0.16566   0.00000  Uiso   1.00
C126   C     0.16609   0.37596   0.16767   0.00000  Uiso   1.00
C127   C     0.19741   0.52759   0.02642   0.00000  Uiso   1.00
C128   C     0.13592   0.47241   0.30691   0.00000  Uiso   1.00
C129   C     0.19725   0.52739   0.31211   0.00000  Uiso   1.00
C130   C     0.13608   0.47261   0.02122   0.00000  Uiso   1.00
H131   H     0.32533   0.49831   0.11386   0.00000  Uiso   1.00
H132   H     0.00800   0.50169   0.21948   0.00000  Uiso   1.00
H133   H     0.22170   0.54927   0.29623   0.00000  Uiso   1.00
H134   H     0.11164   0.45074   0.03710   0.00000  Uiso   1.00
N135   N     0.16665   0.49999   0.28573   0.00000  Uiso   1.00
N136   N     0.16668   0.50001   0.04760   0.00000  Uiso   1.00
O137   O     0.16666   0.43892   0.20487   0.00000  Uiso   1.00
O138   O     0.16667   0.56108   0.12846   0.00000  Uiso   1.00
O139   O     0.16666   0.43893   0.12843   0.00000  Uiso   1.00
O140   O     0.16667   0.56107   0.20490   0.00000  Uiso   1.00
O141   O     0.09058   0.50000   0.19595   0.00000  Uiso   1.00
O142   O     0.24275   0.50000   0.13739   0.00000  Uiso   1.00
O143   O     0.09058   0.50000   0.11950   0.00000  Uiso   1.00
O144   O     0.24275   0.50000   0.21383   0.00000  Uiso   1.00
Zn145  Zn    0.16667   0.49999   0.21771   0.00000  Uiso   1.00
Zn146  Zn    0.16667   0.50001   0.11563   0.00000  Uiso   1.00
I147   I     0.05364   0.38929   0.11640   0.00000  Uiso   1.00
I148   I     0.27967   0.61072   0.21696   0.00000  Uiso   1.00
I149   I     0.05581   0.61104   0.11305   0.00000  Uiso   1.00
I150   I     0.27752   0.38896   0.22028   0.00000  Uiso   1.00
I151   I     0.24704   0.57247   0.06183   0.00000  Uiso   1.00
I152   I     0.08630   0.42752   0.27150   0.00000  Uiso   1.00
C153   C     0.49968   0.42013   0.16699   0.00000  Uiso   1.00
C154   C     0.50032   0.57987   0.16634   0.00000  Uiso   1.00
C155   C     0.40050   0.49993   0.15486   0.00000  Uiso   1.00
C156   C     0.59950   0.50007   0.17848   0.00000  Uiso   1.00
C157   C     0.34555   0.49953   0.14848   0.00000  Uiso   1.00
C158   C     0.65445   0.50047   0.18485   0.00000  Uiso   1.00
C159   C     0.45516   0.35512   0.14582   0.00000  Uiso   1.00
C160   C     0.54484   0.64488   0.18751   0.00000  Uiso   1.00
C161   C     0.45584   0.64507   0.14471   0.00000  Uiso   1.00
C162   C     0.54416   0.35493   0.18862   0.00000  Uiso   1.00
C163   C     0.50058   0.62404   0.16566   0.00000  Uiso   1.00
C164   C     0.49942   0.37596   0.16767   0.00000  Uiso   1.00
C165   C     0.53074   0.52759   0.02642   0.00000  Uiso   1.00
C166   C     0.46926   0.47241   0.30691   0.00000  Uiso   1.00
C167   C     0.53059   0.52739   0.31211   0.00000  Uiso   1.00
C168   C     0.46941   0.47261   0.02122   0.00000  Uiso   1.00
H169   H     0.65866   0.49831   0.11386   0.00000  Uiso   1.00
H170   H     0.34134   0.50169   0.21948   0.00000  Uiso   1.00
H171   H     0.55503   0.54927   0.29623   0.00000  Uiso   1.00
H172   H     0.44497   0.45074   0.03710   0.00000  Uiso   1.00
N173   N     0.49999   0.49999   0.28573   0.00000  Uiso   1.00
N174   N     0.50001   0.50001   0.04760   0.00000  Uiso   1.00
O175   O     0.50000   0.43892   0.20487   0.00000  Uiso   1.00
O176   O     0.50000   0.56108   0.12846   0.00000  Uiso   1.00
O177   O     0.50000   0.43893   0.12843   0.00000  Uiso   1.00
O178   O     0.50000   0.56107   0.20490   0.00000  Uiso   1.00
O179   O     0.42392   0.50000   0.19595   0.00000  Uiso   1.00
O180   O     0.57608   0.50000   0.13739   0.00000  Uiso   1.00
O181   O     0.42392   0.50000   0.11950   0.00000  Uiso   1.00
O182   O     0.57608   0.50000   0.21383   0.00000  Uiso   1.00
Zn183  Zn    0.50000   0.49999   0.21771   0.00000  Uiso   1.00
Zn184  Zn    0.50000   0.50001   0.11563   0.00000  Uiso   1.00
I185   I     0.38697   0.38929   0.11640   0.00000  Uiso   1.00
I186   I     0.61300   0.61072   0.21696   0.00000  Uiso   1.00
I187   I     0.38914   0.61104   0.11305   0.00000  Uiso   1.00
I188   I     0.61086   0.38896   0.22028   0.00000  Uiso   1.00
I189   I     0.58037   0.57247   0.06183   0.00000  Uiso   1.00
I190   I     0.41963   0.42752   0.27150   0.00000  Uiso   1.00
C191   C     0.83302   0.42013   0.16699   0.00000  Uiso   1.00
C192   C     0.83365   0.57987   0.16634   0.00000  Uiso   1.00
C193   C     0.73384   0.49993   0.15486   0.00000  Uiso   1.00
C194   C     0.93283   0.50007   0.17848   0.00000  Uiso   1.00
C195   C     0.67888   0.49953   0.14848   0.00000  Uiso   1.00
C196   C     0.98779   0.50047   0.18485   0.00000  Uiso   1.00
C197   C     0.78849   0.35512   0.14582   0.00000  Uiso   1.00
C198   C     0.87817   0.64488   0.18751   0.00000  Uiso   1.00
C199   C     0.78917   0.64507   0.14471   0.00000  Uiso   1.00
C200   C     0.87749   0.35493   0.18862   0.00000  Uiso   1.00
C201   C     0.83391   0.62404   0.16566   0.00000  Uiso   1.00
C202   C     0.83275   0.37596   0.16767   0.00000  Uiso   1.00
C203   C     0.86408   0.52759   0.02642   0.00000  Uiso   1.00
C204   C     0.80259   0.47241   0.30691   0.00000  Uiso   1.00
C205   C     0.86392   0.52739   0.31211   0.00000  Uiso   1.00
C206   C     0.80275   0.47261   0.02122   0.00000  Uiso   1.00
H207   H     0.99200   0.49831   0.11386   0.00000  Uiso   1.00
H208   H     0.67467   0.50169   0.21948   0.00000  Uiso   1.00
H209   H     0.88836   0.54927   0.29623   0.00000  Uiso   1.00
H210   H     0.77831   0.45074   0.03710   0.00000  Uiso   1.00
N211   N     0.83332   0.49999   0.28573   0.00000  Uiso   1.00
N212   N     0.83335   0.50001   0.04760   0.00000  Uiso   1.00
O213   O     0.83333   0.43892   0.20487   0.00000  Uiso   1.00
O214   O     0.83334   0.56108   0.12846   0.00000  Uiso   1.00
O215   O     0.83333   0.43893   0.12843   0.00000  Uiso   1.00
O216   O     0.83334   0.56107   0.20490   0.00000  Uiso   1.00
O217   O     0.75725   0.50000   0.19595   0.00000  Uiso   1.00
O218   O     0.90942   0.50000   0.13739   0.00000  Uiso   1.00
O219   O     0.75725   0.50000   0.11950   0.00000  Uiso   1.00
O220   O     0.90942   0.50000   0.21383   0.00000  Uiso   1.00
Zn221  Zn    0.83333   0.49999   0.21771   0.00000  Uiso   1.00
Zn222  Zn    0.83333   0.50001   0.11563   0.00000  Uiso   1.00
I223   I     0.72031   0.38929   0.11640   0.00000  Uiso   1.00
I224   I     0.94633   0.61072   0.21696   0.00000  Uiso   1.00
I225   I     0.72247   0.61104   0.11305   0.00000  Uiso   1.00
I226   I     0.94419   0.38896   0.22028   0.00000  Uiso   1.00
I227   I     0.91370   0.57247   0.06183   0.00000  Uiso   1.00
I228   I     0.75296   0.42752   0.27150   0.00000  Uiso   1.00
C229   C     0.16635   0.75347   0.16699   0.00000  Uiso   1.00
C230   C     0.16698   0.91320   0.16634   0.00000  Uiso   1.00
C231   C     0.06717   0.83326   0.15486   0.00000  Uiso   1.00
C232   C     0.26616   0.83341   0.17848   0.00000  Uiso   1.00
C233   C     0.01221   0.83286   0.14848   0.00000  Uiso   1.00
C234   C     0.32112   0.83380   0.18485   0.00000  Uiso   1.00
C235   C     0.12183   0.68845   0.14582   0.00000  Uiso   1.00
C236   C     0.21150   0.97822   0.18751   0.00000  Uiso   1.00
C237   C     0.12251   0.97840   0.14471   0.00000  Uiso   1.00
C238   C     0.21082   0.68826   0.18862   0.00000  Uiso   1.00
C239   C     0.16724   0.95737   0.16566   0.00000  Uiso   1.00
C240   C     0.16609   0.70929   0.16767   0.00000  Uiso   1.00
C241   C     0.19741   0.86092   0.02642   0.00000  Uiso   1.00
C242   C     0.13592   0.80574   0.30691   0.00000  Uiso   1.00
C243   C     0.19725   0.86073   0.31211   0.00000  Uiso   1.00
C244   C     0.13608   0.80594   0.02122   0.00000  Uiso   1.00
H245   H     0.32533   0.83165   0.11386   0.00000  Uiso   1.00
H246   H     0.00800   0.83502   0.21948   0.00000  Uiso   1.00
H247   H     0.22170   0.88260   0.29623   0.00000  Uiso   1.00
H248   H     0.11164   0.78407   0.03710   0.00000  Uiso   1.00
N249   N     0.16665   0.83332   0.28573   0.00000  Uiso   1.00
N250   N     0.16668   0.83334   0.04760   0.00000  Uiso   1.00
O251   O     0.16666   0.77225   0.20487   0.00000  Uiso   1.00
O252   O     0.16667   0.89442   0.12846   0.00000  Uiso   1.00
O253   O     0.16666   0.77226   0.12843   0.00000  Uiso   1.00
O254   O     0.16667   0.89441   0.20490   0.00000  Uiso   1.00
O255   O     0.09058   0.83333   0.19595   0.00000  Uiso   1.00
O256   O     0.24275   0.83334   0.13739   0.00000  Uiso   1.00
O257   O     0.09058   0.83334   0.11950   0.00000  Uiso   1.00
O258   O     0.24275   0.83333   0.21383   0.00000  Uiso   1.00
Zn259  Zn    0.16667   0.83333   0.21771   0.00000  Uiso   1.00
Zn260  Zn    0.16667   0.83334   0.11563   0.00000  Uiso   1.00
I261   I     0.05364   0.72263   0.11640   0.00000  Uiso   1.00
I262   I     0.27967   0.94405   0.21696   0.00000  Uiso   1.00
I263   I     0.05581   0.94438   0.11305   0.00000  Uiso   1.00
I264   I     0.27752   0.72229   0.22028   0.00000  Uiso   1.00
I265   I     0.24704   0.90581   0.06183   0.00000  Uiso   1.00
I266   I     0.08630   0.76086   0.27150   0.00000  Uiso   1.00
C267   C     0.49968   0.75347   0.16699   0.00000  Uiso   1.00
C268   C     0.50032   0.91320   0.16634   0.00000  Uiso   1.00
C269   C     0.40050   0.83326   0.15486   0.00000  Uiso   1.00
C270   C     0.59950   0.83341   0.17848   0.00000  Uiso   1.00
C271   C     0.34555   0.83286   0.14848   0.00000  Uiso   1.00
C272   C     0.65445   0.83380   0.18485   0.00000  Uiso   1.00
C273   C     0.45516   0.68845   0.14582   0.00000  Uiso   1.00
C274   C     0.54484   0.97822   0.18751   0.00000  Uiso   1.00
C275   C     0.45584   0.97840   0.14471   0.00000  Uiso   1.00
C276   C     0.54416   0.68826   0.18862   0.00000  Uiso   1.00
C277   C     0.50058   0.95737   0.16566   0.00000  Uiso   1.00
C278   C     0.49942   0.70929   0.16767   0.00000  Uiso   1.00
C279   C     0.53074   0.86092   0.02642   0.00000  Uiso   1.00
C280   C     0.46926   0.80574   0.30691   0.00000  Uiso   1.00
C281   C     0.53059   0.86073   0.31211   0.00000  Uiso   1.00
C282   C     0.46941   0.80594   0.02122   0.00000  Uiso   1.00
H283   H     0.65866   0.83165   0.11386   0.00000  Uiso   1.00
H284   H     0.34134   0.83502   0.21948   0.00000  Uiso   1.00
H285   H     0.55503   0.88260   0.29623   0.00000  Uiso   1.00
H286   H     0.44497   0.78407   0.03710   0.00000  Uiso   1.00
N287   N     0.49999   0.83332   0.28573   0.00000  Uiso   1.00
N288   N     0.50001   0.83334   0.04760   0.00000  Uiso   1.00
O289   O     0.50000   0.77225   0.20487   0.00000  Uiso   1.00
O290   O     0.50000   0.89442   0.12846   0.00000  Uiso   1.00
O291   O     0.50000   0.77226   0.12843   0.00000  Uiso   1.00
O292   O     0.50000   0.89441   0.20490   0.00000  Uiso   1.00
O293   O     0.42392   0.83333   0.19595   0.00000  Uiso   1.00
O294   O     0.57608   0.83334   0.13739   0.00000  Uiso   1.00
O295   O     0.42392   0.83334   0.11950   0.00000  Uiso   1.00
O296   O     0.57608   0.83333   0.21383   0.00000  Uiso   1.00
Zn297  Zn    0.50000   0.83333   0.21771   0.00000  Uiso   1.00
Zn298  Zn    0.50000   0.83334   0.11563   0.00000  Uiso   1.00
I299   I     0.38697   0.72263   0.11640   0.00000  Uiso   1.00
I300   I     0.61300   0.94405   0.21696   0.00000  Uiso   1.00
I301   I     0.38914   0.94438   0.11305   0.00000  Uiso   1.00
I302   I     0.61086   0.72229   0.22028   0.00000  Uiso   1.00
I303   I     0.58037   0.90581   0.06183   0.00000  Uiso   1.00
I304   I     0.41963   0.76086   0.27150   0.00000  Uiso   1.00
C305   C     0.83302   0.75347   0.16699   0.00000  Uiso   1.00
C306   C     0.83365   0.91320   0.16634   0.00000  Uiso   1.00
C307   C     0.73384   0.83326   0.15486   0.00000  Uiso   1.00
C308   C     0.93283   0.83341   0.17848   0.00000  Uiso   1.00
C309   C     0.67888   0.83286   0.14848   0.00000  Uiso   1.00
C310   C     0.98779   0.83380   0.18485   0.00000  Uiso   1.00
C311   C     0.78849   0.68845   0.14582   0.00000  Uiso   1.00
C312   C     0.87817   0.97822   0.18751   0.00000  Uiso   1.00
C313   C     0.78917   0.97840   0.14471   0.00000  Uiso   1.00
C314   C     0.87749   0.68826   0.18862   0.00000  Uiso   1.00
C315   C     0.83391   0.95737   0.16566   0.00000  Uiso   1.00
C316   C     0.83275   0.70929   0.16767   0.00000  Uiso   1.00
C317   C     0.86408   0.86092   0.02642   0.00000  Uiso   1.00
C318   C     0.80259   0.80574   0.30691   0.00000  Uiso   1.00
C319   C     0.86392   0.86073   0.31211   0.00000  Uiso   1.00
C320   C     0.80275   0.80594   0.02122   0.00000  Uiso   1.00
H321   H     0.99200   0.83165   0.11386   0.00000  Uiso   1.00
H322   H     0.67467   0.83502   0.21948   0.00000  Uiso   1.00
H323   H     0.88836   0.88260   0.29623   0.00000  Uiso   1.00
H324   H     0.77831   0.78407   0.03710   0.00000  Uiso   1.00
N325   N     0.83332   0.83332   0.28573   0.00000  Uiso   1.00
N326   N     0.83335   0.83334   0.04760   0.00000  Uiso   1.00
O327   O     0.83333   0.77225   0.20487   0.00000  Uiso   1.00
O328   O     0.83334   0.89442   0.12846   0.00000  Uiso   1.00
O329   O     0.83333   0.77226   0.12843   0.00000  Uiso   1.00
O330   O     0.83334   0.89441   0.20490   0.00000  Uiso   1.00
O331   O     0.75725   0.83333   0.19595   0.00000  Uiso   1.00
O332   O     0.90942   0.83334   0.13739   0.00000  Uiso   1.00
O333   O     0.75725   0.83334   0.11950   0.00000  Uiso   1.00
O334   O     0.90942   0.83333   0.21383   0.00000  Uiso   1.00
Zn335  Zn    0.83333   0.83333   0.21771   0.00000  Uiso   1.00
Zn336  Zn    0.83333   0.83334   0.11563   0.00000  Uiso   1.00
I337   I     0.72031   0.72263   0.11640   0.00000  Uiso   1.00
I338   I     0.94633   0.94405   0.21696   0.00000  Uiso   1.00
I339   I     0.72247   0.94438   0.11305   0.00000  Uiso   1.00
I340   I     0.94419   0.72229   0.22028   0.00000  Uiso   1.00
I341   I     0.91370   0.90581   0.06183   0.00000  Uiso   1.00
I342   I     0.75296   0.76086   0.27150   0.00000  Uiso   1.00
C343   C     0.16635   0.08680   0.50033   0.00000  Uiso   1.00
C344   C     0.16698   0.24653   0.49967   0.00000  Uiso   1.00
C345   C     0.06717   0.16659   0.48819   0.00000  Uiso   1.00
C346   C     0.26616   0.16674   0.51181   0.00000  Uiso   1.00
C347   C     0.01221   0.16620   0.48181   0.00000  Uiso   1.00
C348   C     0.32112   0.16713   0.51819   0.00000  Uiso   1.00
C349   C     0.12183   0.02178   0.47916   0.00000  Uiso   1.00
C350   C     0.21150   0.31155   0.52084   0.00000  Uiso   1.00
C351   C     0.12251   0.31174   0.47804   0.00000  Uiso   1.00
C352   C     0.21082   0.02160   0.52196   0.00000  Uiso   1.00
C353   C     0.16724   0.29071   0.49900   0.00000  Uiso   1.00
C354   C     0.16609   0.04263   0.50100   0.00000  Uiso   1.00
C355   C     0.19741   0.19426   0.35975   0.00000  Uiso   1.00
C356   C     0.13592   0.13908   0.64025   0.00000  Uiso   1.00
C357   C     0.19725   0.19406   0.64545   0.00000  Uiso   1.00
C358   C     0.13608   0.13927   0.35455   0.00000  Uiso   1.00
H359   H     0.32533   0.16498   0.44719   0.00000  Uiso   1.00
H360   H     0.00800   0.16835   0.55281   0.00000  Uiso   1.00
H361   H     0.22170   0.21593   0.62957   0.00000  Uiso   1.00
H362   H     0.11164   0.11740   0.37043   0.00000  Uiso   1.00
N363   N     0.16665   0.16666   0.61907   0.00000  Uiso   1.00
N364   N     0.16668   0.16668   0.38093   0.00000  Uiso   1.00
O365   O     0.16666   0.10558   0.53821   0.00000  Uiso   1.00
O366   O     0.16667   0.22775   0.46179   0.00000  Uiso   1.00
O367   O     0.16666   0.10559   0.46176   0.00000  Uiso   1.00
O368   O     0.16667   0.22774   0.53824   0.00000  Uiso   1.00
O369   O     0.09058   0.16666   0.52928   0.00000  Uiso   1.00
O370   O     0.24275   0.16667   0.47072   0.00000  Uiso   1.00
O371   O     0.09058   0.16667   0.45284   0.00000  Uiso   1.00
O372   O     0.24275   0.16666   0.54716   0.00000  Uiso   1.00
Zn373  Zn    0.16667   0.16666   0.55104   0.00000  Uiso   1.00
Zn374  Zn    0.16667   0.16667   0.44896   0.00000  Uiso   1.00
I375   I     0.05364   0.05596   0.44973   0.00000  Uiso   1.00
I376   I     0.27967   0.27738   0.55029   0.00000  Uiso   1.00
I377   I     0.05581   0.27771   0.44638   0.00000  Uiso   1.00
I378   I     0.27752   0.05563   0.55361   0.00000  Uiso   1.00
I379   I     0.24704   0.23914   0.39517   0.00000  Uiso   1.00
I380   I     0.08630   0.09419   0.60483   0.00000  Uiso   1.00
C381   C     0.49968   0.08680   0.50033   0.00000  Uiso   1.00
C382   C     0.50032   0.24653   0.49967   0.00000  Uiso   1.00
C383   C     0.40050   0.16659   0.48819   0.00000  Uiso   1.00
C384   C     0.59950   0.16674   0.51181   0.00000  Uiso   1.00
C385   C     0.34555   0.16620   0.48181   0.00000  Uiso   1.00
C386   C     0.65445   0.16713   0.51819   0.00000  Uiso   1.00
C387   C     0.45516   0.02178   0.47916   0.00000  Uiso   1.00
C388   C     0.54484   0.31155   0.52084   0.00000  Uiso   1.00
C389   C     0.45584   0.31174   0.47804   0.00000  Uiso   1.00
C390   C     0.54416   0.02160   0.52196   0.00000  Uiso   1.00
C391   C     0.50058   0.29071   0.49900   0.00000  Uiso   1.00
C392   C     0.49942   0.04263   0.50100   0.00000  Uiso   1.00
C393   C     0.53074   0.19426   0.35975   0.00000  Uiso   1.00
C394   C     0.46926   0.13908   0.64025   0.00000  Uiso   1.00
C395   C     0.53059   0.19406   0.64545   0.00000  Uiso   1.00
C396   C     0.46941   0.13927   0.35455   0.00000  Uiso   1.00
H397   H     0.65866   0.16498   0.44719   0.00000  Uiso   1.00
H398   H     0.34134   0.16835   0.55281   0.00000  Uiso   1.00
H399   H     0.55503   0.21593   0.62957   0.00000  Uiso   1.00
H400   H     0.44497   0.11740   0.37043   0.00000  Uiso   1.00
N401   N     0.49999   0.16666   0.61907   0.00000  Uiso   1.00
N402   N     0.50001   0.16668   0.38093   0.00000  Uiso   1.00
O403   O     0.50000   0.10558   0.53821   0.00000  Uiso   1.00
O404   O     0.50000   0.22775   0.46179   0.00000  Uiso   1.00
O405   O     0.50000   0.10559   0.46176   0.00000  Uiso   1.00
O406   O     0.50000   0.22774   0.53824   0.00000  Uiso   1.00
O407   O     0.42392   0.16666   0.52928   0.00000  Uiso   1.00
O408   O     0.57608   0.16667   0.47072   0.00000  Uiso   1.00
O409   O     0.42392   0.16667   0.45284   0.00000  Uiso   1.00
O410   O     0.57608   0.16666   0.54716   0.00000  Uiso   1.00
Zn411  Zn    0.50000   0.16666   0.55104   0.00000  Uiso   1.00
Zn412  Zn    0.50000   0.16667   0.44896   0.00000  Uiso   1.00
I413   I     0.38697   0.05596   0.44973   0.00000  Uiso   1.00
I414   I     0.61300   0.27738   0.55029   0.00000  Uiso   1.00
I415   I     0.38914   0.27771   0.44638   0.00000  Uiso   1.00
I416   I     0.61086   0.05563   0.55361   0.00000  Uiso   1.00
I417   I     0.58037   0.23914   0.39517   0.00000  Uiso   1.00
I418   I     0.41963   0.09419   0.60483   0.00000  Uiso   1.00
C419   C     0.83302   0.08680   0.50033   0.00000  Uiso   1.00
C420   C     0.83365   0.24653   0.49967   0.00000  Uiso   1.00
C421   C     0.73384   0.16659   0.48819   0.00000  Uiso   1.00
C422   C     0.93283   0.16674   0.51181   0.00000  Uiso   1.00
C423   C     0.67888   0.16620   0.48181   0.00000  Uiso   1.00
C424   C     0.98779   0.16713   0.51819   0.00000  Uiso   1.00
C425   C     0.78849   0.02178   0.47916   0.00000  Uiso   1.00
C426   C     0.87817   0.31155   0.52084   0.00000  Uiso   1.00
C427   C     0.78917   0.31174   0.47804   0.00000  Uiso   1.00
C428   C     0.87749   0.02160   0.52196   0.00000  Uiso   1.00
C429   C     0.83391   0.29071   0.49900   0.00000  Uiso   1.00
C430   C     0.83275   0.04263   0.50100   0.00000  Uiso   1.00
C431   C     0.86408   0.19426   0.35975   0.00000  Uiso   1.00
C432   C     0.80259   0.13908   0.64025   0.00000  Uiso   1.00
C433   C     0.86392   0.19406   0.64545   0.00000  Uiso   1.00
C434   C     0.80275   0.13927   0.35455   0.00000  Uiso   1.00
H435   H     0.99200   0.16498   0.44719   0.00000  Uiso   1.00
H436   H     0.67467   0.16835   0.55281   0.00000  Uiso   1.00
H437   H     0.88836   0.21593   0.62957   0.00000  Uiso   1.00
H438   H     0.77831   0.11740   0.37043   0.00000  Uiso   1.00
N439   N     0.83332   0.16666   0.61907   0.00000  Uiso   1.00
N440   N     0.83335   0.16668   0.38093   0.00000  Uiso   1.00
O441   O     0.83333   0.10558   0.53821   0.00000  Uiso   1.00
O442   O     0.83334   0.22775   0.46179   0.00000  Uiso   1.00
O443   O     0.83333   0.10559   0.46176   0.00000  Uiso   1.00
O444   O     0.83334   0.22774   0.53824   0.00000  Uiso   1.00
O445   O     0.75725   0.16666   0.52928   0.00000  Uiso   1.00
O446   O     0.90942   0.16667   0.47072   0.00000  Uiso   1.00
O447   O     0.75725   0.16667   0.45284   0.00000  Uiso   1.00
O448   O     0.90942   0.16666   0.54716   0.00000  Uiso   1.00
Zn449  Zn    0.83333   0.16666   0.55104   0.00000  Uiso   1.00
Zn450  Zn    0.83333   0.16667   0.44896   0.00000  Uiso   1.00
I451   I     0.72031   0.05596   0.44973   0.00000  Uiso   1.00
I452   I     0.94633   0.27738   0.55029   0.00000  Uiso   1.00
I453   I     0.72247   0.27771   0.44638   0.00000  Uiso   1.00
I454   I     0.94419   0.05563   0.55361   0.00000  Uiso   1.00
I455   I     0.91370   0.23914   0.39517   0.00000  Uiso   1.00
I456   I     0.75296   0.09419   0.60483   0.00000  Uiso   1.00
C457   C     0.16635   0.42013   0.50033   0.00000  Uiso   1.00
C458   C     0.16698   0.57987   0.49967   0.00000  Uiso   1.00
C459   C     0.06717   0.49993   0.48819   0.00000  Uiso   1.00
C460   C     0.26616   0.50007   0.51181   0.00000  Uiso   1.00
C461   C     0.01221   0.49953   0.48181   0.00000  Uiso   1.00
C462   C     0.32112   0.50047   0.51819   0.00000  Uiso   1.00
C463   C     0.12183   0.35512   0.47916   0.00000  Uiso   1.00
C464   C     0.21150   0.64488   0.52084   0.00000  Uiso   1.00
C465   C     0.12251   0.64507   0.47804   0.00000  Uiso   1.00
C466   C     0.21082   0.35493   0.52196   0.00000  Uiso   1.00
C467   C     0.16724   0.62404   0.49900   0.00000  Uiso   1.00
C468   C     0.16609   0.37596   0.50100   0.00000  Uiso   1.00
C469   C     0.19741   0.52759   0.35975   0.00000  Uiso   1.00
C470   C     0.13592   0.47241   0.64025   0.00000  Uiso   1.00
C471   C     0.19725   0.52739   0.64545   0.00000  Uiso   1.00
C472   C     0.13608   0.47261   0.35455   0.00000  Uiso   1.00
H473   H     0.32533   0.49831   0.44719   0.00000  Uiso   1.00
H474   H     0.00800   0.50169   0.55281   0.00000  Uiso   1.00
H475   H     0.22170   0.54927   0.62957   0.00000  Uiso   1.00
H476   H     0.11164   0.45074   0.37043   0.00000  Uiso   1.00
N477   N     0.16665   0.49999   0.61907   0.00000  Uiso   1.00
N478   N     0.16668   0.50001   0.38093   0.00000  Uiso   1.00
O479   O     0.16666   0.43892   0.53821   0.00000  Uiso   1.00
O480   O     0.16667   0.56108   0.46179   0.00000  Uiso   1.00
O481   O     0.16666   0.43893   0.46176   0.00000  Uiso   1.00
O482   O     0.16667   0.56107   0.53824   0.00000  Uiso   1.00
O483   O     0.09058   0.50000   0.52928   0.00000  Uiso   1.00
O484   O     0.24275   0.50000   0.47072   0.00000  Uiso   1.00
O485   O     0.09058   0.50000   0.45284   0.00000  Uiso   1.00
O486   O     0.24275   0.50000   0.54716   0.00000  Uiso   1.00
Zn487  Zn    0.16667   0.49999   0.55104   0.00000  Uiso   1.00
Zn488  Zn    0.16667   0.50001   0.44896   0.00000  Uiso   1.00
I489   I     0.05364   0.38929   0.44973   0.00000  Uiso   1.00
I490   I     0.27967   0.61072   0.55029   0.00000  Uiso   1.00
I491   I     0.05581   0.61104   0.44638   0.00000  Uiso   1.00
I492   I     0.27752   0.38896   0.55361   0.00000  Uiso   1.00
I493   I     0.24704   0.57247   0.39517   0.00000  Uiso   1.00
I494   I     0.08630   0.42752   0.60483   0.00000  Uiso   1.00
C495   C     0.49968   0.42013   0.50033   0.00000  Uiso   1.00
C496   C     0.50032   0.57987   0.49967   0.00000  Uiso   1.00
C497   C     0.40050   0.49993   0.48819   0.00000  Uiso   1.00
C498   C     0.59950   0.50007   0.51181   0.00000  Uiso   1.00
C499   C     0.34555   0.49953   0.48181   0.00000  Uiso   1.00
C500   C     0.65445   0.50047   0.51819   0.00000  Uiso   1.00
C501   C     0.45516   0.35512   0.47916   0.00000  Uiso   1.00
C502   C     0.54484   0.64488   0.52084   0.00000  Uiso   1.00
C503   C     0.45584   0.64507   0.47804   0.00000  Uiso   1.00
C504   C     0.54416   0.35493   0.52196   0.00000  Uiso   1.00
C505   C     0.50058   0.62404   0.49900   0.00000  Uiso   1.00
C506   C     0.49942   0.37596   0.50100   0.00000  Uiso   1.00
C507   C     0.53074   0.52759   0.35975   0.00000  Uiso   1.00
C508   C     0.46926   0.47241   0.64025   0.00000  Uiso   1.00
C509   C     0.53059   0.52739   0.64545   0.00000  Uiso   1.00
C510   C     0.46941   0.47261   0.35455   0.00000  Uiso   1.00
H511   H     0.65866   0.49831   0.44719   0.00000  Uiso   1.00
H512   H     0.34134   0.50169   0.55281   0.00000  Uiso   1.00
H513   H     0.55503   0.54927   0.62957   0.00000  Uiso   1.00
H514   H     0.44497   0.45074   0.37043   0.00000  Uiso   1.00
N515   N     0.49999   0.49999   0.61907   0.00000  Uiso   1.00
N516   N     0.50001   0.50001   0.38093   0.00000  Uiso   1.00
O517   O     0.50000   0.43892   0.53821   0.00000  Uiso   1.00
O518   O     0.50000   0.56108   0.46179   0.00000  Uiso   1.00
O519   O     0.50000   0.43893   0.46176   0.00000  Uiso   1.00
O520   O     0.50000   0.56107   0.53824   0.00000  Uiso   1.00
O521   O     0.42392   0.50000   0.52928   0.00000  Uiso   1.00
O522   O     0.57608   0.50000   0.47072   0.00000  Uiso   1.00
O523   O     0.42392   0.50000   0.45284   0.00000  Uiso   1.00
O524   O     0.57608   0.50000   0.54716   0.00000  Uiso   1.00
Zn525  Zn    0.50000   0.49999   0.55104   0.00000  Uiso   1.00
Zn526  Zn    0.50000   0.50001   0.44896   0.00000  Uiso   1.00
I527   I     0.38697   0.38929   0.44973   0.00000  Uiso   1.00
I528   I     0.61300   0.61072   0.55029   0.00000  Uiso   1.00
I529   I     0.38914   0.61104   0.44638   0.00000  Uiso   1.00
I530   I     0.61086   0.38896   0.55361   0.00000  Uiso   1.00
I531   I     0.58037   0.57247   0.39517   0.00000  Uiso   1.00
I532   I     0.41963   0.42752   0.60483   0.00000  Uiso   1.00
C533   C     0.83302   0.42013   0.50033   0.00000  Uiso   1.00
C534   C     0.83365   0.57987   0.49967   0.00000  Uiso   1.00
C535   C     0.73384   0.49993   0.48819   0.00000  Uiso   1.00
C536   C     0.93283   0.50007   0.51181   0.00000  Uiso   1.00
C537   C     0.67888   0.49953   0.48181   0.00000  Uiso   1.00
C538   C     0.98779   0.50047   0.51819   0.00000  Uiso   1.00
C539   C     0.78849   0.35512   0.47916   0.00000  Uiso   1.00
C540   C     0.87817   0.64488   0.52084   0.00000  Uiso   1.00
C541   C     0.78917   0.64507   0.47804   0.00000  Uiso   1.00
C542   C     0.87749   0.35493   0.52196   0.00000  Uiso   1.00
C543   C     0.83391   0.62404   0.49900   0.00000  Uiso   1.00
C544   C     0.83275   0.37596   0.50100   0.00000  Uiso   1.00
C545   C     0.86408   0.52759   0.35975   0.00000  Uiso   1.00
C546   C     0.80259   0.47241   0.64025   0.00000  Uiso   1.00
C547   C     0.86392   0.52739   0.64545   0.00000  Uiso   1.00
C548   C     0.80275   0.47261   0.35455   0.00000  Uiso   1.00
H549   H     0.99200   0.49831   0.44719   0.00000  Uiso   1.00
H550   H     0.67467   0.50169   0.55281   0.00000  Uiso   1.00
H551   H     0.88836   0.54927   0.62957   0.00000  Uiso   1.00
H552   H     0.77831   0.45074   0.37043   0.00000  Uiso   1.00
N553   N     0.83332   0.49999   0.61907   0.00000  Uiso   1.00
N554   N     0.83335   0.50001   0.38093   0.00000  Uiso   1.00
O555   O     0.83333   0.43892   0.53821   0.00000  Uiso   1.00
O556   O     0.83334   0.56108   0.46179   0.00000  Uiso   1.00
O557   O     0.83333   0.43893   0.46176   0.00000  Uiso   1.00
O558   O     0.83334   0.56107   0.53824   0.00000  Uiso   1.00
O559   O     0.75725   0.50000   0.52928   0.00000  Uiso   1.00
O560   O     0.90942   0.50000   0.47072   0.00000  Uiso   1.00
O561   O     0.75725   0.50000   0.45284   0.00000  Uiso   1.00
O562   O     0.90942   0.50000   0.54716   0.00000  Uiso   1.00
Zn563  Zn    0.83333   0.49999   0.55104   0.00000  Uiso   1.00
Zn564  Zn    0.83333   0.50001   0.44896   0.00000  Uiso   1.00
I565   I     0.72031   0.38929   0.44973   0.00000  Uiso   1.00
I566   I     0.94633   0.61072   0.55029   0.00000  Uiso   1.00
I567   I     0.72247   0.61104   0.44638   0.00000  Uiso   1.00
I568   I     0.94419   0.38896   0.55361   0.00000  Uiso   1.00
I569   I     0.91370   0.57247   0.39517   0.00000  Uiso   1.00
I570   I     0.75296   0.42752   0.60483   0.00000  Uiso   1.00
C571   C     0.16635   0.75347   0.50033   0.00000  Uiso   1.00
C572   C     0.16698   0.91320   0.49967   0.00000  Uiso   1.00
C573   C     0.06717   0.83326   0.48819   0.00000  Uiso   1.00
C574   C     0.26616   0.83341   0.51181   0.00000  Uiso   1.00
C575   C     0.01221   0.83286   0.48181   0.00000  Uiso   1.00
C576   C     0.32112   0.83380   0.51819   0.00000  Uiso   1.00
C577   C     0.12183   0.68845   0.47916   0.00000  Uiso   1.00
C578   C     0.21150   0.97822   0.52084   0.00000  Uiso   1.00
C579   C     0.12251   0.97840   0.47804   0.00000  Uiso   1.00
C580   C     0.21082   0.68826   0.52196   0.00000  Uiso   1.00
C581   C     0.16724   0.95737   0.49900   0.00000  Uiso   1.00
C582   C     0.16609   0.70929   0.50100   0.00000  Uiso   1.00
C583   C     0.19741   0.86092   0.35975   0.00000  Uiso   1.00
C584   C     0.13592   0.80574   0.64025   0.00000  Uiso   1.00
C585   C     0.19725   0.86073   0.64545   0.00000  Uiso   1.00
C586   C     0.13608   0.80594   0.35455   0.00000  Uiso   1.00
H587   H     0.32533   0.83165   0.44719   0.00000  Uiso   1.00
H588   H     0.00800   0.83502   0.55281   0.00000  Uiso   1.00
H589   H     0.22170   0.88260   0.62957   0.00000  Uiso   1.00
H590   H     0.11164   0.78407   0.37043   0.00000  Uiso   1.00
N591   N     0.16665   0.83332   0.61907   0.00000  Uiso   1.00
N592   N     0.16668   0.83334   0.38093   0.00000  Uiso   1.00
O593   O     0.16666   0.77225   0.53821   0.00000  Uiso   1.00
O594   O     0.16667   0.89442   0.46179   0.00000  Uiso   1.00
O595   O     0.16666   0.77226   0.46176   0.00000  Uiso   1.00
O596   O     0.16667   0.89441   0.53824   0.00000  Uiso   1.00
O597   O     0.09058   0.83333   0.52928   0.00000  Uiso   1.00
O598   O     0.24275   0.83334   0.47072   0.00000  Uiso   1.00
O599   O     0.09058   0.83334   0.45284   0.00000  Uiso   1.00
O600   O     0.24275   0.83333   0.54716   0.00000  Uiso   1.00
Zn601  Zn    0.16667   0.83333   0.55104   0.00000  Uiso   1.00
Zn602  Zn    0.16667   0.83334   0.44896   0.00000  Uiso   1.00
I603   I     0.05364   0.72263   0.44973   0.00000  Uiso   1.00
I604   I     0.27967   0.94405   0.55029   0.00000  Uiso   1.00
I605   I     0.05581   0.94438   0.44638   0.00000  Uiso   1.00
I606   I     0.27752   0.72229   0.55361   0.00000  Uiso   1.00
I607   I     0.24704   0.90581   0.39517   0.00000  Uiso   1.00
I608   I     0.08630   0.76086   0.60483   0.00000  Uiso   1.00
C609   C     0.49968   0.75347   0.50033   0.00000  Uiso   1.00
C610   C     0.50032   0.91320   0.49967   0.00000  Uiso   1.00
C611   C     0.40050   0.83326   0.48819   0.00000  Uiso   1.00
C612   C     0.59950   0.83341   0.51181   0.00000  Uiso   1.00
C613   C     0.34555   0.83286   0.48181   0.00000  Uiso   1.00
C614   C     0.65445   0.83380   0.51819   0.00000  Uiso   1.00
C615   C     0.45516   0.68845   0.47916   0.00000  Uiso   1.00
C616   C     0.54484   0.97822   0.52084   0.00000  Uiso   1.00
C617   C     0.45584   0.97840   0.47804   0.00000  Uiso   1.00
C618   C     0.54416   0.68826   0.52196   0.00000  Uiso   1.00
C619   C     0.50058   0.95737   0.49900   0.00000  Uiso   1.00
C620   C     0.49942   0.70929   0.50100   0.00000  Uiso   1.00
C621   C     0.53074   0.86092   0.35975   0.00000  Uiso   1.00
C622   C     0.46926   0.80574   0.64025   0.00000  Uiso   1.00
C623   C     0.53059   0.86073   0.64545   0.00000  Uiso   1.00
C624   C     0.46941   0.80594   0.35455   0.00000  Uiso   1.00
H625   H     0.65866   0.83165   0.44719   0.00000  Uiso   1.00
H626   H     0.34134   0.83502   0.55281   0.00000  Uiso   1.00
H627   H     0.55503   0.88260   0.62957   0.00000  Uiso   1.00
H628   H     0.44497   0.78407   0.37043   0.00000  Uiso   1.00
N629   N     0.49999   0.83332   0.61907   0.00000  Uiso   1.00
N630   N     0.50001   0.83334   0.38093   0.00000  Uiso   1.00
O631   O     0.50000   0.77225   0.53821   0.00000  Uiso   1.00
O632   O     0.50000   0.89442   0.46179   0.00000  Uiso   1.00
O633   O     0.50000   0.77226   0.46176   0.00000  Uiso   1.00
O634   O     0.50000   0.89441   0.53824   0.00000  Uiso   1.00
O635   O     0.42392   0.83333   0.52928   0.00000  Uiso   1.00
O636   O     0.57608   0.83334   0.47072   0.00000  Uiso   1.00
O637   O     0.42392   0.83334   0.45284   0.00000  Uiso   1.00
O638   O     0.57608   0.83333   0.54716   0.00000  Uiso   1.00
Zn639  Zn    0.50000   0.83333   0.55104   0.00000  Uiso   1.00
Zn640  Zn    0.50000   0.83334   0.44896   0.00000  Uiso   1.00
I641   I     0.38697   0.72263   0.44973   0.00000  Uiso   1.00
I642   I     0.61300   0.94405   0.55029   0.00000  Uiso   1.00
I643   I     0.38914   0.94438   0.44638   0.00000  Uiso   1.00
I644   I     0.61086   0.72229   0.55361   0.00000  Uiso   1.00
I645   I     0.58037   0.90581   0.39517   0.00000  Uiso   1.00
I646   I     0.41963   0.76086   0.60483   0.00000  Uiso   1.00
C647   C     0.83302   0.75347   0.50033   0.00000  Uiso   1.00
C648   C     0.83365   0.91320   0.49967   0.00000  Uiso   1.00
C649   C     0.73384   0.83326   0.48819   0.00000  Uiso   1.00
C650   C     0.93283   0.83341   0.51181   0.00000  Uiso   1.00
C651   C     0.67888   0.83286   0.48181   0.00000  Uiso   1.00
C652   C     0.98779   0.83380   0.51819   0.00000  Uiso   1.00
C653   C     0.78849   0.68845   0.47916   0.00000  Uiso   1.00
C654   C     0.87817   0.97822   0.52084   0.00000  Uiso   1.00
C655   C     0.78917   0.97840   0.47804   0.00000  Uiso   1.00
C656   C     0.87749   0.68826   0.52196   0.00000  Uiso   1.00
C657   C     0.83391   0.95737   0.49900   0.00000  Uiso   1.00
C658   C     0.83275   0.70929   0.50100   0.00000  Uiso   1.00
C659   C     0.86408   0.86092   0.35975   0.00000  Uiso   1.00
C660   C     0.80259   0.80574   0.64025   0.00000  Uiso   1.00
C661   C     0.86392   0.86073   0.64545   0.00000  Uiso   1.00
C662   C     0.80275   0.80594   0.35455   0.00000  Uiso   1.00
H663   H     0.99200   0.83165   0.44719   0.00000  Uiso   1.00
H664   H     0.67467   0.83502   0.55281   0.00000  Uiso   1.00
H665   H     0.88836   0.88260   0.62957   0.00000  Uiso   1.00
H666   H     0.77831   0.78407   0.37043   0.00000  Uiso   1.00
N667   N     0.83332   0.83332   0.61907   0.00000  Uiso   1.00
N668   N     0.83335   0.83334   0.38093   0.00000  Uiso   1.00
O669   O     0.83333   0.77225   0.53821   0.00000  Uiso   1.00
O670   O     0.83334   0.89442   0.46179   0.00000  Uiso   1.00
O671   O     0.83333   0.77226   0.46176   0.00000  Uiso   1.00
O672   O     0.83334   0.89441   0.53824   0.00000  Uiso   1.00
O673   O     0.75725   0.83333   0.52928   0.00000  Uiso   1.00
O674   O     0.90942   0.83334   0.47072   0.00000  Uiso   1.00
O675   O     0.75725   0.83334   0.45284   0.00000  Uiso   1.00
O676   O     0.90942   0.83333   0.54716   0.00000  Uiso   1.00
Zn677  Zn    0.83333   0.83333   0.55104   0.00000  Uiso   1.00
Zn678  Zn    0.83333   0.83334   0.44896   0.00000  Uiso   1.00
I679   I     0.72031   0.72263   0.44973   0.00000  Uiso   1.00
I680   I     0.94633   0.94405   0.55029   0.00000  Uiso   1.00
I681   I     0.72247   0.94438   0.44638   0.00000  Uiso   1.00
I682   I     0.94419   0.72229   0.55361   0.00000  Uiso   1.00
I683   I     0.91370   0.90581   0.39517   0.00000  Uiso   1.00
I684   I     0.75296   0.76086   0.60483   0.00000  Uiso   1.00
C685   C     0.16635   0.08680   0.83366   0.00000  Uiso   1.00
C686   C     0.16698   0.24653   0.83301   0.00000  Uiso   1.00
C687   C     0.06717   0.16659   0.82152   0.00000  Uiso   1.00
C688   C     0.26616   0.16674   0.84514   0.00000  Uiso   1.00
C689   C     0.01221   0.16620   0.81515   0.00000  Uiso   1.00
C690   C     0.32112   0.16713   0.85152   0.00000  Uiso   1.00
C691   C     0.12183   0.02178   0.81249   0.00000  Uiso   1.00
C692   C     0.21150   0.31155   0.85418   0.00000  Uiso   1.00
C693   C     0.12251   0.31174   0.81138   0.00000  Uiso   1.00
C694   C     0.21082   0.02160   0.85529   0.00000  Uiso   1.00
C695   C     0.16724   0.29071   0.83233   0.00000  Uiso   1.00
C696   C     0.16609   0.04263   0.83434   0.00000  Uiso   1.00
C697   C     0.19741   0.19426   0.69309   0.00000  Uiso   1.00
C698   C     0.13592   0.13908   0.97358   0.00000  Uiso   1.00
C699   C     0.19725   0.19406   0.97878   0.00000  Uiso   1.00
C700   C     0.13608   0.13927   0.68789   0.00000  Uiso   1.00
H701   H     0.32533   0.16498   0.78052   0.00000  Uiso   1.00
H702   H     0.00800   0.16835   0.88614   0.00000  Uiso   1.00
H703   H     0.22170   0.21593   0.96290   0.00000  Uiso   1.00
H704   H     0.11164   0.11740   0.70377   0.00000  Uiso   1.00
N705   N     0.16665   0.16666   0.95240   0.00000  Uiso   1.00
N706   N     0.16668   0.16668   0.71427   0.00000  Uiso   1.00
O707   O     0.16666   0.10558   0.87154   0.00000  Uiso   1.00
O708   O     0.16667   0.22775   0.79513   0.00000  Uiso   1.00
O709   O     0.16666   0.10559   0.79510   0.00000  Uiso   1.00
O710   O     0.16667   0.22774   0.87157   0.00000  Uiso   1.00
O711   O     0.09058   0.16666   0.86261   0.00000  Uiso   1.00
O712   O     0.24275   0.16667   0.80405   0.00000  Uiso   1.00
O713   O     0.09058   0.16667   0.78617   0.00000  Uiso   1.00
O714   O     0.24275   0.16666   0.88050   0.00000  Uiso   1.00
Zn715  Zn    0.16667   0.16666   0.88437   0.00000  Uiso   1.00
Zn716  Zn    0.16667   0.16667   0.78229   0.00000  Uiso   1.00
I717   I     0.05364   0.05596   0.78306   0.00000  Uiso   1.00
I718   I     0.27967   0.27738   0.88363   0.00000  Uiso   1.00
I719   I     0.05581   0.27771   0.77972   0.00000  Uiso   1.00
I720   I     0.27752   0.05563   0.88695   0.00000  Uiso   1.00
I721   I     0.24704   0.23914   0.72850   0.00000  Uiso   1.00
I722   I     0.08630   0.09419   0.93817   0.00000  Uiso   1.00
C723   C     0.49968   0.08680   0.83366   0.00000  Uiso   1.00
C724   C     0.50032   0.24653   0.83301   0.00000  Uiso   1.00
C725   C     0.40050   0.16659   0.82152   0.00000  Uiso   1.00
C726   C     0.59950   0.16674   0.84514   0.00000  Uiso   1.00
C727   C     0.34555   0.16620   0.81515   0.00000  Uiso   1.00
C728   C     0.65445   0.16713   0.85152   0.00000  Uiso   1.00
C729   C     0.45516   0.02178   0.81249   0.00000  Uiso   1.00
C730   C     0.54484   0.31155   0.85418   0.00000  Uiso   1.00
C731   C     0.45584   0.31174   0.81138   0.00000  Uiso   1.00
C732   C     0.54416   0.02160   0.85529   0.00000  Uiso   1.00
C733   C     0.50058   0.29071   0.83233   0.00000  Uiso   1.00
C734   C     0.49942   0.04263   0.83434   0.00000  Uiso   1.00
C735   C     0.53074   0.19426   0.69309   0.00000  Uiso   1.00
C736   C     0.46926   0.13908   0.97358   0.00000  Uiso   1.00
C737   C     0.53059   0.19406   0.97878   0.00000  Uiso   1.00
C738   C     0.46941   0.13927   0.68789   0.00000  Uiso   1.00
H739   H     0.65866   0.16498   0.78052   0.00000  Uiso   1.00
H740   H     0.34134   0.16835   0.88614   0.00000  Uiso   1.00
H741   H     0.55503   0.21593   0.96290   0.00000  Uiso   1.00
H742   H     0.44497   0.11740   0.70377   0.00000  Uiso   1.00
N743   N     0.49999   0.16666   0.95240   0.00000  Uiso   1.00
N744   N     0.50001   0.16668   0.71427   0.00000  Uiso   1.00
O745   O     0.50000   0.10558   0.87154   0.00000  Uiso   1.00
O746   O     0.50000   0.22775   0.79513   0.00000  Uiso   1.00
O747   O     0.50000   0.10559   0.79510   0.00000  Uiso   1.00
O748   O     0.50000   0.22774   0.87157   0.00000  Uiso   1.00
O749   O     0.42392   0.16666   0.86261   0.00000  Uiso   1.00
O750   O     0.57608   0.16667   0.80405   0.00000  Uiso   1.00
O751   O     0.42392   0.16667   0.78617   0.00000  Uiso   1.00
O752   O     0.57608   0.16666   0.88050   0.00000  Uiso   1.00
Zn753  Zn    0.50000   0.16666   0.88437   0.00000  Uiso   1.00
Zn754  Zn    0.50000   0.16667   0.78229   0.00000  Uiso   1.00
I755   I     0.38697   0.05596   0.78306   0.00000  Uiso   1.00
I756   I     0.61300   0.27738   0.88363   0.00000  Uiso   1.00
I757   I     0.38914   0.27771   0.77972   0.00000  Uiso   1.00
I758   I     0.61086   0.05563   0.88695   0.00000  Uiso   1.00
I759   I     0.58037   0.23914   0.72850   0.00000  Uiso   1.00
I760   I     0.41963   0.09419   0.93817   0.00000  Uiso   1.00
C761   C     0.83302   0.08680   0.83366   0.00000  Uiso   1.00
C762   C     0.83365   0.24653   0.83301   0.00000  Uiso   1.00
C763   C     0.73384   0.16659   0.82152   0.00000  Uiso   1.00
C764   C     0.93283   0.16674   0.84514   0.00000  Uiso   1.00
C765   C     0.67888   0.16620   0.81515   0.00000  Uiso   1.00
C766   C     0.98779   0.16713   0.85152   0.00000  Uiso   1.00
C767   C     0.78849   0.02178   0.81249   0.00000  Uiso   1.00
C768   C     0.87817   0.31155   0.85418   0.00000  Uiso   1.00
C769   C     0.78917   0.31174   0.81138   0.00000  Uiso   1.00
C770   C     0.87749   0.02160   0.85529   0.00000  Uiso   1.00
C771   C     0.83391   0.29071   0.83233   0.00000  Uiso   1.00
C772   C     0.83275   0.04263   0.83434   0.00000  Uiso   1.00
C773   C     0.86408   0.19426   0.69309   0.00000  Uiso   1.00
C774   C     0.80259   0.13908   0.97358   0.00000  Uiso   1.00
C775   C     0.86392   0.19406   0.97878   0.00000  Uiso   1.00
C776   C     0.80275   0.13927   0.68789   0.00000  Uiso   1.00
H777   H     0.99200   0.16498   0.78052   0.00000  Uiso   1.00
H778   H     0.67467   0.16835   0.88614   0.00000  Uiso   1.00
H779   H     0.88836   0.21593   0.96290   0.00000  Uiso   1.00
H780   H     0.77831   0.11740   0.70377   0.00000  Uiso   1.00
N781   N     0.83332   0.16666   0.95240   0.00000  Uiso   1.00
N782   N     0.83335   0.16668   0.71427   0.00000  Uiso   1.00
O783   O     0.83333   0.10558   0.87154   0.00000  Uiso   1.00
O784   O     0.83334   0.22775   0.79513   0.00000  Uiso   1.00
O785   O     0.83333   0.10559   0.79510   0.00000  Uiso   1.00
O786   O     0.83334   0.22774   0.87157   0.00000  Uiso   1.00
O787   O     0.75725   0.16666   0.86261   0.00000  Uiso   1.00
O788   O     0.90942   0.16667   0.80405   0.00000  Uiso   1.00
O789   O     0.75725   0.16667   0.78617   0.00000  Uiso   1.00
O790   O     0.90942   0.16666   0.88050   0.00000  Uiso   1.00
Zn791  Zn    0.83333   0.16666   0.88437   0.00000  Uiso   1.00
Zn792  Zn    0.83333   0.16667   0.78229   0.00000  Uiso   1.00
I793   I     0.72031   0.05596   0.78306   0.00000  Uiso   1.00
I794   I     0.94633   0.27738   0.88363   0.00000  Uiso   1.00
I795   I     0.72247   0.27771   0.77972   0.00000  Uiso   1.00
I796   I     0.94419   0.05563   0.88695   0.00000  Uiso   1.00
I797   I     0.91370   0.23914   0.72850   0.00000  Uiso   1.00
I798   I     0.75296   0.09419   0.93817   0.00000  Uiso   1.00
C799   C     0.16635   0.42013   0.83366   0.00000  Uiso   1.00
C800   C     0.16698   0.57987   0.83301   0.00000  Uiso   1.00
C801   C     0.06717   0.49993   0.82152   0.00000  Uiso   1.00
C802   C     0.26616   0.50007   0.84514   0.00000  Uiso   1.00
C803   C     0.01221   0.49953   0.81515   0.00000  Uiso   1.00
C804   C     0.32112   0.50047   0.85152   0.00000  Uiso   1.00
C805   C     0.12183   0.35512   0.81249   0.00000  Uiso   1.00
C806   C     0.21150   0.64488   0.85418   0.00000  Uiso   1.00
C807   C     0.12251   0.64507   0.81138   0.00000  Uiso   1.00
C808   C     0.21082   0.35493   0.85529   0.00000  Uiso   1.00
C809   C     0.16724   0.62404   0.83233   0.00000  Uiso   1.00
C810   C     0.16609   0.37596   0.83434   0.00000  Uiso   1.00
C811   C     0.19741   0.52759   0.69309   0.00000  Uiso   1.00
C812   C     0.13592   0.47241   0.97358   0.00000  Uiso   1.00
C813   C     0.19725   0.52739   0.97878   0.00000  Uiso   1.00
C814   C     0.13608   0.47261   0.68789   0.00000  Uiso   1.00
H815   H     0.32533   0.49831   0.78052   0.00000  Uiso   1.00
H816   H     0.00800   0.50169   0.88614   0.00000  Uiso   1.00
H817   H     0.22170   0.54927   0.96290   0.00000  Uiso   1.00
H818   H     0.11164   0.45074   0.70377   0.00000  Uiso   1.00
N819   N     0.16665   0.49999   0.95240   0.00000  Uiso   1.00
N820   N     0.16668   0.50001   0.71427   0.00000  Uiso   1.00
O821   O     0.16666   0.43892   0.87154   0.00000  Uiso   1.00
O822   O     0.16667   0.56108   0.79513   0.00000  Uiso   1.00
O823   O     0.16666   0.43893   0.79510   0.00000  Uiso   1.00
O824   O     0.16667   0.56107   0.87157   0.00000  Uiso   1.00
O825   O     0.09058   0.50000   0.86261   0.00000  Uiso   1.00
O826   O     0.24275   0.50000   0.80405   0.00000  Uiso   1.00
O827   O     0.09058   0.50000   0.78617   0.00000  Uiso   1.00
O828   O     0.24275   0.50000   0.88050   0.00000  Uiso   1.00
Zn829  Zn    0.16667   0.49999   0.88437   0.00000  Uiso   1.00
Zn830  Zn    0.16667   0.50001   0.78229   0.00000  Uiso   1.00
I831   I     0.05364   0.38929   0.78306   0.00000  Uiso   1.00
I832   I     0.27967   0.61072   0.88363   0.00000  Uiso   1.00
I833   I     0.05581   0.61104   0.77972   0.00000  Uiso   1.00
I834   I     0.27752   0.38896   0.88695   0.00000  Uiso   1.00
I835   I     0.24704   0.57247   0.72850   0.00000  Uiso   1.00
I836   I     0.08630   0.42752   0.93817   0.00000  Uiso   1.00
C837   C     0.49968   0.42013   0.83366   0.00000  Uiso   1.00
C838   C     0.50032   0.57987   0.83301   0.00000  Uiso   1.00
C839   C     0.40050   0.49993   0.82152   0.00000  Uiso   1.00
C840   C     0.59950   0.50007   0.84514   0.00000  Uiso   1.00
C841   C     0.34555   0.49953   0.81515   0.00000  Uiso   1.00
C842   C     0.65445   0.50047   0.85152   0.00000  Uiso   1.00
C843   C     0.45516   0.35512   0.81249   0.00000  Uiso   1.00
C844   C     0.54484   0.64488   0.85418   0.00000  Uiso   1.00
C845   C     0.45584   0.64507   0.81138   0.00000  Uiso   1.00
C846   C     0.54416   0.35493   0.85529   0.00000  Uiso   1.00
C847   C     0.50058   0.62404   0.83233   0.00000  Uiso   1.00
C848   C     0.49942   0.37596   0.83434   0.00000  Uiso   1.00
C849   C     0.53074   0.52759   0.69309   0.00000  Uiso   1.00
C850   C     0.46926   0.47241   0.97358   0.00000  Uiso   1.00
C851   C     0.53059   0.52739   0.97878   0.00000  Uiso   1.00
C852   C     0.46941   0.47261   0.68789   0.00000  Uiso   1.00
H853   H     0.65866   0.49831   0.78052   0.00000  Uiso   1.00
H854   H     0.34134   0.50169   0.88614   0.00000  Uiso   1.00
H855   H     0.55503   0.54927   0.96290   0.00000  Uiso   1.00
H856   H     0.44497   0.45074   0.70377   0.00000  Uiso   1.00
N857   N     0.49999   0.49999   0.95240   0.00000  Uiso   1.00
N858   N     0.50001   0.50001   0.71427   0.00000  Uiso   1.00
O859   O     0.50000   0.43892   0.87154   0.00000  Uiso   1.00
O860   O     0.50000   0.56108   0.79513   0.00000  Uiso   1.00
O861   O     0.50000   0.43893   0.79510   0.00000  Uiso   1.00
O862   O     0.50000   0.56107   0.87157   0.00000  Uiso   1.00
O863   O     0.42392   0.50000   0.86261   0.00000  Uiso   1.00
O864   O     0.57608   0.50000   0.80405   0.00000  Uiso   1.00
O865   O     0.42392   0.50000   0.78617   0.00000  Uiso   1.00
O866   O     0.57608   0.50000   0.88050   0.00000  Uiso   1.00
Zn867  Zn    0.50000   0.49999   0.88437   0.00000  Uiso   1.00
Zn868  Zn    0.50000   0.50001   0.78229   0.00000  Uiso   1.00
I869   I     0.38697   0.38929   0.78306   0.00000  Uiso   1.00
I870   I     0.61300   0.61072   0.88363   0.00000  Uiso   1.00
I871   I     0.38914   0.61104   0.77972   0.00000  Uiso   1.00
I872   I     0.61086   0.38896   0.88695   0.00000  Uiso   1.00
I873   I     0.58037   0.57247   0.72850   0.00000  Uiso   1.00
I874   I     0.41963   0.42752   0.93817   0.00000  Uiso   1.00
C875   C     0.83302   0.42013   0.83366   0.00000  Uiso   1.00
C876   C     0.83365   0.57987   0.83301   0.00000  Uiso   1.00
C877   C     0.73384   0.49993   0.82152   0.00000  Uiso   1.00
C878   C     0.93283   0.50007   0.84514   0.00000  Uiso   1.00
C879   C     0.67888   0.49953   0.81515   0.00000  Uiso   1.00
C880   C     0.98779   0.50047   0.85152   0.00000  Uiso   1.00
C881   C     0.78849   0.35512   0.81249   0.00000  Uiso   1.00
C882   C     0.87817   0.64488   0.85418   0.00000  Uiso   1.00
C883   C     0.78917   0.64507   0.81138   0.00000  Uiso   1.00
C884   C     0.87749   0.35493   0.85529   0.00000  Uiso   1.00
C885   C     0.83391   0.62404   0.83233   0.00000  Uiso   1.00
C886   C     0.83275   0.37596   0.83434   0.00000  Uiso   1.00
C887   C     0.86408   0.52759   0.69309   0.00000  Uiso   1.00
C888   C     0.80259   0.47241   0.97358   0.00000  Uiso   1.00
C889   C     0.86392   0.52739   0.97878   0.00000  Uiso   1.00
C890   C     0.80275   0.47261   0.68789   0.00000  Uiso   1.00
H891   H     0.99200   0.49831   0.78052   0.00000  Uiso   1.00
H892   H     0.67467   0.50169   0.88614   0.00000  Uiso   1.00
H893   H     0.88836   0.54927   0.96290   0.00000  Uiso   1.00
H894   H     0.77831   0.45074   0.70377   0.00000  Uiso   1.00
N895   N     0.83332   0.49999   0.95240   0.00000  Uiso   1.00
N896   N     0.83335   0.50001   0.71427   0.00000  Uiso   1.00
O897   O     0.83333   0.43892   0.87154   0.00000  Uiso   1.00
O898   O     0.83334   0.56108   0.79513   0.00000  Uiso   1.00
O899   O     0.83333   0.43893   0.79510   0.00000  Uiso   1.00
O900   O     0.83334   0.56107   0.87157   0.00000  Uiso   1.00
O901   O     0.75725   0.50000   0.86261   0.00000  Uiso   1.00
O902   O     0.90942   0.50000   0.80405   0.00000  Uiso   1.00
O903   O     0.75725   0.50000   0.78617   0.00000  Uiso   1.00
O904   O     0.90942   0.50000   0.88050   0.00000  Uiso   1.00
Zn905  Zn    0.83333   0.49999   0.88437   0.00000  Uiso   1.00
Zn906  Zn    0.83333   0.50001   0.78229   0.00000  Uiso   1.00
I907   I     0.72031   0.38929   0.78306   0.00000  Uiso   1.00
I908   I     0.94633   0.61072   0.88363   0.00000  Uiso   1.00
I909   I     0.72247   0.61104   0.77972   0.00000  Uiso   1.00
I910   I     0.94419   0.38896   0.88695   0.00000  Uiso   1.00
I911   I     0.91370   0.57247   0.72850   0.00000  Uiso   1.00
I912   I     0.75296   0.42752   0.93817   0.00000  Uiso   1.00
C913   C     0.16635   0.75347   0.83366   0.00000  Uiso   1.00
C914   C     0.16698   0.91320   0.83301   0.00000  Uiso   1.00
C915   C     0.06717   0.83326   0.82152   0.00000  Uiso   1.00
C916   C     0.26616   0.83341   0.84514   0.00000  Uiso   1.00
C917   C     0.01221   0.83286   0.81515   0.00000  Uiso   1.00
C918   C     0.32112   0.83380   0.85152   0.00000  Uiso   1.00
C919   C     0.12183   0.68845   0.81249   0.00000  Uiso   1.00
C920   C     0.21150   0.97822   0.85418   0.00000  Uiso   1.00
C921   C     0.12251   0.97840   0.81138   0.00000  Uiso   1.00
C922   C     0.21082   0.68826   0.85529   0.00000  Uiso   1.00
C923   C     0.16724   0.95737   0.83233   0.00000  Uiso   1.00
C924   C     0.16609   0.70929   0.83434   0.00000  Uiso   1.00
C925   C     0.19741   0.86092   0.69309   0.00000  Uiso   1.00
C926   C     0.13592   0.80574   0.97358   0.00000  Uiso   1.00
C927   C     0.19725   0.86073   0.97878   0.00000  Uiso   1.00
C928   C     0.13608   0.80594   0.68789   0.00000  Uiso   1.00
H929   H     0.32533   0.83165   0.78052   0.00000  Uiso   1.00
H930   H     0.00800   0.83502   0.88614   0.00000  Uiso   1.00
H931   H     0.22170   0.88260   0.96290   0.00000  Uiso   1.00
H932   H     0.11164   0.78407   0.70377   0.00000  Uiso   1.00
N933   N     0.16665   0.83332   0.95240   0.00000  Uiso   1.00
N934   N     0.16668   0.83334   0.71427   0.00000  Uiso   1.00
O935   O     0.16666   0.77225   0.87154   0.00000  Uiso   1.00
O936   O     0.16667   0.89442   0.79513   0.00000  Uiso   1.00
O937   O     0.16666   0.77226   0.79510   0.00000  Uiso   1.00
O938   O     0.16667   0.89441   0.87157   0.00000  Uiso   1.00
O939   O     0.09058   0.83333   0.86261   0.00000  Uiso   1.00
O940   O     0.24275   0.83334   0.80405   0.00000  Uiso   1.00
O941   O     0.09058   0.83334   0.78617   0.00000  Uiso   1.00
O942   O     0.24275   0.83333   0.88050   0.00000  Uiso   1.00
Zn943  Zn    0.16667   0.83333   0.88437   0.00000  Uiso   1.00
Zn944  Zn    0.16667   0.83334   0.78229   0.00000  Uiso   1.00
I945   I     0.05364   0.72263   0.78306   0.00000  Uiso   1.00
I946   I     0.27967   0.94405   0.88363   0.00000  Uiso   1.00
I947   I     0.05581   0.94438   0.77972   0.00000  Uiso   1.00
I948   I     0.27752   0.72229   0.88695   0.00000  Uiso   1.00
I949   I     0.24704   0.90581   0.72850   0.00000  Uiso   1.00
I950   I     0.08630   0.76086   0.93817   0.00000  Uiso   1.00
C951   C     0.49968   0.75347   0.83366   0.00000  Uiso   1.00
C952   C     0.50032   0.91320   0.83301   0.00000  Uiso   1.00
C953   C     0.40050   0.83326   0.82152   0.00000  Uiso   1.00
C954   C     0.59950   0.83341   0.84514   0.00000  Uiso   1.00
C955   C     0.34555   0.83286   0.81515   0.00000  Uiso   1.00
C956   C     0.65445   0.83380   0.85152   0.00000  Uiso   1.00
C957   C     0.45516   0.68845   0.81249   0.00000  Uiso   1.00
C958   C     0.54484   0.97822   0.85418   0.00000  Uiso   1.00
C959   C     0.45584   0.97840   0.81138   0.00000  Uiso   1.00
C960   C     0.54416   0.68826   0.85529   0.00000  Uiso   1.00
C961   C     0.50058   0.95737   0.83233   0.00000  Uiso   1.00
C962   C     0.49942   0.70929   0.83434   0.00000  Uiso   1.00
C963   C     0.53074   0.86092   0.69309   0.00000  Uiso   1.00
C964   C     0.46926   0.80574   0.97358   0.00000  Uiso   1.00
C965   C     0.53059   0.86073   0.97878   0.00000  Uiso   1.00
C966   C     0.46941   0.80594   0.68789   0.00000  Uiso   1.00
H967   H     0.65866   0.83165   0.78052   0.00000  Uiso   1.00
H968   H     0.34134   0.83502   0.88614   0.00000  Uiso   1.00
H969   H     0.55503   0.88260   0.96290   0.00000  Uiso   1.00
H970   H     0.44497   0.78407   0.70377   0.00000  Uiso   1.00
N971   N     0.49999   0.83332   0.95240   0.00000  Uiso   1.00
N972   N     0.50001   0.83334   0.71427   0.00000  Uiso   1.00
O973   O     0.50000   0.77225   0.87154   0.00000  Uiso   1.00
O974   O     0.50000   0.89442   0.79513   0.00000  Uiso   1.00
O975   O     0.50000   0.77226   0.79510   0.00000  Uiso   1.00
O976   O     0.50000   0.89441   0.87157   0.00000  Uiso   1.00
O977   O     0.42392   0.83333   0.86261   0.00000  Uiso   1.00
O978   O     0.57608   0.83334   0.80405   0.00000  Uiso   1.00
O979   O     0.42392   0.83334   0.78617   0.00000  Uiso   1.00
O980   O     0.57608   0.83333   0.88050   0.00000  Uiso   1.00
Zn981  Zn    0.50000   0.83333   0.88437   0.00000  Uiso   1.00
Zn982  Zn    0.50000   0.83334   0.78229   0.00000  Uiso   1.00
I983   I     0.38697   0.72263   0.78306   0.00000  Uiso   1.00
I984   I     0.61300   0.94405   0.88363   0.00000  Uiso   1.00
I985   I     0.38914   0.94438   0.77972   0.00000  Uiso   1.00
I986   I     0.61086   0.72229   0.88695   0.00000  Uiso   1.00
I987   I     0.58037   0.90581   0.72850   0.00000  Uiso   1.00
I988   I     0.41963   0.76086   0.93817   0.00000  Uiso   1.00
C989   C     0.83302   0.75347   0.83366   0.00000  Uiso   1.00
C990   C     0.83365   0.91320   0.83301   0.00000  Uiso   1.00
C991   C     0.73384   0.83326   0.82152   0.00000  Uiso   1.00
C992   C     0.93283   0.83341   0.84514   0.00000  Uiso   1.00
C993   C     0.67888   0.83286   0.81515   0.00000  Uiso   1.00
C994   C     0.98779   0.83380   0.85152   0.00000  Uiso   1.00
C995   C     0.78849   0.68845   0.81249   0.00000  Uiso   1.00
C996   C     0.87817   0.97822   0.85418   0.00000  Uiso   1.00
C997   C     0.78917   0.97840   0.81138   0.00000  Uiso   1.00
C998   C     0.87749   0.68826   0.85529   0.00000  Uiso   1.00
C999   C     0.83391   0.95737   0.83233   0.00000  Uiso   1.00
C1000  C     0.83275   0.70929   0.83434   0.00000  Uiso   1.00
C1001  C     0.86408   0.86092   0.69309   0.00000  Uiso   1.00
C1002  C     0.80259   0.80574   0.97358   0.00000  Uiso   1.00
C1003  C     0.86392   0.86073   0.97878   0.00000  Uiso   1.00
C1004  C     0.80275   0.80594   0.68789   0.00000  Uiso   1.00
H1005  H     0.99200   0.83165   0.78052   0.00000  Uiso   1.00
H1006  H     0.67467   0.83502   0.88614   0.00000  Uiso   1.00
H1007  H     0.88836   0.88260   0.96290   0.00000  Uiso   1.00
H1008  H     0.77831   0.78407   0.70377   0.00000  Uiso   1.00
N1009  N     0.83332   0.83332   0.95240   0.00000  Uiso   1.00
N1010  N     0.83335   0.83334   0.71427   0.00000  Uiso   1.00
O1011  O     0.83333   0.77225   0.87154   0.00000  Uiso   1.00
O1012  O     0.83334   0.89442   0.79513   0.00000  Uiso   1.00
O1013  O     0.83333   0.77226   0.79510   0.00000  Uiso   1.00
O1014  O     0.83334   0.89441   0.87157   0.00000  Uiso   1.00
O1015  O     0.75725   0.83333   0.86261   0.00000  Uiso   1.00
O1016  O     0.90942   0.83334   0.80405   0.00000  Uiso   1.00
O1017  O     0.75725   0.83334   0.78617   0.00000  Uiso   1.00
O1018  O     0.90942   0.83333   0.88050   0.00000  Uiso   1.00
Zn1019 Zn    0.83333   0.83333   0.88437   0.00000  Uiso   1.00
Zn1020 Zn    0.83333   0.83334   0.78229   0.00000  Uiso   1.00
I1021  I     0.72031   0.72263   0.78306   0.00000  Uiso   1.00
I1022  I     0.94633   0.94405   0.88363   0.00000  Uiso   1.00
I1023  I     0.72247   0.94438   0.77972   0.00000  Uiso   1.00
I1024  I     0.94419   0.72229   0.88695   0.00000  Uiso   1.00
I1025  I     0.91370   0.90581   0.72850   0.00000  Uiso   1.00
I1026  I     0.75296   0.76086   0.93817   0.00000  Uiso   1.00
loop_
_geom_bond_atom_site_label_1
_geom_bond_atom_site_label_2
_geom_bond_distance
_geom_bond_site_symmetry_2
_ccdc_geom_bond_type
C1     O25     1.284   .     A
C1     C12     1.409   .     S
C1     O23     1.285   .     A
C2     O26     1.284   .     A
C2     C11     1.409   .     S
C2     O24     1.285   .     A
C3     O27     1.284   .     A
C3     O29     1.284   .     A
C3     C5      1.404   .     S
C4     O28     1.284   .     A
C4     C6      1.404   .     S
C4     O30     1.284   .     A
C5     C82     1.327   1_455 S
C5     H93     1.088   1_455 S
C6     C43     1.327   .     S
C6     H56     1.088   .     S
C7     C12     1.402   .     A
C7     I33     2.147   .     S
C7     C237    1.386   1_545 S
C8     I34     2.146   .     S
C8     C11     1.402   .     A
C8     C124    1.386   .     S
C9     C11     1.401   .     A
C9     I35     2.141   .     S
C9     C121    1.386   .     S
C10    C12     1.401   .     A
C10    I36     2.141   .     S
C10    C236    1.386   1_545 S
C13    I37     2.110   .     S
C13    N22     1.381   .     A
C13    C699    1.416   1_554 S
C14    I38     2.110   .     S
C14    N21     1.381   .     A
C14    C358    1.415   .     S
C15    N21     1.358   .     A
C15    H19     1.082   .     S
C15    C355    1.416   .     S
C16    H20     1.082   .     S
C16    N22     1.358   .     A
C16    C698    1.415   1_554 S
H17    C43     1.088   .     S
H18    C82     1.088   1_455 S
N21    Zn31    2.022   .     S
N22    Zn32    2.022   .     S
O23    Zn31    1.993   .     S
O24    Zn32    1.993   .     S
O25    Zn32    1.978   .     S
O26    Zn31    1.978   .     S
O27    Zn31    1.979   .     S
O28    Zn32    1.979   .     S
O29    Zn32    1.982   .     S
O30    Zn31    1.982   .     S
C39    O63     1.284   .     A
C39    C50     1.409   .     S
C39    O61     1.285   .     A
C40    O64     1.284   .     A
C40    C49     1.409   .     S
C40    O62     1.285   .     A
C41    O65     1.284   .     A
C41    O67     1.284   .     A
C41    C43     1.404   .     S
C42    O66     1.284   .     A
C42    C44     1.404   .     S
C42    O68     1.284   .     A
C44    C81     1.327   .     S
C44    H94     1.088   .     S
C45    C50     1.402   .     A
C45    I71     2.147   .     S
C45    C275    1.386   1_545 S
C46    I72     2.146   .     S
C46    C49     1.402   .     A
C46    C162    1.386   .     S
C47    C49     1.401   .     A
C47    I73     2.141   .     S
C47    C159    1.386   .     S
C48    C50     1.401   .     A
C48    I74     2.141   .     S
C48    C274    1.386   1_545 S
C51    I75     2.110   .     S
C51    N60     1.381   .     A
C51    C737    1.416   1_554 S
C52    I76     2.110   .     S
C52    N59     1.381   .     A
C52    C396    1.415   .     S
C53    N59     1.358   .     A
C53    H57     1.082   .     S
C53    C393    1.416   .     S
C54    H58     1.082   .     S
C54    N60     1.358   .     A
C54    C736    1.415   1_554 S
H55    C81     1.088   .     S
N59    Zn69    2.022   .     S
N60    Zn70    2.022   .     S
O61    Zn69    1.993   .     S
O62    Zn70    1.993   .     S
O63    Zn70    1.978   .     S
O64    Zn69    1.978   .     S
O65    Zn69    1.979   .     S
O66    Zn70    1.979   .     S
O67    Zn70    1.982   .     S
O68    Zn69    1.982   .     S
C77    O101    1.284   .     A
C77    C88     1.409   .     S
C77    O99     1.285   .     A
C78    O102    1.284   .     A
C78    C87     1.409   .     S
C78    O100    1.285   .     A
C79    O103    1.284   .     A
C79    O105    1.284   .     A
C79    C81     1.404   .     S
C80    O104    1.284   .     A
C80    C82     1.404   .     S
C80    O106    1.284   .     A
C82    C5      1.327   1_655 S
C82    H18     1.088   1_655 S
C83    C88     1.402   .     A
C83    I109    2.147   .     S
C83    C313    1.386   1_545 S
C84    I110    2.146   .     S
C84    C87     1.402   .     A
C84    C200    1.386   .     S
C85    C87     1.401   .     A
C85    I111    2.141   .     S
C85    C197    1.386   .     S
C86    C88     1.401   .     A
C86    I112    2.141   .     S
C86    C312    1.386   1_545 S
C89    I113    2.110   .     S
C89    N98     1.381   .     A
C89    C775    1.416   1_554 S
C90    I114    2.110   .     S
C90    N97     1.381   .     A
C90    C434    1.415   .     S
C91    N97     1.358   .     A
C91    H95     1.082   .     S
C91    C431    1.416   .     S
C92    H96     1.082   .     S
C92    N98     1.358   .     A
C92    C774    1.415   1_554 S
H93    C5      1.088   1_655 S
N97    Zn107   2.022   .     S
N98    Zn108   2.022   .     S
O99    Zn107   1.993   .     S
O100   Zn108   1.993   .     S
O101   Zn108   1.978   .     S
O102   Zn107   1.978   .     S
O103   Zn107   1.979   .     S
O104   Zn108   1.979   .     S
O105   Zn108   1.982   .     S
O106   Zn107   1.982   .     S
C115   O139    1.284   .     A
C115   C126    1.409   .     S
C115   O137    1.285   .     A
C116   O140    1.284   .     A
C116   C125    1.409   .     S
C116   O138    1.285   .     A
C117   O141    1.284   .     A
C117   O143    1.284   .     A
C117   C119    1.404   .     S
C118   O142    1.284   .     A
C118   C120    1.404   .     S
C118   O144    1.284   .     A
C119   C196    1.327   1_455 S
C119   H207    1.088   1_455 S
C120   C157    1.327   .     S
C120   H170    1.088   .     S
C121   C126    1.402   .     A
C121   I147    2.147   .     S
C122   I148    2.146   .     S
C122   C125    1.402   .     A
C122   C238    1.386   .     S
C123   C125    1.401   .     A
C123   I149    2.141   .     S
C123   C235    1.386   .     S
C124   C126    1.401   .     A
C124   I150    2.141   .     S
C127   I151    2.110   .     S
C127   N136    1.381   .     A
C127   C813    1.416   1_554 S
C128   I152    2.110   .     S
C128   N135    1.381   .     A
C128   C472    1.415   .     S
C129   N135    1.358   .     A
C129   H133    1.082   .     S
C129   C469    1.416   .     S
C130   H134    1.082   .     S
C130   N136    1.358   .     A
C130   C812    1.415   1_554 S
H131   C157    1.088   .     S
H132   C196    1.088   1_455 S
N135   Zn145   2.022   .     S
N136   Zn146   2.022   .     S
O137   Zn145   1.993   .     S
O138   Zn146   1.993   .     S
O139   Zn146   1.978   .     S
O140   Zn145   1.978   .     S
O141   Zn145   1.979   .     S
O142   Zn146   1.979   .     S
O143   Zn146   1.982   .     S
O144   Zn145   1.982   .     S
C153   O177    1.284   .     A
C153   C164    1.409   .     S
C153   O175    1.285   .     A
C154   O178    1.284   .     A
C154   C163    1.409   .     S
C154   O176    1.285   .     A
C155   O179    1.284   .     A
C155   O181    1.284   .     A
C155   C157    1.404   .     S
C156   O180    1.284   .     A
C156   C158    1.404   .     S
C156   O182    1.284   .     A
C158   C195    1.327   .     S
C158   H208    1.088   .     S
C159   C164    1.402   .     A
C159   I185    2.147   .     S
C160   I186    2.146   .     S
C160   C163    1.402   .     A
C160   C276    1.386   .     S
C161   C163    1.401   .     A
C161   I187    2.141   .     S
C161   C273    1.386   .     S
C162   C164    1.401   .     A
C162   I188    2.141   .     S
C165   I189    2.110   .     S
C165   N174    1.381   .     A
C165   C851    1.416   1_554 S
C166   I190    2.110   .     S
C166   N173    1.381   .     A
C166   C510    1.415   .     S
C167   N173    1.358   .     A
C167   H171    1.082   .     S
C167   C507    1.416   .     S
C168   H172    1.082   .     S
C168   N174    1.358   .     A
C168   C850    1.415   1_554 S
H169   C195    1.088   .     S
N173   Zn183   2.022   .     S
N174   Zn184   2.022   .     S
O175   Zn183   1.993   .     S
O176   Zn184   1.993   .     S
O177   Zn184   1.978   .     S
O178   Zn183   1.978   .     S
O179   Zn183   1.979   .     S
O180   Zn184   1.979   .     S
O181   Zn184   1.982   .     S
O182   Zn183   1.982   .     S
C191   O215    1.284   .     A
C191   C202    1.409   .     S
C191   O213    1.285   .     A
C192   O216    1.284   .     A
C192   C201    1.409   .     S
C192   O214    1.285   .     A
C193   O217    1.284   .     A
C193   O219    1.284   .     A
C193   C195    1.404   .     S
C194   O218    1.284   .     A
C194   C196    1.404   .     S
C194   O220    1.284   .     A
C196   C119    1.327   1_655 S
C196   H132    1.088   1_655 S
C197   C202    1.402   .     A
C197   I223    2.147   .     S
C198   I224    2.146   .     S
C198   C201    1.402   .     A
C198   C314    1.386   .     S
C199   C201    1.401   .     A
C199   I225    2.141   .     S
C199   C311    1.386   .     S
C200   C202    1.401   .     A
C200   I226    2.141   .     S
C203   I227    2.110   .     S
C203   N212    1.381   .     A
C203   C889    1.416   1_554 S
C204   I228    2.110   .     S
C204   N211    1.381   .     A
C204   C548    1.415   .     S
C205   N211    1.358   .     A
C205   H209    1.082   .     S
C205   C545    1.416   .     S
C206   H210    1.082   .     S
C206   N212    1.358   .     A
C206   C888    1.415   1_554 S
H207   C119    1.088   1_655 S
N211   Zn221   2.022   .     S
N212   Zn222   2.022   .     S
O213   Zn221   1.993   .     S
O214   Zn222   1.993   .     S
O215   Zn222   1.978   .     S
O216   Zn221   1.978   .     S
O217   Zn221   1.979   .     S
O218   Zn222   1.979   .     S
O219   Zn222   1.982   .     S
O220   Zn221   1.982   .     S
C229   O253    1.284   .     A
C229   C240    1.409   .     S
C229   O251    1.285   .     A
C230   O254    1.284   .     A
C230   C239    1.409   .     S
C230   O252    1.285   .     A
C231   O255    1.284   .     A
C231   O257    1.284   .     A
C231   C233    1.404   .     S
C232   O256    1.284   .     A
C232   C234    1.404   .     S
C232   O258    1.284   .     A
C233   C310    1.327   1_455 S
C233   H321    1.088   1_455 S
C234   C271    1.327   .     S
C234   H284    1.088   .     S
C235   C240    1.402   .     A
C235   I261    2.147   .     S
C236   I262    2.146   .     S
C236   C239    1.402   .     A
C236   C10     1.386   1_565 S
C237   C239    1.401   .     A
C237   I263    2.141   .     S
C237   C7      1.386   1_565 S
C238   C240    1.401   .     A
C238   I264    2.141   .     S
C241   I265    2.110   .     S
C241   N250    1.381   .     A
C241   C927    1.416   1_554 S
C242   I266    2.110   .     S
C242   N249    1.381   .     A
C242   C586    1.415   .     S
C243   N249    1.358   .     A
C243   H247    1.082   .     S
C243   C583    1.416   .     S
C244   H248    1.082   .     S
C244   N250    1.358   .     A
C244   C926    1.415   1_554 S
H245   C271    1.088   .     S
H246   C310    1.088   1_455 S
N249   Zn259   2.022   .     S
N250   Zn260   2.022   .     S
O251   Zn259   1.993   .     S
O252   Zn260   1.993   .     S
O253   Zn260   1.978   .     S
O254   Zn259   1.978   .     S
O255   Zn259   1.979   .     S
O256   Zn260   1.979   .     S
O257   Zn260   1.982   .     S
O258   Zn259   1.982   .     S
C267   O291    1.284   .     A
C267   C278    1.409   .     S
C267   O289    1.285   .     A
C268   O292    1.284   .     A
C268   C277    1.409   .     S
C268   O290    1.285   .     A
C269   O293    1.284   .     A
C269   O295    1.284   .     A
C269   C271    1.404   .     S
C270   O294    1.284   .     A
C270   C272    1.404   .     S
C270   O296    1.284   .     A
C272   C309    1.327   .     S
C272   H322    1.088   .     S
C273   C278    1.402   .     A
C273   I299    2.147   .     S
C274   I300    2.146   .     S
C274   C277    1.402   .     A
C274   C48     1.386   1_565 S
C275   C277    1.401   .     A
C275   I301    2.141   .     S
C275   C45     1.386   1_565 S
C276   C278    1.401   .     A
C276   I302    2.141   .     S
C279   I303    2.110   .     S
C279   N288    1.381   .     A
C279   C965    1.416   1_554 S
C280   I304    2.110   .     S
C280   N287    1.381   .     A
C280   C624    1.415   .     S
C281   N287    1.358   .     A
C281   H285    1.082   .     S
C281   C621    1.416   .     S
C282   H286    1.082   .     S
C282   N288    1.358   .     A
C282   C964    1.415   1_554 S
H283   C309    1.088   .     S
N287   Zn297   2.022   .     S
N288   Zn298   2.022   .     S
O289   Zn297   1.993   .     S
O290   Zn298   1.993   .     S
O291   Zn298   1.978   .     S
O292   Zn297   1.978   .     S
O293   Zn297   1.979   .     S
O294   Zn298   1.979   .     S
O295   Zn298   1.982   .     S
O296   Zn297   1.982   .     S
C305   O329    1.284   .     A
C305   C316    1.409   .     S
C305   O327    1.285   .     A
C306   O330    1.284   .     A
C306   C315    1.409   .     S
C306   O328    1.285   .     A
C307   O331    1.284   .     A
C307   O333    1.284   .     A
C307   C309    1.404   .     S
C308   O332    1.284   .     A
C308   C310    1.404   .     S
C308   O334    1.284   .     A
C310   C233    1.327   1_655 S
C310   H246    1.088   1_655 S
C311   C316    1.402   .     A
C311   I337    2.147   .     S
C312   I338    2.146   .     S
C312   C315    1.402   .     A
C312   C86     1.386   1_565 S
C313   C315    1.401   .     A
C313   I339    2.141   .     S
C313   C83     1.386   1_565 S
C314   C316    1.401   .     A
C314   I340    2.141   .     S
C317   I341    2.110   .     S
C317   N326    1.381   .     A
C317   C1003   1.416   1_554 S
C318   I342    2.110   .     S
C318   N325    1.381   .     A
C318   C662    1.415   .     S
C319   N325    1.358   .     A
C319   H323    1.082   .     S
C319   C659    1.416   .     S
C320   H324    1.082   .     S
C320   N326    1.358   .     A
C320   C1002   1.415   1_554 S
H321   C233    1.088   1_655 S
N325   Zn335   2.022   .     S
N326   Zn336   2.022   .     S
O327   Zn335   1.993   .     S
O328   Zn336   1.993   .     S
O329   Zn336   1.978   .     S
O330   Zn335   1.978   .     S
O331   Zn335   1.979   .     S
O332   Zn336   1.979   .     S
O333   Zn336   1.982   .     S
O334   Zn335   1.982   .     S
C343   O367    1.284   .     A
C343   C354    1.409   .     S
C343   O365    1.285   .     A
C344   O368    1.284   .     A
C344   C353    1.409   .     S
C344   O366    1.285   .     A
C345   O369    1.284   .     A
C345   O371    1.284   .     A
C345   C347    1.404   .     S
C346   O370    1.284   .     A
C346   C348    1.404   .     S
C346   O372    1.284   .     A
C347   C424    1.327   1_455 S
C347   H435    1.088   1_455 S
C348   C385    1.327   .     S
C348   H398    1.088   .     S
C349   C354    1.402   .     A
C349   I375    2.147   .     S
C349   C579    1.386   1_545 S
C350   I376    2.146   .     S
C350   C353    1.402   .     A
C350   C466    1.386   .     S
C351   C353    1.401   .     A
C351   I377    2.141   .     S
C351   C463    1.386   .     S
C352   C354    1.401   .     A
C352   I378    2.141   .     S
C352   C578    1.386   1_545 S
C355   I379    2.110   .     S
C355   N364    1.381   .     A
C356   I380    2.110   .     S
C356   N363    1.381   .     A
C356   C700    1.415   .     S
C357   N363    1.358   .     A
C357   H361    1.082   .     S
C357   C697    1.416   .     S
C358   H362    1.082   .     S
C358   N364    1.358   .     A
H359   C385    1.088   .     S
H360   C424    1.088   1_455 S
N363   Zn373   2.022   .     S
N364   Zn374   2.022   .     S
O365   Zn373   1.993   .     S
O366   Zn374   1.993   .     S
O367   Zn374   1.978   .     S
O368   Zn373   1.978   .     S
O369   Zn373   1.979   .     S
O370   Zn374   1.979   .     S
O371   Zn374   1.982   .     S
O372   Zn373   1.982   .     S
C381   O405    1.284   .     A
C381   C392    1.409   .     S
C381   O403    1.285   .     A
C382   O406    1.284   .     A
C382   C391    1.409   .     S
C382   O404    1.285   .     A
C383   O407    1.284   .     A
C383   O409    1.284   .     A
C383   C385    1.404   .     S
C384   O408    1.284   .     A
C384   C386    1.404   .     S
C384   O410    1.284   .     A
C386   C423    1.327   .     S
C386   H436    1.088   .     S
C387   C392    1.402   .     A
C387   I413    2.147   .     S
C387   C617    1.386   1_545 S
C388   I414    2.146   .     S
C388   C391    1.402   .     A
C388   C504    1.386   .     S
C389   C391    1.401   .     A
C389   I415    2.141   .     S
C389   C501    1.386   .     S
C390   C392    1.401   .     A
C390   I416    2.141   .     S
C390   C616    1.386   1_545 S
C393   I417    2.110   .     S
C393   N402    1.381   .     A
C394   I418    2.110   .     S
C394   N401    1.381   .     A
C394   C738    1.415   .     S
C395   N401    1.358   .     A
C395   H399    1.082   .     S
C395   C735    1.416   .     S
C396   H400    1.082   .     S
C396   N402    1.358   .     A
H397   C423    1.088   .     S
N401   Zn411   2.022   .     S
N402   Zn412   2.022   .     S
O403   Zn411   1.993   .     S
O404   Zn412   1.993   .     S
O405   Zn412   1.978   .     S
O406   Zn411   1.978   .     S
O407   Zn411   1.979   .     S
O408   Zn412   1.979   .     S
O409   Zn412   1.982   .     S
O410   Zn411   1.982   .     S
C419   O443    1.284   .     A
C419   C430    1.409   .     S
C419   O441    1.285   .     A
C420   O444    1.284   .     A
C420   C429    1.409   .     S
C420   O442    1.285   .     A
C421   O445    1.284   .     A
C421   O447    1.284   .     A
C421   C423    1.404   .     S
C422   O446    1.284   .     A
C422   C424    1.404   .     S
C422   O448    1.284   .     A
C424   C347    1.327   1_655 S
C424   H360    1.088   1_655 S
C425   C430    1.402   .     A
C425   I451    2.147   .     S
C425   C655    1.386   1_545 S
C426   I452    2.146   .     S
C426   C429    1.402   .     A
C426   C542    1.386   .     S
C427   C429    1.401   .     A
C427   I453    2.141   .     S
C427   C539    1.386   .     S
C428   C430    1.401   .     A
C428   I454    2.141   .     S
C428   C654    1.386   1_545 S
C431   I455    2.110   .     S
C431   N440    1.381   .     A
C432   I456    2.110   .     S
C432   N439    1.381   .     A
C432   C776    1.415   .     S
C433   N439    1.358   .     A
C433   H437    1.082   .     S
C433   C773    1.416   .     S
C434   H438    1.082   .     S
C434   N440    1.358   .     A
H435   C347    1.088   1_655 S
N439   Zn449   2.022   .     S
N440   Zn450   2.022   .     S
O441   Zn449   1.993   .     S
O442   Zn450   1.993   .     S
O443   Zn450   1.978   .     S
O444   Zn449   1.978   .     S
O445   Zn449   1.979   .     S
O446   Zn450   1.979   .     S
O447   Zn450   1.982   .     S
O448   Zn449   1.982   .     S
C457   O481    1.284   .     A
C457   C468    1.409   .     S
C457   O479    1.285   .     A
C458   O482    1.284   .     A
C458   C467    1.409   .     S
C458   O480    1.285   .     A
C459   O483    1.284   .     A
C459   O485    1.284   .     A
C459   C461    1.404   .     S
C460   O484    1.284   .     A
C460   C462    1.404   .     S
C460   O486    1.284   .     A
C461   C538    1.327   1_455 S
C461   H549    1.088   1_455 S
C462   C499    1.327   .     S
C462   H512    1.088   .     S
C463   C468    1.402   .     A
C463   I489    2.147   .     S
C464   I490    2.146   .     S
C464   C467    1.402   .     A
C464   C580    1.386   .     S
C465   C467    1.401   .     A
C465   I491    2.141   .     S
C465   C577    1.386   .     S
C466   C468    1.401   .     A
C466   I492    2.141   .     S
C469   I493    2.110   .     S
C469   N478    1.381   .     A
C470   I494    2.110   .     S
C470   N477    1.381   .     A
C470   C814    1.415   .     S
C471   N477    1.358   .     A
C471   H475    1.082   .     S
C471   C811    1.416   .     S
C472   H476    1.082   .     S
C472   N478    1.358   .     A
H473   C499    1.088   .     S
H474   C538    1.088   1_455 S
N477   Zn487   2.022   .     S
N478   Zn488   2.022   .     S
O479   Zn487   1.993   .     S
O480   Zn488   1.993   .     S
O481   Zn488   1.978   .     S
O482   Zn487   1.978   .     S
O483   Zn487   1.979   .     S
O484   Zn488   1.979   .     S
O485   Zn488   1.982   .     S
O486   Zn487   1.982   .     S
C495   O519    1.284   .     A
C495   C506    1.409   .     S
C495   O517    1.285   .     A
C496   O520    1.284   .     A
C496   C505    1.409   .     S
C496   O518    1.285   .     A
C497   O521    1.284   .     A
C497   O523    1.284   .     A
C497   C499    1.404   .     S
C498   O522    1.284   .     A
C498   C500    1.404   .     S
C498   O524    1.284   .     A
C500   C537    1.327   .     S
C500   H550    1.088   .     S
C501   C506    1.402   .     A
C501   I527    2.147   .     S
C502   I528    2.146   .     S
C502   C505    1.402   .     A
C502   C618    1.386   .     S
C503   C505    1.401   .     A
C503   I529    2.141   .     S
C503   C615    1.386   .     S
C504   C506    1.401   .     A
C504   I530    2.141   .     S
C507   I531    2.110   .     S
C507   N516    1.381   .     A
C508   I532    2.110   .     S
C508   N515    1.381   .     A
C508   C852    1.415   .     S
C509   N515    1.358   .     A
C509   H513    1.082   .     S
C509   C849    1.416   .     S
C510   H514    1.082   .     S
C510   N516    1.358   .     A
H511   C537    1.088   .     S
N515   Zn525   2.022   .     S
N516   Zn526   2.022   .     S
O517   Zn525   1.993   .     S
O518   Zn526   1.993   .     S
O519   Zn526   1.978   .     S
O520   Zn525   1.978   .     S
O521   Zn525   1.979   .     S
O522   Zn526   1.979   .     S
O523   Zn526   1.982   .     S
O524   Zn525   1.982   .     S
C533   O557    1.284   .     A
C533   C544    1.409   .     S
C533   O555    1.285   .     A
C534   O558    1.284   .     A
C534   C543    1.409   .     S
C534   O556    1.285   .     A
C535   O559    1.284   .     A
C535   O561    1.284   .     A
C535   C537    1.404   .     S
C536   O560    1.284   .     A
C536   C538    1.404   .     S
C536   O562    1.284   .     A
C538   C461    1.327   1_655 S
C538   H474    1.088   1_655 S
C539   C544    1.402   .     A
C539   I565    2.147   .     S
C540   I566    2.146   .     S
C540   C543    1.402   .     A
C540   C656    1.386   .     S
C541   C543    1.401   .     A
C541   I567    2.141   .     S
C541   C653    1.386   .     S
C542   C544    1.401   .     A
C542   I568    2.141   .     S
C545   I569    2.110   .     S
C545   N554    1.381   .     A
C546   I570    2.110   .     S
C546   N553    1.381   .     A
C546   C890    1.415   .     S
C547   N553    1.358   .     A
C547   H551    1.082   .     S
C547   C887    1.416   .     S
C548   H552    1.082   .     S
C548   N554    1.358   .     A
H549   C461    1.088   1_655 S
N553   Zn563   2.022   .     S
N554   Zn564   2.022   .     S
O555   Zn563   1.993   .     S
O556   Zn564   1.993   .     S
O557   Zn564   1.978   .     S
O558   Zn563   1.978   .     S
O559   Zn563   1.979   .     S
O560   Zn564   1.979   .     S
O561   Zn564   1.982   .     S
O562   Zn563   1.982   .     S
C571   O595    1.284   .     A
C571   C582    1.409   .     S
C571   O593    1.285   .     A
C572   O596    1.284   .     A
C572   C581    1.409   .     S
C572   O594    1.285   .     A
C573   O597    1.284   .     A
C573   O599    1.284   .     A
C573   C575    1.404   .     S
C574   O598    1.284   .     A
C574   C576    1.404   .     S
C574   O600    1.284   .     A
C575   C652    1.327   1_455 S
C575   H663    1.088   1_455 S
C576   C613    1.327   .     S
C576   H626    1.088   .     S
C577   C582    1.402   .     A
C577   I603    2.147   .     S
C578   I604    2.146   .     S
C578   C581    1.402   .     A
C578   C352    1.386   1_565 S
C579   C581    1.401   .     A
C579   I605    2.141   .     S
C579   C349    1.386   1_565 S
C580   C582    1.401   .     A
C580   I606    2.141   .     S
C583   I607    2.110   .     S
C583   N592    1.381   .     A
C584   I608    2.110   .     S
C584   N591    1.381   .     A
C584   C928    1.415   .     S
C585   N591    1.358   .     A
C585   H589    1.082   .     S
C585   C925    1.416   .     S
C586   H590    1.082   .     S
C586   N592    1.358   .     A
H587   C613    1.088   .     S
H588   C652    1.088   1_455 S
N591   Zn601   2.022   .     S
N592   Zn602   2.022   .     S
O593   Zn601   1.993   .     S
O594   Zn602   1.993   .     S
O595   Zn602   1.978   .     S
O596   Zn601   1.978   .     S
O597   Zn601   1.979   .     S
O598   Zn602   1.979   .     S
O599   Zn602   1.982   .     S
O600   Zn601   1.982   .     S
C609   O633    1.284   .     A
C609   C620    1.409   .     S
C609   O631    1.285   .     A
C610   O634    1.284   .     A
C610   C619    1.409   .     S
C610   O632    1.285   .     A
C611   O635    1.284   .     A
C611   O637    1.284   .     A
C611   C613    1.404   .     S
C612   O636    1.284   .     A
C612   C614    1.404   .     S
C612   O638    1.284   .     A
C614   C651    1.327   .     S
C614   H664    1.088   .     S
C615   C620    1.402   .     A
C615   I641    2.147   .     S
C616   I642    2.146   .     S
C616   C619    1.402   .     A
C616   C390    1.386   1_565 S
C617   C619    1.401   .     A
C617   I643    2.141   .     S
C617   C387    1.386   1_565 S
C618   C620    1.401   .     A
C618   I644    2.141   .     S
C621   I645    2.110   .     S
C621   N630    1.381   .     A
C622   I646    2.110   .     S
C622   N629    1.381   .     A
C622   C966    1.415   .     S
C623   N629    1.358   .     A
C623   H627    1.082   .     S
C623   C963    1.416   .     S
C624   H628    1.082   .     S
C624   N630    1.358   .     A
H625   C651    1.088   .     S
N629   Zn639   2.022   .     S
N630   Zn640   2.022   .     S
O631   Zn639   1.993   .     S
O632   Zn640   1.993   .     S
O633   Zn640   1.978   .     S
O634   Zn639   1.978   .     S
O635   Zn639   1.979   .     S
O636   Zn640   1.979   .     S
O637   Zn640   1.982   .     S
O638   Zn639   1.982   .     S
C647   O671    1.284   .     A
C647   C658    1.409   .     S
C647   O669    1.285   .     A
C648   O672    1.284   .     A
C648   C657    1.409   .     S
C648   O670    1.285   .     A
C649   O673    1.284   .     A
C649   O675    1.284   .     A
C649   C651    1.404   .     S
C650   O674    1.284   .     A
C650   C652    1.404   .     S
C650   O676    1.284   .     A
C652   C575    1.327   1_655 S
C652   H588    1.088   1_655 S
C653   C658    1.402   .     A
C653   I679    2.147   .     S
C654   I680    2.146   .     S
C654   C657    1.402   .     A
C654   C428    1.386   1_565 S
C655   C657    1.401   .     A
C655   I681    2.141   .     S
C655   C425    1.386   1_565 S
C656   C658    1.401   .     A
C656   I682    2.141   .     S
C659   I683    2.110   .     S
C659   N668    1.381   .     A
C660   I684    2.110   .     S
C660   N667    1.381   .     A
C660   C1004   1.415   .     S
C661   N667    1.358   .     A
C661   H665    1.082   .     S
C661   C1001   1.416   .     S
C662   H666    1.082   .     S
C662   N668    1.358   .     A
H663   C575    1.088   1_655 S
N667   Zn677   2.022   .     S
N668   Zn678   2.022   .     S
O669   Zn677   1.993   .     S
O670   Zn678   1.993   .     S
O671   Zn678   1.978   .     S
O672   Zn677   1.978   .     S
O673   Zn677   1.979   .     S
O674   Zn678   1.979   .     S
O675   Zn678   1.982   .     S
O676   Zn677   1.982   .     S
C685   O709    1.284   .     A
C685   C696    1.409   .     S
C685   O707    1.285   .     A
C686   O710    1.284   .     A
C686   C695    1.409   .     S
C686   O708    1.285   .     A
C687   O711    1.284   .     A
C687   O713    1.284   .     A
C687   C689    1.404   .     S
C688   O712    1.284   .     A
C688   C690    1.404   .     S
C688   O714    1.284   .     A
C689   C766    1.327   1_455 S
C689   H777    1.088   1_455 S
C690   C727    1.327   .     S
C690   H740    1.088   .     S
C691   C696    1.402   .     A
C691   I717    2.147   .     S
C691   C921    1.386   1_545 S
C692   I718    2.146   .     S
C692   C695    1.402   .     A
C692   C808    1.386   .     S
C693   C695    1.401   .     A
C693   I719    2.141   .     S
C693   C805    1.386   .     S
C694   C696    1.401   .     A
C694   I720    2.141   .     S
C694   C920    1.386   1_545 S
C697   I721    2.110   .     S
C697   N706    1.381   .     A
C698   I722    2.110   .     S
C698   N705    1.381   .     A
C698   C16     1.415   1_556 S
C699   N705    1.358   .     A
C699   H703    1.082   .     S
C699   C13     1.416   1_556 S
C700   H704    1.082   .     S
C700   N706    1.358   .     A
H701   C727    1.088   .     S
H702   C766    1.088   1_455 S
N705   Zn715   2.022   .     S
N706   Zn716   2.022   .     S
O707   Zn715   1.993   .     S
O708   Zn716   1.993   .     S
O709   Zn716   1.978   .     S
O710   Zn715   1.978   .     S
O711   Zn715   1.979   .     S
O712   Zn716   1.979   .     S
O713   Zn716   1.982   .     S
O714   Zn715   1.982   .     S
C723   O747    1.284   .     A
C723   C734    1.409   .     S
C723   O745    1.285   .     A
C724   O748    1.284   .     A
C724   C733    1.409   .     S
C724   O746    1.285   .     A
C725   O749    1.284   .     A
C725   O751    1.284   .     A
C725   C727    1.404   .     S
C726   O750    1.284   .     A
C726   C728    1.404   .     S
C726   O752    1.284   .     A
C728   C765    1.327   .     S
C728   H778    1.088   .     S
C729   C734    1.402   .     A
C729   I755    2.147   .     S
C729   C959    1.386   1_545 S
C730   I756    2.146   .     S
C730   C733    1.402   .     A
C730   C846    1.386   .     S
C731   C733    1.401   .     A
C731   I757    2.141   .     S
C731   C843    1.386   .     S
C732   C734    1.401   .     A
C732   I758    2.141   .     S
C732   C958    1.386   1_545 S
C735   I759    2.110   .     S
C735   N744    1.381   .     A
C736   I760    2.110   .     S
C736   N743    1.381   .     A
C736   C54     1.415   1_556 S
C737   N743    1.358   .     A
C737   H741    1.082   .     S
C737   C51     1.416   1_556 S
C738   H742    1.082   .     S
C738   N744    1.358   .     A
H739   C765    1.088   .     S
N743   Zn753   2.022   .     S
N744   Zn754   2.022   .     S
O745   Zn753   1.993   .     S
O746   Zn754   1.993   .     S
O747   Zn754   1.978   .     S
O748   Zn753   1.978   .     S
O749   Zn753   1.979   .     S
O750   Zn754   1.979   .     S
O751   Zn754   1.982   .     S
O752   Zn753   1.982   .     S
C761   O785    1.284   .     A
C761   C772    1.409   .     S
C761   O783    1.285   .     A
C762   O786    1.284   .     A
C762   C771    1.409   .     S
C762   O784    1.285   .     A
C763   O787    1.284   .     A
C763   O789    1.284   .     A
C763   C765    1.404   .     S
C764   O788    1.284   .     A
C764   C766    1.404   .     S
C764   O790    1.284   .     A
C766   C689    1.327   1_655 S
C766   H702    1.088   1_655 S
C767   C772    1.402   .     A
C767   I793    2.147   .     S
C767   C997    1.386   1_545 S
C768   I794    2.146   .     S
C768   C771    1.402   .     A
C768   C884    1.386   .     S
C769   C771    1.401   .     A
C769   I795    2.141   .     S
C769   C881    1.386   .     S
C770   C772    1.401   .     A
C770   I796    2.141   .     S
C770   C996    1.386   1_545 S
C773   I797    2.110   .     S
C773   N782    1.381   .     A
C774   I798    2.110   .     S
C774   N781    1.381   .     A
C774   C92     1.415   1_556 S
C775   N781    1.358   .     A
C775   H779    1.082   .     S
C775   C89     1.416   1_556 S
C776   H780    1.082   .     S
C776   N782    1.358   .     A
H777   C689    1.088   1_655 S
N781   Zn791   2.022   .     S
N782   Zn792   2.022   .     S
O783   Zn791   1.993   .     S
O784   Zn792   1.993   .     S
O785   Zn792   1.978   .     S
O786   Zn791   1.978   .     S
O787   Zn791   1.979   .     S
O788   Zn792   1.979   .     S
O789   Zn792   1.982   .     S
O790   Zn791   1.982   .     S
C799   O823    1.284   .     A
C799   C810    1.409   .     S
C799   O821    1.285   .     A
C800   O824    1.284   .     A
C800   C809    1.409   .     S
C800   O822    1.285   .     A
C801   O825    1.284   .     A
C801   O827    1.284   .     A
C801   C803    1.404   .     S
C802   O826    1.284   .     A
C802   C804    1.404   .     S
C802   O828    1.284   .     A
C803   C880    1.327   1_455 S
C803   H891    1.088   1_455 S
C804   C841    1.327   .     S
C804   H854    1.088   .     S
C805   C810    1.402   .     A
C805   I831    2.147   .     S
C806   I832    2.146   .     S
C806   C809    1.402   .     A
C806   C922    1.386   .     S
C807   C809    1.401   .     A
C807   I833    2.141   .     S
C807   C919    1.386   .     S
C808   C810    1.401   .     A
C808   I834    2.141   .     S
C811   I835    2.110   .     S
C811   N820    1.381   .     A
C812   I836    2.110   .     S
C812   N819    1.381   .     A
C812   C130    1.415   1_556 S
C813   N819    1.358   .     A
C813   H817    1.082   .     S
C813   C127    1.416   1_556 S
C814   H818    1.082   .     S
C814   N820    1.358   .     A
H815   C841    1.088   .     S
H816   C880    1.088   1_455 S
N819   Zn829   2.022   .     S
N820   Zn830   2.022   .     S
O821   Zn829   1.993   .     S
O822   Zn830   1.993   .     S
O823   Zn830   1.978   .     S
O824   Zn829   1.978   .     S
O825   Zn829   1.979   .     S
O826   Zn830   1.979   .     S
O827   Zn830   1.982   .     S
O828   Zn829   1.982   .     S
C837   O861    1.284   .     A
C837   C848    1.409   .     S
C837   O859    1.285   .     A
C838   O862    1.284   .     A
C838   C847    1.409   .     S
C838   O860    1.285   .     A
C839   O863    1.284   .     A
C839   O865    1.284   .     A
C839   C841    1.404   .     S
C840   O864    1.284   .     A
C840   C842    1.404   .     S
C840   O866    1.284   .     A
C842   C879    1.327   .     S
C842   H892    1.088   .     S
C843   C848    1.402   .     A
C843   I869    2.147   .     S
C844   I870    2.146   .     S
C844   C847    1.402   .     A
C844   C960    1.386   .     S
C845   C847    1.401   .     A
C845   I871    2.141   .     S
C845   C957    1.386   .     S
C846   C848    1.401   .     A
C846   I872    2.141   .     S
C849   I873    2.110   .     S
C849   N858    1.381   .     A
C850   I874    2.110   .     S
C850   N857    1.381   .     A
C850   C168    1.415   1_556 S
C851   N857    1.358   .     A
C851   H855    1.082   .     S
C851   C165    1.416   1_556 S
C852   H856    1.082   .     S
C852   N858    1.358   .     A
H853   C879    1.088   .     S
N857   Zn867   2.022   .     S
N858   Zn868   2.022   .     S
O859   Zn867   1.993   .     S
O860   Zn868   1.993   .     S
O861   Zn868   1.978   .     S
O862   Zn867   1.978   .     S
O863   Zn867   1.979   .     S
O864   Zn868   1.979   .     S
O865   Zn868   1.982   .     S
O866   Zn867   1.982   .     S
C875   O899    1.284   .     A
C875   C886    1.409   .     S
C875   O897    1.285   .     A
C876   O900    1.284   .     A
C876   C885    1.409   .     S
C876   O898    1.285   .     A
C877   O901    1.284   .     A
C877   O903    1.284   .     A
C877   C879    1.404   .     S
C878   O902    1.284   .     A
C878   C880    1.404   .     S
C878   O904    1.284   .     A
C880   C803    1.327   1_655 S
C880   H816    1.088   1_655 S
C881   C886    1.402   .     A
C881   I907    2.147   .     S
C882   I908    2.146   .     S
C882   C885    1.402   .     A
C882   C998    1.386   .     S
C883   C885    1.401   .     A
C883   I909    2.141   .     S
C883   C995    1.386   .     S
C884   C886    1.401   .     A
C884   I910    2.141   .     S
C887   I911    2.110   .     S
C887   N896    1.381   .     A
C888   I912    2.110   .     S
C888   N895    1.381   .     A
C888   C206    1.415   1_556 S
C889   N895    1.358   .     A
C889   H893    1.082   .     S
C889   C203    1.416   1_556 S
C890   H894    1.082   .     S
C890   N896    1.358   .     A
H891   C803    1.088   1_655 S
N895   Zn905   2.022   .     S
N896   Zn906   2.022   .     S
O897   Zn905   1.993   .     S
O898   Zn906   1.993   .     S
O899   Zn906   1.978   .     S
O900   Zn905   1.978   .     S
O901   Zn905   1.979   .     S
O902   Zn906   1.979   .     S
O903   Zn906   1.982   .     S
O904   Zn905   1.982   .     S
C913   O937    1.284   .     A
C913   C924    1.409   .     S
C913   O935    1.285   .     A
C914   O938    1.284   .     A
C914   C923    1.409   .     S
C914   O936    1.285   .     A
C915   O939    1.284   .     A
C915   O941    1.284   .     A
C915   C917    1.404   .     S
C916   O940    1.284   .     A
C916   C918    1.404   .     S
C916   O942    1.284   .     A
C917   C994    1.327   1_455 S
C917   H1005   1.088   1_455 S
C918   C955    1.327   .     S
C918   H968    1.088   .     S
C919   C924    1.402   .     A
C919   I945    2.147   .     S
C920   I946    2.146   .     S
C920   C923    1.402   .     A
C920   C694    1.386   1_565 S
C921   C923    1.401   .     A
C921   I947    2.141   .     S
C921   C691    1.386   1_565 S
C922   C924    1.401   .     A
C922   I948    2.141   .     S
C925   I949    2.110   .     S
C925   N934    1.381   .     A
C926   I950    2.110   .     S
C926   N933    1.381   .     A
C926   C244    1.415   1_556 S
C927   N933    1.358   .     A
C927   H931    1.082   .     S
C927   C241    1.416   1_556 S
C928   H932    1.082   .     S
C928   N934    1.358   .     A
H929   C955    1.088   .     S
H930   C994    1.088   1_455 S
N933   Zn943   2.022   .     S
N934   Zn944   2.022   .     S
O935   Zn943   1.993   .     S
O936   Zn944   1.993   .     S
O937   Zn944   1.978   .     S
O938   Zn943   1.978   .     S
O939   Zn943   1.979   .     S
O940   Zn944   1.979   .     S
O941   Zn944   1.982   .     S
O942   Zn943   1.982   .     S
C951   O975    1.284   .     A
C951   C962    1.409   .     S
C951   O973    1.285   .     A
C952   O976    1.284   .     A
C952   C961    1.409   .     S
C952   O974    1.285   .     A
C953   O977    1.284   .     A
C953   O979    1.284   .     A
C953   C955    1.404   .     S
C954   O978    1.284   .     A
C954   C956    1.404   .     S
C954   O980    1.284   .     A
C956   C993    1.327   .     S
C956   H1006   1.088   .     S
C957   C962    1.402   .     A
C957   I983    2.147   .     S
C958   I984    2.146   .     S
C958   C961    1.402   .     A
C958   C732    1.386   1_565 S
C959   C961    1.401   .     A
C959   I985    2.141   .     S
C959   C729    1.386   1_565 S
C960   C962    1.401   .     A
C960   I986    2.141   .     S
C963   I987    2.110   .     S
C963   N972    1.381   .     A
C964   I988    2.110   .     S
C964   N971    1.381   .     A
C964   C282    1.415   1_556 S
C965   N971    1.358   .     A
C965   H969    1.082   .     S
C965   C279    1.416   1_556 S
C966   H970    1.082   .     S
C966   N972    1.358   .     A
H967   C993    1.088   .     S
N971   Zn981   2.022   .     S
N972   Zn982   2.022   .     S
O973   Zn981   1.993   .     S
O974   Zn982   1.993   .     S
O975   Zn982   1.978   .     S
O976   Zn981   1.978   .     S
O977   Zn981   1.979   .     S
O978   Zn982   1.979   .     S
O979   Zn982   1.982   .     S
O980   Zn981   1.982   .     S
C989   O1013   1.284   .     A
C989   C1000   1.409   .     S
C989   O1011   1.285   .     A
C990   O1014   1.284   .     A
C990   C999    1.409   .     S
C990   O1012   1.285   .     A
C991   O1015   1.284   .     A
C991   O1017   1.284   .     A
C991   C993    1.404   .     S
C992   O1016   1.284   .     A
C992   C994    1.404   .     S
C992   O1018   1.284   .     A
C994   C917    1.327   1_655 S
C994   H930    1.088   1_655 S
C995   C1000   1.402   .     A
C995   I1021   2.147   .     S
C996   I1022   2.146   .     S
C996   C999    1.402   .     A
C996   C770    1.386   1_565 S
C997   C999    1.401   .     A
C997   I1023   2.141   .     S
C997   C767    1.386   1_565 S
C998   C1000   1.401   .     A
C998   I1024   2.141   .     S
C1001  I1025   2.110   .     S
C1001  N1010   1.381   .     A
C1002  I1026   2.110   .     S
C1002  N1009   1.381   .     A
C1002  C320    1.415   1_556 S
C1003  N1009   1.358   .     A
C1003  H1007   1.082   .     S
C1003  C317    1.416   1_556 S
C1004  H1008   1.082   .     S
C1004  N1010   1.358   .     A
H1005  C917    1.088   1_655 S
N1009  Zn1019  2.022   .     S
N1010  Zn1020  2.022   .     S
O1011  Zn1019  1.993   .     S
O1012  Zn1020  1.993   .     S
O1013  Zn1020  1.978   .     S
O1014  Zn1019  1.978   .     S
O1015  Zn1019  1.979   .     S
O1016  Zn1020  1.979   .     S
O1017  Zn1020  1.982   .     S
O1018  Zn1019  1.982   .     S
