data_str_m1_o10_o18_pcu_sym.106
_audit_creation_date              2020-01-03
_audit_creation_method            'Materials Studio'
_symmetry_space_group_name_H-M    'P1'
_symmetry_Int_Tables_number       1
_symmetry_cell_setting            triclinic
loop_
_symmetry_equiv_pos_as_xyz
  x,y,z
_cell_length_a                    32.6107
_cell_length_b                    32.6130
_cell_length_c                    35.6997
_cell_angle_alpha                 98.3778
_cell_angle_beta                  72.9098
_cell_angle_gamma                 98.0866
loop_
_atom_site_label
_atom_site_type_symbol
_atom_site_fract_x
_atom_site_fract_y
_atom_site_fract_z
_atom_site_U_iso_or_equiv
_atom_site_adp_type
_atom_site_occupancy
C1     C     0.05270   0.16049   0.25858   0.00000  Uiso   1.00
C2     C     0.19396   0.12694   0.46015   0.00000  Uiso   1.00
C3     C     0.21565   0.10815   0.48003   0.00000  Uiso   1.00
C4     C     0.28095   0.17328   0.24131   0.00000  Uiso   1.00
C5     C     0.20801   0.11694   0.02068   0.00000  Uiso   1.00
C6     C     0.17699   0.14439   0.04225   0.00000  Uiso   1.00
C7     C     0.23121   0.09841   0.03992   0.00000  Uiso   1.00
C8     C     0.22407   0.10671   0.08067   0.00000  Uiso   1.00
C9     C     0.17456   0.15695   0.08261   0.00000  Uiso   1.00
C10    C     0.32678   0.17305   0.23707   0.00000  Uiso   1.00
C11    C     0.00669   0.15840   0.26445   0.00000  Uiso   1.00
C12    C     0.09744   0.21478   0.42090   0.00000  Uiso   1.00
C13    C     0.17986   0.32210   0.23957   0.00000  Uiso   1.00
C14    C     0.15029   0.01300   0.26303   0.00000  Uiso   1.00
C15    C     0.15637   0.05634   0.25855   0.00000  Uiso   1.00
C16    C     0.17649   0.27763   0.24163   0.00000  Uiso   1.00
C17    C     0.18820   0.14523   0.14415   0.00000  Uiso   1.00
C18    C     0.14524   0.18771   0.35625   0.00000  Uiso   1.00
C19    C     0.13255   0.19323   0.39963   0.00000  Uiso   1.00
C20    C     0.19642   0.13657   0.10163   0.00000  Uiso   1.00
C21    C     0.08305   0.21691   0.46191   0.00000  Uiso   1.00
C22    C     0.32414   0.12092   0.31868   0.00000  Uiso   1.00
C23    C     0.15453   0.17486   0.41967   0.00000  Uiso   1.00
C24    C     0.28718   0.10797   0.35364   0.00000  Uiso   1.00
C25    C     0.17771   0.22753   0.09561   0.00000  Uiso   1.00
C26    C     0.15306   0.26346   0.11932   0.00000  Uiso   1.00
C27    C     0.22751   0.04770   0.10598   0.00000  Uiso   1.00
C28    C     0.24862   0.02972   0.13183   0.00000  Uiso   1.00
C29    C     0.14005   0.17435   0.46085   0.00000  Uiso   1.00
C30    C     0.10319   0.19546   0.48271   0.00000  Uiso   1.00
C31    C     0.16205   0.15379   0.48062   0.00000  Uiso   1.00
C32    C     0.15083   0.15910   0.02234   0.00000  Uiso   1.00
C33    C     0.11199   0.17586   0.04289   0.00000  Uiso   1.00
C34    C     0.08813   0.19336   0.02398   0.00000  Uiso   1.00
Cl35   Cl    0.03823   0.20856   0.05468   0.00000  Uiso   1.00
Cl36   Cl    0.10227   0.32965   0.29825   0.00000  Uiso   1.00
Cl37   Cl    0.04149   0.24937   0.48395   0.00000  Uiso   1.00
H38    H     0.25454   0.07708   0.02345   0.00000  Uiso   1.00
H39    H     0.33249   0.09261   0.29755   0.00000  Uiso   1.00
H40    H     0.25851   0.09432   0.34360   0.00000  Uiso   1.00
H41    H     0.29696   0.08439   0.36794   0.00000  Uiso   1.00
H42    H     0.27850   0.13547   0.37557   0.00000  Uiso   1.00
H43    H     0.18552   0.23165   0.06376   0.00000  Uiso   1.00
H44    H     0.20826   0.22894   0.10397   0.00000  Uiso   1.00
H45    H     0.14646   0.26137   0.15137   0.00000  Uiso   1.00
H46    H     0.17238   0.29355   0.11205   0.00000  Uiso   1.00
H47    H     0.12201   0.26242   0.11210   0.00000  Uiso   1.00
H48    H     0.23196   0.02733   0.07750   0.00000  Uiso   1.00
H49    H     0.01667   0.18392   0.21078   0.00000  Uiso   1.00
H50    H     0.19237   0.04754   0.12143   0.00000  Uiso   1.00
H51    H     0.24435   0.04936   0.16061   0.00000  Uiso   1.00
H52    H     0.23359   0.33094   0.13719   0.00000  Uiso   1.00
H53    H     0.28361   0.02871   0.11707   0.00000  Uiso   1.00
H54    H     0.20768   0.00247   0.21820   0.00000  Uiso   1.00
H55    H     0.23913   0.08705   0.46330   0.00000  Uiso   1.00
H56    H     0.08091   0.23017   0.40551   0.00000  Uiso   1.00
H57    H     0.18351   0.16160   0.40224   0.00000  Uiso   1.00
H58    H     0.09788   0.17313   0.07392   0.00000  Uiso   1.00
H59    H     0.20148   0.11794   0.42883   0.00000  Uiso   1.00
H60    H     0.01890   0.13433   0.32978   0.00000  Uiso   1.00
O61    O     0.16667   0.16667   0.25000   0.00000  Uiso   1.00
O62    O     0.15693   0.12393   0.16625   0.00000  Uiso   1.00
O63    O     0.12687   0.20646   0.33749   0.00000  Uiso   1.00
O64    O     0.21088   0.17493   0.15877   0.00000  Uiso   1.00
O65    O     0.17198   0.16135   0.33749   0.00000  Uiso   1.00
O66    O     0.31105   0.15091   0.30094   0.00000  Uiso   1.00
O67    O     0.15187   0.18961   0.10399   0.00000  Uiso   1.00
O68    O     0.24704   0.08850   0.09962   0.00000  Uiso   1.00
O69    O     0.17849   0.08101   0.27821   0.00000  Uiso   1.00
O70    O     0.14581   0.26136   0.26767   0.00000  Uiso   1.00
O71    O     0.07452   0.13251   0.23607   0.00000  Uiso   1.00
O72    O     0.26785   0.19179   0.21806   0.00000  Uiso   1.00
O73    O     0.06990   0.18960   0.27820   0.00000  Uiso   1.00
O74    O     0.25440   0.15277   0.26768   0.00000  Uiso   1.00
O75    O     0.13800   0.06903   0.23607   0.00000  Uiso   1.00
O76    O     0.20437   0.25527   0.21806   0.00000  Uiso   1.00
Zn77   Zn    0.19244   0.14090   0.28278   0.00000  Uiso   1.00
Zn78   Zn    0.13459   0.12378   0.22258   0.00000  Uiso   1.00
Zn79   Zn    0.21166   0.19664   0.21188   0.00000  Uiso   1.00
Zn80   Zn    0.12798   0.20535   0.28277   0.00000  Uiso   1.00
C81    C     0.38603   0.16049   0.25858   0.00000  Uiso   1.00
C82    C     0.52729   0.12694   0.46015   0.00000  Uiso   1.00
C83    C     0.54898   0.10815   0.48003   0.00000  Uiso   1.00
C84    C     0.61428   0.17328   0.24131   0.00000  Uiso   1.00
C85    C     0.54135   0.11694   0.02068   0.00000  Uiso   1.00
C86    C     0.51032   0.14439   0.04225   0.00000  Uiso   1.00
C87    C     0.56454   0.09841   0.03992   0.00000  Uiso   1.00
C88    C     0.55741   0.10671   0.08067   0.00000  Uiso   1.00
C89    C     0.50789   0.15695   0.08261   0.00000  Uiso   1.00
C90    C     0.66011   0.17305   0.23707   0.00000  Uiso   1.00
C91    C     0.34002   0.15840   0.26445   0.00000  Uiso   1.00
C92    C     0.43078   0.21478   0.42090   0.00000  Uiso   1.00
C93    C     0.51319   0.32210   0.23957   0.00000  Uiso   1.00
C94    C     0.48363   0.01300   0.26303   0.00000  Uiso   1.00
C95    C     0.48970   0.05634   0.25855   0.00000  Uiso   1.00
C96    C     0.50982   0.27763   0.24163   0.00000  Uiso   1.00
C97    C     0.52153   0.14523   0.14415   0.00000  Uiso   1.00
C98    C     0.47857   0.18771   0.35625   0.00000  Uiso   1.00
C99    C     0.46589   0.19323   0.39963   0.00000  Uiso   1.00
C100   C     0.52975   0.13657   0.10163   0.00000  Uiso   1.00
C101   C     0.41638   0.21691   0.46191   0.00000  Uiso   1.00
C102   C     0.65747   0.12092   0.31868   0.00000  Uiso   1.00
C103   C     0.48786   0.17486   0.41967   0.00000  Uiso   1.00
C104   C     0.62051   0.10797   0.35364   0.00000  Uiso   1.00
C105   C     0.51104   0.22753   0.09561   0.00000  Uiso   1.00
C106   C     0.48639   0.26346   0.11932   0.00000  Uiso   1.00
C107   C     0.56084   0.04770   0.10598   0.00000  Uiso   1.00
C108   C     0.58195   0.02972   0.13183   0.00000  Uiso   1.00
C109   C     0.47338   0.17435   0.46085   0.00000  Uiso   1.00
C110   C     0.43652   0.19546   0.48271   0.00000  Uiso   1.00
C111   C     0.49538   0.15379   0.48062   0.00000  Uiso   1.00
C112   C     0.48416   0.15910   0.02234   0.00000  Uiso   1.00
C113   C     0.44533   0.17586   0.04289   0.00000  Uiso   1.00
C114   C     0.42147   0.19336   0.02398   0.00000  Uiso   1.00
Cl115  Cl    0.37156   0.20856   0.05468   0.00000  Uiso   1.00
Cl116  Cl    0.43560   0.32965   0.29825   0.00000  Uiso   1.00
Cl117  Cl    0.37482   0.24937   0.48395   0.00000  Uiso   1.00
H118   H     0.58788   0.07708   0.02345   0.00000  Uiso   1.00
H119   H     0.66582   0.09261   0.29755   0.00000  Uiso   1.00
H120   H     0.59185   0.09432   0.34360   0.00000  Uiso   1.00
H121   H     0.63029   0.08439   0.36794   0.00000  Uiso   1.00
H122   H     0.61184   0.13547   0.37557   0.00000  Uiso   1.00
H123   H     0.51885   0.23165   0.06376   0.00000  Uiso   1.00
H124   H     0.54159   0.22894   0.10397   0.00000  Uiso   1.00
H125   H     0.47980   0.26137   0.15137   0.00000  Uiso   1.00
H126   H     0.50572   0.29355   0.11205   0.00000  Uiso   1.00
H127   H     0.45534   0.26242   0.11210   0.00000  Uiso   1.00
H128   H     0.56529   0.02733   0.07750   0.00000  Uiso   1.00
H129   H     0.35000   0.18392   0.21078   0.00000  Uiso   1.00
H130   H     0.52571   0.04754   0.12143   0.00000  Uiso   1.00
H131   H     0.57768   0.04936   0.16061   0.00000  Uiso   1.00
H132   H     0.56692   0.33094   0.13719   0.00000  Uiso   1.00
H133   H     0.61695   0.02871   0.11707   0.00000  Uiso   1.00
H134   H     0.54102   0.00247   0.21820   0.00000  Uiso   1.00
H135   H     0.57246   0.08705   0.46330   0.00000  Uiso   1.00
H136   H     0.41424   0.23017   0.40551   0.00000  Uiso   1.00
H137   H     0.51684   0.16160   0.40224   0.00000  Uiso   1.00
H138   H     0.43121   0.17313   0.07392   0.00000  Uiso   1.00
H139   H     0.53481   0.11794   0.42883   0.00000  Uiso   1.00
H140   H     0.35223   0.13433   0.32978   0.00000  Uiso   1.00
O141   O     0.50000   0.16667   0.25000   0.00000  Uiso   1.00
O142   O     0.49027   0.12393   0.16625   0.00000  Uiso   1.00
O143   O     0.46020   0.20646   0.33749   0.00000  Uiso   1.00
O144   O     0.54421   0.17493   0.15877   0.00000  Uiso   1.00
O145   O     0.50532   0.16135   0.33749   0.00000  Uiso   1.00
O146   O     0.64439   0.15091   0.30094   0.00000  Uiso   1.00
O147   O     0.48520   0.18961   0.10399   0.00000  Uiso   1.00
O148   O     0.58038   0.08850   0.09962   0.00000  Uiso   1.00
O149   O     0.51182   0.08101   0.27821   0.00000  Uiso   1.00
O150   O     0.47914   0.26136   0.26767   0.00000  Uiso   1.00
O151   O     0.40785   0.13251   0.23607   0.00000  Uiso   1.00
O152   O     0.60119   0.19179   0.21806   0.00000  Uiso   1.00
O153   O     0.40323   0.18960   0.27820   0.00000  Uiso   1.00
O154   O     0.58773   0.15277   0.26768   0.00000  Uiso   1.00
O155   O     0.47133   0.06903   0.23607   0.00000  Uiso   1.00
O156   O     0.53771   0.25527   0.21806   0.00000  Uiso   1.00
Zn157  Zn    0.52577   0.14090   0.28278   0.00000  Uiso   1.00
Zn158  Zn    0.46792   0.12378   0.22258   0.00000  Uiso   1.00
Zn159  Zn    0.54500   0.19664   0.21188   0.00000  Uiso   1.00
Zn160  Zn    0.46131   0.20535   0.28277   0.00000  Uiso   1.00
C161   C     0.71936   0.16049   0.25858   0.00000  Uiso   1.00
C162   C     0.86062   0.12694   0.46015   0.00000  Uiso   1.00
C163   C     0.88232   0.10815   0.48003   0.00000  Uiso   1.00
C164   C     0.94762   0.17328   0.24131   0.00000  Uiso   1.00
C165   C     0.87468   0.11694   0.02068   0.00000  Uiso   1.00
C166   C     0.84365   0.14439   0.04225   0.00000  Uiso   1.00
C167   C     0.89787   0.09841   0.03992   0.00000  Uiso   1.00
C168   C     0.89074   0.10671   0.08067   0.00000  Uiso   1.00
C169   C     0.84123   0.15695   0.08261   0.00000  Uiso   1.00
C170   C     0.99344   0.17305   0.23707   0.00000  Uiso   1.00
C171   C     0.67336   0.15840   0.26445   0.00000  Uiso   1.00
C172   C     0.76411   0.21478   0.42090   0.00000  Uiso   1.00
C173   C     0.84653   0.32210   0.23957   0.00000  Uiso   1.00
C174   C     0.81696   0.01300   0.26303   0.00000  Uiso   1.00
C175   C     0.82304   0.05634   0.25855   0.00000  Uiso   1.00
C176   C     0.84316   0.27763   0.24163   0.00000  Uiso   1.00
C177   C     0.85486   0.14523   0.14415   0.00000  Uiso   1.00
C178   C     0.81190   0.18771   0.35625   0.00000  Uiso   1.00
C179   C     0.79922   0.19323   0.39963   0.00000  Uiso   1.00
C180   C     0.86308   0.13657   0.10163   0.00000  Uiso   1.00
C181   C     0.74971   0.21691   0.46191   0.00000  Uiso   1.00
C182   C     0.99081   0.12092   0.31868   0.00000  Uiso   1.00
C183   C     0.82120   0.17486   0.41967   0.00000  Uiso   1.00
C184   C     0.95385   0.10797   0.35364   0.00000  Uiso   1.00
C185   C     0.84437   0.22753   0.09561   0.00000  Uiso   1.00
C186   C     0.81972   0.26346   0.11932   0.00000  Uiso   1.00
C187   C     0.89417   0.04770   0.10598   0.00000  Uiso   1.00
C188   C     0.91528   0.02972   0.13183   0.00000  Uiso   1.00
C189   C     0.80671   0.17435   0.46085   0.00000  Uiso   1.00
C190   C     0.76986   0.19546   0.48271   0.00000  Uiso   1.00
C191   C     0.82871   0.15379   0.48062   0.00000  Uiso   1.00
C192   C     0.81750   0.15910   0.02234   0.00000  Uiso   1.00
C193   C     0.77866   0.17586   0.04289   0.00000  Uiso   1.00
C194   C     0.75480   0.19336   0.02398   0.00000  Uiso   1.00
Cl195  Cl    0.70490   0.20856   0.05468   0.00000  Uiso   1.00
Cl196  Cl    0.76894   0.32965   0.29825   0.00000  Uiso   1.00
Cl197  Cl    0.70815   0.24937   0.48395   0.00000  Uiso   1.00
H198   H     0.92121   0.07708   0.02345   0.00000  Uiso   1.00
H199   H     0.99915   0.09261   0.29755   0.00000  Uiso   1.00
H200   H     0.92518   0.09432   0.34360   0.00000  Uiso   1.00
H201   H     0.96363   0.08439   0.36794   0.00000  Uiso   1.00
H202   H     0.94517   0.13547   0.37557   0.00000  Uiso   1.00
H203   H     0.85218   0.23165   0.06376   0.00000  Uiso   1.00
H204   H     0.87493   0.22894   0.10397   0.00000  Uiso   1.00
H205   H     0.81313   0.26137   0.15137   0.00000  Uiso   1.00
H206   H     0.83905   0.29355   0.11205   0.00000  Uiso   1.00
H207   H     0.78867   0.26242   0.11210   0.00000  Uiso   1.00
H208   H     0.89863   0.02733   0.07750   0.00000  Uiso   1.00
H209   H     0.68334   0.18392   0.21078   0.00000  Uiso   1.00
H210   H     0.85904   0.04754   0.12143   0.00000  Uiso   1.00
H211   H     0.91101   0.04936   0.16061   0.00000  Uiso   1.00
H212   H     0.90026   0.33094   0.13719   0.00000  Uiso   1.00
H213   H     0.95028   0.02871   0.11707   0.00000  Uiso   1.00
H214   H     0.87435   0.00247   0.21820   0.00000  Uiso   1.00
H215   H     0.90579   0.08705   0.46330   0.00000  Uiso   1.00
H216   H     0.74758   0.23017   0.40551   0.00000  Uiso   1.00
H217   H     0.85017   0.16160   0.40224   0.00000  Uiso   1.00
H218   H     0.76454   0.17313   0.07392   0.00000  Uiso   1.00
H219   H     0.86814   0.11794   0.42883   0.00000  Uiso   1.00
H220   H     0.68557   0.13433   0.32978   0.00000  Uiso   1.00
O221   O     0.83333   0.16667   0.25000   0.00000  Uiso   1.00
O222   O     0.82360   0.12393   0.16625   0.00000  Uiso   1.00
O223   O     0.79354   0.20646   0.33749   0.00000  Uiso   1.00
O224   O     0.87755   0.17493   0.15877   0.00000  Uiso   1.00
O225   O     0.83865   0.16135   0.33749   0.00000  Uiso   1.00
O226   O     0.97772   0.15091   0.30094   0.00000  Uiso   1.00
O227   O     0.81854   0.18961   0.10399   0.00000  Uiso   1.00
O228   O     0.91371   0.08850   0.09962   0.00000  Uiso   1.00
O229   O     0.84515   0.08101   0.27821   0.00000  Uiso   1.00
O230   O     0.81247   0.26136   0.26767   0.00000  Uiso   1.00
O231   O     0.74119   0.13251   0.23607   0.00000  Uiso   1.00
O232   O     0.93452   0.19179   0.21806   0.00000  Uiso   1.00
O233   O     0.73656   0.18960   0.27820   0.00000  Uiso   1.00
O234   O     0.92106   0.15277   0.26768   0.00000  Uiso   1.00
O235   O     0.80467   0.06903   0.23607   0.00000  Uiso   1.00
O236   O     0.87104   0.25527   0.21806   0.00000  Uiso   1.00
Zn237  Zn    0.85910   0.14090   0.28278   0.00000  Uiso   1.00
Zn238  Zn    0.80125   0.12378   0.22258   0.00000  Uiso   1.00
Zn239  Zn    0.87833   0.19664   0.21188   0.00000  Uiso   1.00
Zn240  Zn    0.79465   0.20535   0.28277   0.00000  Uiso   1.00
C241   C     0.05270   0.49382   0.25858   0.00000  Uiso   1.00
C242   C     0.19396   0.46027   0.46015   0.00000  Uiso   1.00
C243   C     0.21565   0.44148   0.48003   0.00000  Uiso   1.00
C244   C     0.28095   0.50661   0.24131   0.00000  Uiso   1.00
C245   C     0.20801   0.45027   0.02068   0.00000  Uiso   1.00
C246   C     0.17699   0.47772   0.04225   0.00000  Uiso   1.00
C247   C     0.23121   0.43174   0.03992   0.00000  Uiso   1.00
C248   C     0.22407   0.44004   0.08067   0.00000  Uiso   1.00
C249   C     0.17456   0.49029   0.08261   0.00000  Uiso   1.00
C250   C     0.32678   0.50639   0.23707   0.00000  Uiso   1.00
C251   C     0.00669   0.49173   0.26445   0.00000  Uiso   1.00
C252   C     0.09744   0.54811   0.42090   0.00000  Uiso   1.00
C253   C     0.17986   0.65543   0.23957   0.00000  Uiso   1.00
C254   C     0.15029   0.34633   0.26303   0.00000  Uiso   1.00
C255   C     0.15637   0.38967   0.25855   0.00000  Uiso   1.00
C256   C     0.17649   0.61096   0.24163   0.00000  Uiso   1.00
C257   C     0.18820   0.47857   0.14415   0.00000  Uiso   1.00
C258   C     0.14524   0.52104   0.35625   0.00000  Uiso   1.00
C259   C     0.13255   0.52657   0.39963   0.00000  Uiso   1.00
C260   C     0.19642   0.46990   0.10163   0.00000  Uiso   1.00
C261   C     0.08305   0.55024   0.46191   0.00000  Uiso   1.00
C262   C     0.32414   0.45426   0.31868   0.00000  Uiso   1.00
C263   C     0.15453   0.50820   0.41967   0.00000  Uiso   1.00
C264   C     0.28718   0.44130   0.35364   0.00000  Uiso   1.00
C265   C     0.17771   0.56086   0.09561   0.00000  Uiso   1.00
C266   C     0.15306   0.59680   0.11932   0.00000  Uiso   1.00
C267   C     0.22751   0.38103   0.10598   0.00000  Uiso   1.00
C268   C     0.24862   0.36305   0.13183   0.00000  Uiso   1.00
C269   C     0.14005   0.50768   0.46085   0.00000  Uiso   1.00
C270   C     0.10319   0.52880   0.48271   0.00000  Uiso   1.00
C271   C     0.16205   0.48712   0.48062   0.00000  Uiso   1.00
C272   C     0.15083   0.49243   0.02234   0.00000  Uiso   1.00
C273   C     0.11199   0.50919   0.04289   0.00000  Uiso   1.00
C274   C     0.08813   0.52670   0.02398   0.00000  Uiso   1.00
Cl275  Cl    0.03823   0.54189   0.05468   0.00000  Uiso   1.00
Cl276  Cl    0.10227   0.66298   0.29825   0.00000  Uiso   1.00
Cl277  Cl    0.04149   0.58271   0.48395   0.00000  Uiso   1.00
H278   H     0.25454   0.41041   0.02345   0.00000  Uiso   1.00
H279   H     0.33249   0.42594   0.29755   0.00000  Uiso   1.00
H280   H     0.25851   0.42766   0.34360   0.00000  Uiso   1.00
H281   H     0.29696   0.41772   0.36794   0.00000  Uiso   1.00
H282   H     0.27850   0.46881   0.37557   0.00000  Uiso   1.00
H283   H     0.18552   0.56498   0.06376   0.00000  Uiso   1.00
H284   H     0.20826   0.56227   0.10397   0.00000  Uiso   1.00
H285   H     0.14646   0.59470   0.15137   0.00000  Uiso   1.00
H286   H     0.17238   0.62688   0.11205   0.00000  Uiso   1.00
H287   H     0.12201   0.59575   0.11210   0.00000  Uiso   1.00
H288   H     0.23196   0.36066   0.07750   0.00000  Uiso   1.00
H289   H     0.01667   0.51725   0.21078   0.00000  Uiso   1.00
H290   H     0.19237   0.38087   0.12143   0.00000  Uiso   1.00
H291   H     0.24435   0.38269   0.16061   0.00000  Uiso   1.00
H292   H     0.23359   0.66427   0.13719   0.00000  Uiso   1.00
H293   H     0.28361   0.36204   0.11707   0.00000  Uiso   1.00
H294   H     0.20768   0.33580   0.21820   0.00000  Uiso   1.00
H295   H     0.23913   0.42038   0.46330   0.00000  Uiso   1.00
H296   H     0.08091   0.56350   0.40551   0.00000  Uiso   1.00
H297   H     0.18351   0.49494   0.40224   0.00000  Uiso   1.00
H298   H     0.09788   0.50646   0.07392   0.00000  Uiso   1.00
H299   H     0.20148   0.45127   0.42883   0.00000  Uiso   1.00
H300   H     0.01890   0.46766   0.32978   0.00000  Uiso   1.00
O301   O     0.16667   0.50000   0.25000   0.00000  Uiso   1.00
O302   O     0.15693   0.45726   0.16625   0.00000  Uiso   1.00
O303   O     0.12687   0.53979   0.33749   0.00000  Uiso   1.00
O304   O     0.21088   0.50826   0.15877   0.00000  Uiso   1.00
O305   O     0.17198   0.49468   0.33749   0.00000  Uiso   1.00
O306   O     0.31105   0.48425   0.30094   0.00000  Uiso   1.00
O307   O     0.15187   0.52294   0.10399   0.00000  Uiso   1.00
O308   O     0.24704   0.42183   0.09962   0.00000  Uiso   1.00
O309   O     0.17849   0.41434   0.27821   0.00000  Uiso   1.00
O310   O     0.14581   0.59469   0.26767   0.00000  Uiso   1.00
O311   O     0.07452   0.46584   0.23607   0.00000  Uiso   1.00
O312   O     0.26785   0.52512   0.21806   0.00000  Uiso   1.00
O313   O     0.06990   0.52293   0.27820   0.00000  Uiso   1.00
O314   O     0.25440   0.48610   0.26768   0.00000  Uiso   1.00
O315   O     0.13800   0.40236   0.23607   0.00000  Uiso   1.00
O316   O     0.20437   0.58860   0.21806   0.00000  Uiso   1.00
Zn317  Zn    0.19244   0.47423   0.28278   0.00000  Uiso   1.00
Zn318  Zn    0.13459   0.45711   0.22258   0.00000  Uiso   1.00
Zn319  Zn    0.21166   0.52997   0.21188   0.00000  Uiso   1.00
Zn320  Zn    0.12798   0.53868   0.28277   0.00000  Uiso   1.00
C321   C     0.38603   0.49382   0.25858   0.00000  Uiso   1.00
C322   C     0.52729   0.46027   0.46015   0.00000  Uiso   1.00
C323   C     0.54898   0.44148   0.48003   0.00000  Uiso   1.00
C324   C     0.61428   0.50661   0.24131   0.00000  Uiso   1.00
C325   C     0.54135   0.45027   0.02068   0.00000  Uiso   1.00
C326   C     0.51032   0.47772   0.04225   0.00000  Uiso   1.00
C327   C     0.56454   0.43174   0.03992   0.00000  Uiso   1.00
C328   C     0.55741   0.44004   0.08067   0.00000  Uiso   1.00
C329   C     0.50789   0.49029   0.08261   0.00000  Uiso   1.00
C330   C     0.66011   0.50639   0.23707   0.00000  Uiso   1.00
C331   C     0.34002   0.49173   0.26445   0.00000  Uiso   1.00
C332   C     0.43078   0.54811   0.42090   0.00000  Uiso   1.00
C333   C     0.51319   0.65543   0.23957   0.00000  Uiso   1.00
C334   C     0.48363   0.34633   0.26303   0.00000  Uiso   1.00
C335   C     0.48970   0.38967   0.25855   0.00000  Uiso   1.00
C336   C     0.50982   0.61096   0.24163   0.00000  Uiso   1.00
C337   C     0.52153   0.47857   0.14415   0.00000  Uiso   1.00
C338   C     0.47857   0.52104   0.35625   0.00000  Uiso   1.00
C339   C     0.46589   0.52657   0.39963   0.00000  Uiso   1.00
C340   C     0.52975   0.46990   0.10163   0.00000  Uiso   1.00
C341   C     0.41638   0.55024   0.46191   0.00000  Uiso   1.00
C342   C     0.65747   0.45426   0.31868   0.00000  Uiso   1.00
C343   C     0.48786   0.50820   0.41967   0.00000  Uiso   1.00
C344   C     0.62051   0.44130   0.35364   0.00000  Uiso   1.00
C345   C     0.51104   0.56086   0.09561   0.00000  Uiso   1.00
C346   C     0.48639   0.59680   0.11932   0.00000  Uiso   1.00
C347   C     0.56084   0.38103   0.10598   0.00000  Uiso   1.00
C348   C     0.58195   0.36305   0.13183   0.00000  Uiso   1.00
C349   C     0.47338   0.50768   0.46085   0.00000  Uiso   1.00
C350   C     0.43652   0.52880   0.48271   0.00000  Uiso   1.00
C351   C     0.49538   0.48712   0.48062   0.00000  Uiso   1.00
C352   C     0.48416   0.49243   0.02234   0.00000  Uiso   1.00
C353   C     0.44533   0.50919   0.04289   0.00000  Uiso   1.00
C354   C     0.42147   0.52670   0.02398   0.00000  Uiso   1.00
Cl355  Cl    0.37156   0.54189   0.05468   0.00000  Uiso   1.00
Cl356  Cl    0.43560   0.66298   0.29825   0.00000  Uiso   1.00
Cl357  Cl    0.37482   0.58271   0.48395   0.00000  Uiso   1.00
H358   H     0.58788   0.41041   0.02345   0.00000  Uiso   1.00
H359   H     0.66582   0.42594   0.29755   0.00000  Uiso   1.00
H360   H     0.59185   0.42766   0.34360   0.00000  Uiso   1.00
H361   H     0.63029   0.41772   0.36794   0.00000  Uiso   1.00
H362   H     0.61184   0.46881   0.37557   0.00000  Uiso   1.00
H363   H     0.51885   0.56498   0.06376   0.00000  Uiso   1.00
H364   H     0.54159   0.56227   0.10397   0.00000  Uiso   1.00
H365   H     0.47980   0.59470   0.15137   0.00000  Uiso   1.00
H366   H     0.50572   0.62688   0.11205   0.00000  Uiso   1.00
H367   H     0.45534   0.59575   0.11210   0.00000  Uiso   1.00
H368   H     0.56529   0.36066   0.07750   0.00000  Uiso   1.00
H369   H     0.35000   0.51725   0.21078   0.00000  Uiso   1.00
H370   H     0.52571   0.38087   0.12143   0.00000  Uiso   1.00
H371   H     0.57768   0.38269   0.16061   0.00000  Uiso   1.00
H372   H     0.56692   0.66427   0.13719   0.00000  Uiso   1.00
H373   H     0.61695   0.36204   0.11707   0.00000  Uiso   1.00
H374   H     0.54102   0.33580   0.21820   0.00000  Uiso   1.00
H375   H     0.57246   0.42038   0.46330   0.00000  Uiso   1.00
H376   H     0.41424   0.56350   0.40551   0.00000  Uiso   1.00
H377   H     0.51684   0.49494   0.40224   0.00000  Uiso   1.00
H378   H     0.43121   0.50646   0.07392   0.00000  Uiso   1.00
H379   H     0.53481   0.45127   0.42883   0.00000  Uiso   1.00
H380   H     0.35223   0.46766   0.32978   0.00000  Uiso   1.00
O381   O     0.50000   0.50000   0.25000   0.00000  Uiso   1.00
O382   O     0.49027   0.45726   0.16625   0.00000  Uiso   1.00
O383   O     0.46020   0.53979   0.33749   0.00000  Uiso   1.00
O384   O     0.54421   0.50826   0.15877   0.00000  Uiso   1.00
O385   O     0.50532   0.49468   0.33749   0.00000  Uiso   1.00
O386   O     0.64439   0.48425   0.30094   0.00000  Uiso   1.00
O387   O     0.48520   0.52294   0.10399   0.00000  Uiso   1.00
O388   O     0.58038   0.42183   0.09962   0.00000  Uiso   1.00
O389   O     0.51182   0.41434   0.27821   0.00000  Uiso   1.00
O390   O     0.47914   0.59469   0.26767   0.00000  Uiso   1.00
O391   O     0.40785   0.46584   0.23607   0.00000  Uiso   1.00
O392   O     0.60119   0.52512   0.21806   0.00000  Uiso   1.00
O393   O     0.40323   0.52293   0.27820   0.00000  Uiso   1.00
O394   O     0.58773   0.48610   0.26768   0.00000  Uiso   1.00
O395   O     0.47133   0.40236   0.23607   0.00000  Uiso   1.00
O396   O     0.53771   0.58860   0.21806   0.00000  Uiso   1.00
Zn397  Zn    0.52577   0.47423   0.28278   0.00000  Uiso   1.00
Zn398  Zn    0.46792   0.45711   0.22258   0.00000  Uiso   1.00
Zn399  Zn    0.54500   0.52997   0.21188   0.00000  Uiso   1.00
Zn400  Zn    0.46131   0.53868   0.28277   0.00000  Uiso   1.00
C401   C     0.71936   0.49382   0.25858   0.00000  Uiso   1.00
C402   C     0.86062   0.46027   0.46015   0.00000  Uiso   1.00
C403   C     0.88232   0.44148   0.48003   0.00000  Uiso   1.00
C404   C     0.94762   0.50661   0.24131   0.00000  Uiso   1.00
C405   C     0.87468   0.45027   0.02068   0.00000  Uiso   1.00
C406   C     0.84365   0.47772   0.04225   0.00000  Uiso   1.00
C407   C     0.89787   0.43174   0.03992   0.00000  Uiso   1.00
C408   C     0.89074   0.44004   0.08067   0.00000  Uiso   1.00
C409   C     0.84123   0.49029   0.08261   0.00000  Uiso   1.00
C410   C     0.99344   0.50639   0.23707   0.00000  Uiso   1.00
C411   C     0.67336   0.49173   0.26445   0.00000  Uiso   1.00
C412   C     0.76411   0.54811   0.42090   0.00000  Uiso   1.00
C413   C     0.84653   0.65543   0.23957   0.00000  Uiso   1.00
C414   C     0.81696   0.34633   0.26303   0.00000  Uiso   1.00
C415   C     0.82304   0.38967   0.25855   0.00000  Uiso   1.00
C416   C     0.84316   0.61096   0.24163   0.00000  Uiso   1.00
C417   C     0.85486   0.47857   0.14415   0.00000  Uiso   1.00
C418   C     0.81190   0.52104   0.35625   0.00000  Uiso   1.00
C419   C     0.79922   0.52657   0.39963   0.00000  Uiso   1.00
C420   C     0.86308   0.46990   0.10163   0.00000  Uiso   1.00
C421   C     0.74971   0.55024   0.46191   0.00000  Uiso   1.00
C422   C     0.99081   0.45426   0.31868   0.00000  Uiso   1.00
C423   C     0.82120   0.50820   0.41967   0.00000  Uiso   1.00
C424   C     0.95385   0.44130   0.35364   0.00000  Uiso   1.00
C425   C     0.84437   0.56086   0.09561   0.00000  Uiso   1.00
C426   C     0.81972   0.59680   0.11932   0.00000  Uiso   1.00
C427   C     0.89417   0.38103   0.10598   0.00000  Uiso   1.00
C428   C     0.91528   0.36305   0.13183   0.00000  Uiso   1.00
C429   C     0.80671   0.50768   0.46085   0.00000  Uiso   1.00
C430   C     0.76986   0.52880   0.48271   0.00000  Uiso   1.00
C431   C     0.82871   0.48712   0.48062   0.00000  Uiso   1.00
C432   C     0.81750   0.49243   0.02234   0.00000  Uiso   1.00
C433   C     0.77866   0.50919   0.04289   0.00000  Uiso   1.00
C434   C     0.75480   0.52670   0.02398   0.00000  Uiso   1.00
Cl435  Cl    0.70490   0.54189   0.05468   0.00000  Uiso   1.00
Cl436  Cl    0.76894   0.66298   0.29825   0.00000  Uiso   1.00
Cl437  Cl    0.70815   0.58271   0.48395   0.00000  Uiso   1.00
H438   H     0.92121   0.41041   0.02345   0.00000  Uiso   1.00
H439   H     0.99915   0.42594   0.29755   0.00000  Uiso   1.00
H440   H     0.92518   0.42766   0.34360   0.00000  Uiso   1.00
H441   H     0.96363   0.41772   0.36794   0.00000  Uiso   1.00
H442   H     0.94517   0.46881   0.37557   0.00000  Uiso   1.00
H443   H     0.85218   0.56498   0.06376   0.00000  Uiso   1.00
H444   H     0.87493   0.56227   0.10397   0.00000  Uiso   1.00
H445   H     0.81313   0.59470   0.15137   0.00000  Uiso   1.00
H446   H     0.83905   0.62688   0.11205   0.00000  Uiso   1.00
H447   H     0.78867   0.59575   0.11210   0.00000  Uiso   1.00
H448   H     0.89863   0.36066   0.07750   0.00000  Uiso   1.00
H449   H     0.68334   0.51725   0.21078   0.00000  Uiso   1.00
H450   H     0.85904   0.38087   0.12143   0.00000  Uiso   1.00
H451   H     0.91101   0.38269   0.16061   0.00000  Uiso   1.00
H452   H     0.90026   0.66427   0.13719   0.00000  Uiso   1.00
H453   H     0.95028   0.36204   0.11707   0.00000  Uiso   1.00
H454   H     0.87435   0.33580   0.21820   0.00000  Uiso   1.00
H455   H     0.90579   0.42038   0.46330   0.00000  Uiso   1.00
H456   H     0.74758   0.56350   0.40551   0.00000  Uiso   1.00
H457   H     0.85017   0.49494   0.40224   0.00000  Uiso   1.00
H458   H     0.76454   0.50646   0.07392   0.00000  Uiso   1.00
H459   H     0.86814   0.45127   0.42883   0.00000  Uiso   1.00
H460   H     0.68557   0.46766   0.32978   0.00000  Uiso   1.00
O461   O     0.83333   0.50000   0.25000   0.00000  Uiso   1.00
O462   O     0.82360   0.45726   0.16625   0.00000  Uiso   1.00
O463   O     0.79354   0.53979   0.33749   0.00000  Uiso   1.00
O464   O     0.87755   0.50826   0.15877   0.00000  Uiso   1.00
O465   O     0.83865   0.49468   0.33749   0.00000  Uiso   1.00
O466   O     0.97772   0.48425   0.30094   0.00000  Uiso   1.00
O467   O     0.81854   0.52294   0.10399   0.00000  Uiso   1.00
O468   O     0.91371   0.42183   0.09962   0.00000  Uiso   1.00
O469   O     0.84515   0.41434   0.27821   0.00000  Uiso   1.00
O470   O     0.81247   0.59469   0.26767   0.00000  Uiso   1.00
O471   O     0.74119   0.46584   0.23607   0.00000  Uiso   1.00
O472   O     0.93452   0.52512   0.21806   0.00000  Uiso   1.00
O473   O     0.73656   0.52293   0.27820   0.00000  Uiso   1.00
O474   O     0.92106   0.48610   0.26768   0.00000  Uiso   1.00
O475   O     0.80467   0.40236   0.23607   0.00000  Uiso   1.00
O476   O     0.87104   0.58860   0.21806   0.00000  Uiso   1.00
Zn477  Zn    0.85910   0.47423   0.28278   0.00000  Uiso   1.00
Zn478  Zn    0.80125   0.45711   0.22258   0.00000  Uiso   1.00
Zn479  Zn    0.87833   0.52997   0.21188   0.00000  Uiso   1.00
Zn480  Zn    0.79465   0.53868   0.28277   0.00000  Uiso   1.00
C481   C     0.05270   0.82716   0.25858   0.00000  Uiso   1.00
C482   C     0.19396   0.79360   0.46015   0.00000  Uiso   1.00
C483   C     0.21565   0.77481   0.48003   0.00000  Uiso   1.00
C484   C     0.28095   0.83994   0.24131   0.00000  Uiso   1.00
C485   C     0.20801   0.78361   0.02068   0.00000  Uiso   1.00
C486   C     0.17699   0.81106   0.04225   0.00000  Uiso   1.00
C487   C     0.23121   0.76507   0.03992   0.00000  Uiso   1.00
C488   C     0.22407   0.77337   0.08067   0.00000  Uiso   1.00
C489   C     0.17456   0.82362   0.08261   0.00000  Uiso   1.00
C490   C     0.32678   0.83972   0.23707   0.00000  Uiso   1.00
C491   C     0.00669   0.82506   0.26445   0.00000  Uiso   1.00
C492   C     0.09744   0.88145   0.42090   0.00000  Uiso   1.00
C493   C     0.17986   0.98877   0.23957   0.00000  Uiso   1.00
C494   C     0.15029   0.67967   0.26303   0.00000  Uiso   1.00
C495   C     0.15637   0.72300   0.25855   0.00000  Uiso   1.00
C496   C     0.17649   0.94430   0.24163   0.00000  Uiso   1.00
C497   C     0.18820   0.81190   0.14415   0.00000  Uiso   1.00
C498   C     0.14524   0.85438   0.35625   0.00000  Uiso   1.00
C499   C     0.13255   0.85990   0.39963   0.00000  Uiso   1.00
C500   C     0.19642   0.80324   0.10163   0.00000  Uiso   1.00
C501   C     0.08305   0.88357   0.46191   0.00000  Uiso   1.00
C502   C     0.32414   0.78759   0.31868   0.00000  Uiso   1.00
C503   C     0.15453   0.84153   0.41967   0.00000  Uiso   1.00
C504   C     0.28718   0.77464   0.35364   0.00000  Uiso   1.00
C505   C     0.17771   0.89419   0.09561   0.00000  Uiso   1.00
C506   C     0.15306   0.93013   0.11932   0.00000  Uiso   1.00
C507   C     0.22751   0.71436   0.10598   0.00000  Uiso   1.00
C508   C     0.24862   0.69639   0.13183   0.00000  Uiso   1.00
C509   C     0.14005   0.84102   0.46085   0.00000  Uiso   1.00
C510   C     0.10319   0.86213   0.48271   0.00000  Uiso   1.00
C511   C     0.16205   0.82046   0.48062   0.00000  Uiso   1.00
C512   C     0.15083   0.82577   0.02234   0.00000  Uiso   1.00
C513   C     0.11199   0.84252   0.04289   0.00000  Uiso   1.00
C514   C     0.08813   0.86003   0.02398   0.00000  Uiso   1.00
Cl515  Cl    0.03823   0.87522   0.05468   0.00000  Uiso   1.00
Cl516  Cl    0.10227   0.99631   0.29825   0.00000  Uiso   1.00
Cl517  Cl    0.04149   0.91604   0.48395   0.00000  Uiso   1.00
H518   H     0.25454   0.74374   0.02345   0.00000  Uiso   1.00
H519   H     0.33249   0.75927   0.29755   0.00000  Uiso   1.00
H520   H     0.25851   0.76099   0.34360   0.00000  Uiso   1.00
H521   H     0.29696   0.75105   0.36794   0.00000  Uiso   1.00
H522   H     0.27850   0.80214   0.37557   0.00000  Uiso   1.00
H523   H     0.18552   0.89832   0.06376   0.00000  Uiso   1.00
H524   H     0.20826   0.89561   0.10397   0.00000  Uiso   1.00
H525   H     0.14646   0.92803   0.15137   0.00000  Uiso   1.00
H526   H     0.17238   0.96021   0.11205   0.00000  Uiso   1.00
H527   H     0.12201   0.92909   0.11210   0.00000  Uiso   1.00
H528   H     0.23196   0.69399   0.07750   0.00000  Uiso   1.00
H529   H     0.01667   0.85059   0.21078   0.00000  Uiso   1.00
H530   H     0.19237   0.71421   0.12143   0.00000  Uiso   1.00
H531   H     0.24435   0.71602   0.16061   0.00000  Uiso   1.00
H532   H     0.23359   0.99760   0.13719   0.00000  Uiso   1.00
H533   H     0.28361   0.69538   0.11707   0.00000  Uiso   1.00
H534   H     0.20768   0.66913   0.21820   0.00000  Uiso   1.00
H535   H     0.23913   0.75371   0.46330   0.00000  Uiso   1.00
H536   H     0.08091   0.89683   0.40551   0.00000  Uiso   1.00
H537   H     0.18351   0.82827   0.40224   0.00000  Uiso   1.00
H538   H     0.09788   0.83980   0.07392   0.00000  Uiso   1.00
H539   H     0.20148   0.78460   0.42883   0.00000  Uiso   1.00
H540   H     0.01890   0.80100   0.32978   0.00000  Uiso   1.00
O541   O     0.16667   0.83333   0.25000   0.00000  Uiso   1.00
O542   O     0.15693   0.79060   0.16625   0.00000  Uiso   1.00
O543   O     0.12687   0.87313   0.33749   0.00000  Uiso   1.00
O544   O     0.21088   0.84159   0.15877   0.00000  Uiso   1.00
O545   O     0.17198   0.82802   0.33749   0.00000  Uiso   1.00
O546   O     0.31105   0.81758   0.30094   0.00000  Uiso   1.00
O547   O     0.15187   0.85628   0.10399   0.00000  Uiso   1.00
O548   O     0.24704   0.75516   0.09962   0.00000  Uiso   1.00
O549   O     0.17849   0.74768   0.27821   0.00000  Uiso   1.00
O550   O     0.14581   0.92803   0.26767   0.00000  Uiso   1.00
O551   O     0.07452   0.79917   0.23607   0.00000  Uiso   1.00
O552   O     0.26785   0.85845   0.21806   0.00000  Uiso   1.00
O553   O     0.06990   0.85627   0.27820   0.00000  Uiso   1.00
O554   O     0.25440   0.81944   0.26768   0.00000  Uiso   1.00
O555   O     0.13800   0.73570   0.23607   0.00000  Uiso   1.00
O556   O     0.20437   0.92193   0.21806   0.00000  Uiso   1.00
Zn557  Zn    0.19244   0.80756   0.28278   0.00000  Uiso   1.00
Zn558  Zn    0.13459   0.79044   0.22258   0.00000  Uiso   1.00
Zn559  Zn    0.21166   0.86331   0.21188   0.00000  Uiso   1.00
Zn560  Zn    0.12798   0.87202   0.28277   0.00000  Uiso   1.00
C561   C     0.38603   0.82716   0.25858   0.00000  Uiso   1.00
C562   C     0.52729   0.79360   0.46015   0.00000  Uiso   1.00
C563   C     0.54898   0.77481   0.48003   0.00000  Uiso   1.00
C564   C     0.61428   0.83994   0.24131   0.00000  Uiso   1.00
C565   C     0.54135   0.78361   0.02068   0.00000  Uiso   1.00
C566   C     0.51032   0.81106   0.04225   0.00000  Uiso   1.00
C567   C     0.56454   0.76507   0.03992   0.00000  Uiso   1.00
C568   C     0.55741   0.77337   0.08067   0.00000  Uiso   1.00
C569   C     0.50789   0.82362   0.08261   0.00000  Uiso   1.00
C570   C     0.66011   0.83972   0.23707   0.00000  Uiso   1.00
C571   C     0.34002   0.82506   0.26445   0.00000  Uiso   1.00
C572   C     0.43078   0.88145   0.42090   0.00000  Uiso   1.00
C573   C     0.51319   0.98877   0.23957   0.00000  Uiso   1.00
C574   C     0.48363   0.67967   0.26303   0.00000  Uiso   1.00
C575   C     0.48970   0.72300   0.25855   0.00000  Uiso   1.00
C576   C     0.50982   0.94430   0.24163   0.00000  Uiso   1.00
C577   C     0.52153   0.81190   0.14415   0.00000  Uiso   1.00
C578   C     0.47857   0.85438   0.35625   0.00000  Uiso   1.00
C579   C     0.46589   0.85990   0.39963   0.00000  Uiso   1.00
C580   C     0.52975   0.80324   0.10163   0.00000  Uiso   1.00
C581   C     0.41638   0.88357   0.46191   0.00000  Uiso   1.00
C582   C     0.65747   0.78759   0.31868   0.00000  Uiso   1.00
C583   C     0.48786   0.84153   0.41967   0.00000  Uiso   1.00
C584   C     0.62051   0.77464   0.35364   0.00000  Uiso   1.00
C585   C     0.51104   0.89419   0.09561   0.00000  Uiso   1.00
C586   C     0.48639   0.93013   0.11932   0.00000  Uiso   1.00
C587   C     0.56084   0.71436   0.10598   0.00000  Uiso   1.00
C588   C     0.58195   0.69639   0.13183   0.00000  Uiso   1.00
C589   C     0.47338   0.84102   0.46085   0.00000  Uiso   1.00
C590   C     0.43652   0.86213   0.48271   0.00000  Uiso   1.00
C591   C     0.49538   0.82046   0.48062   0.00000  Uiso   1.00
C592   C     0.48416   0.82577   0.02234   0.00000  Uiso   1.00
C593   C     0.44533   0.84252   0.04289   0.00000  Uiso   1.00
C594   C     0.42147   0.86003   0.02398   0.00000  Uiso   1.00
Cl595  Cl    0.37156   0.87522   0.05468   0.00000  Uiso   1.00
Cl596  Cl    0.43560   0.99631   0.29825   0.00000  Uiso   1.00
Cl597  Cl    0.37482   0.91604   0.48395   0.00000  Uiso   1.00
H598   H     0.58788   0.74374   0.02345   0.00000  Uiso   1.00
H599   H     0.66582   0.75927   0.29755   0.00000  Uiso   1.00
H600   H     0.59185   0.76099   0.34360   0.00000  Uiso   1.00
H601   H     0.63029   0.75105   0.36794   0.00000  Uiso   1.00
H602   H     0.61184   0.80214   0.37557   0.00000  Uiso   1.00
H603   H     0.51885   0.89832   0.06376   0.00000  Uiso   1.00
H604   H     0.54159   0.89561   0.10397   0.00000  Uiso   1.00
H605   H     0.47980   0.92803   0.15137   0.00000  Uiso   1.00
H606   H     0.50572   0.96021   0.11205   0.00000  Uiso   1.00
H607   H     0.45534   0.92909   0.11210   0.00000  Uiso   1.00
H608   H     0.56529   0.69399   0.07750   0.00000  Uiso   1.00
H609   H     0.35000   0.85059   0.21078   0.00000  Uiso   1.00
H610   H     0.52571   0.71421   0.12143   0.00000  Uiso   1.00
H611   H     0.57768   0.71602   0.16061   0.00000  Uiso   1.00
H612   H     0.56692   0.99760   0.13719   0.00000  Uiso   1.00
H613   H     0.61695   0.69538   0.11707   0.00000  Uiso   1.00
H614   H     0.54102   0.66913   0.21820   0.00000  Uiso   1.00
H615   H     0.57246   0.75371   0.46330   0.00000  Uiso   1.00
H616   H     0.41424   0.89683   0.40551   0.00000  Uiso   1.00
H617   H     0.51684   0.82827   0.40224   0.00000  Uiso   1.00
H618   H     0.43121   0.83980   0.07392   0.00000  Uiso   1.00
H619   H     0.53481   0.78460   0.42883   0.00000  Uiso   1.00
H620   H     0.35223   0.80100   0.32978   0.00000  Uiso   1.00
O621   O     0.50000   0.83333   0.25000   0.00000  Uiso   1.00
O622   O     0.49027   0.79060   0.16625   0.00000  Uiso   1.00
O623   O     0.46020   0.87313   0.33749   0.00000  Uiso   1.00
O624   O     0.54421   0.84159   0.15877   0.00000  Uiso   1.00
O625   O     0.50532   0.82802   0.33749   0.00000  Uiso   1.00
O626   O     0.64439   0.81758   0.30094   0.00000  Uiso   1.00
O627   O     0.48520   0.85628   0.10399   0.00000  Uiso   1.00
O628   O     0.58038   0.75516   0.09962   0.00000  Uiso   1.00
O629   O     0.51182   0.74768   0.27821   0.00000  Uiso   1.00
O630   O     0.47914   0.92803   0.26767   0.00000  Uiso   1.00
O631   O     0.40785   0.79917   0.23607   0.00000  Uiso   1.00
O632   O     0.60119   0.85845   0.21806   0.00000  Uiso   1.00
O633   O     0.40323   0.85627   0.27820   0.00000  Uiso   1.00
O634   O     0.58773   0.81944   0.26768   0.00000  Uiso   1.00
O635   O     0.47133   0.73570   0.23607   0.00000  Uiso   1.00
O636   O     0.53771   0.92193   0.21806   0.00000  Uiso   1.00
Zn637  Zn    0.52577   0.80756   0.28278   0.00000  Uiso   1.00
Zn638  Zn    0.46792   0.79044   0.22258   0.00000  Uiso   1.00
Zn639  Zn    0.54500   0.86331   0.21188   0.00000  Uiso   1.00
Zn640  Zn    0.46131   0.87202   0.28277   0.00000  Uiso   1.00
C641   C     0.71936   0.82716   0.25858   0.00000  Uiso   1.00
C642   C     0.86062   0.79360   0.46015   0.00000  Uiso   1.00
C643   C     0.88232   0.77481   0.48003   0.00000  Uiso   1.00
C644   C     0.94762   0.83994   0.24131   0.00000  Uiso   1.00
C645   C     0.87468   0.78361   0.02068   0.00000  Uiso   1.00
C646   C     0.84365   0.81106   0.04225   0.00000  Uiso   1.00
C647   C     0.89787   0.76507   0.03992   0.00000  Uiso   1.00
C648   C     0.89074   0.77337   0.08067   0.00000  Uiso   1.00
C649   C     0.84123   0.82362   0.08261   0.00000  Uiso   1.00
C650   C     0.99344   0.83972   0.23707   0.00000  Uiso   1.00
C651   C     0.67336   0.82506   0.26445   0.00000  Uiso   1.00
C652   C     0.76411   0.88145   0.42090   0.00000  Uiso   1.00
C653   C     0.84653   0.98877   0.23957   0.00000  Uiso   1.00
C654   C     0.81696   0.67967   0.26303   0.00000  Uiso   1.00
C655   C     0.82304   0.72300   0.25855   0.00000  Uiso   1.00
C656   C     0.84316   0.94430   0.24163   0.00000  Uiso   1.00
C657   C     0.85486   0.81190   0.14415   0.00000  Uiso   1.00
C658   C     0.81190   0.85438   0.35625   0.00000  Uiso   1.00
C659   C     0.79922   0.85990   0.39963   0.00000  Uiso   1.00
C660   C     0.86308   0.80324   0.10163   0.00000  Uiso   1.00
C661   C     0.74971   0.88357   0.46191   0.00000  Uiso   1.00
C662   C     0.99081   0.78759   0.31868   0.00000  Uiso   1.00
C663   C     0.82120   0.84153   0.41967   0.00000  Uiso   1.00
C664   C     0.95385   0.77464   0.35364   0.00000  Uiso   1.00
C665   C     0.84437   0.89419   0.09561   0.00000  Uiso   1.00
C666   C     0.81972   0.93013   0.11932   0.00000  Uiso   1.00
C667   C     0.89417   0.71436   0.10598   0.00000  Uiso   1.00
C668   C     0.91528   0.69639   0.13183   0.00000  Uiso   1.00
C669   C     0.80671   0.84102   0.46085   0.00000  Uiso   1.00
C670   C     0.76986   0.86213   0.48271   0.00000  Uiso   1.00
C671   C     0.82871   0.82046   0.48062   0.00000  Uiso   1.00
C672   C     0.81750   0.82577   0.02234   0.00000  Uiso   1.00
C673   C     0.77866   0.84252   0.04289   0.00000  Uiso   1.00
C674   C     0.75480   0.86003   0.02398   0.00000  Uiso   1.00
Cl675  Cl    0.70490   0.87522   0.05468   0.00000  Uiso   1.00
Cl676  Cl    0.76894   0.99631   0.29825   0.00000  Uiso   1.00
Cl677  Cl    0.70815   0.91604   0.48395   0.00000  Uiso   1.00
H678   H     0.92121   0.74374   0.02345   0.00000  Uiso   1.00
H679   H     0.99915   0.75927   0.29755   0.00000  Uiso   1.00
H680   H     0.92518   0.76099   0.34360   0.00000  Uiso   1.00
H681   H     0.96363   0.75105   0.36794   0.00000  Uiso   1.00
H682   H     0.94517   0.80214   0.37557   0.00000  Uiso   1.00
H683   H     0.85218   0.89832   0.06376   0.00000  Uiso   1.00
H684   H     0.87493   0.89561   0.10397   0.00000  Uiso   1.00
H685   H     0.81313   0.92803   0.15137   0.00000  Uiso   1.00
H686   H     0.83905   0.96021   0.11205   0.00000  Uiso   1.00
H687   H     0.78867   0.92909   0.11210   0.00000  Uiso   1.00
H688   H     0.89863   0.69399   0.07750   0.00000  Uiso   1.00
H689   H     0.68334   0.85059   0.21078   0.00000  Uiso   1.00
H690   H     0.85904   0.71421   0.12143   0.00000  Uiso   1.00
H691   H     0.91101   0.71602   0.16061   0.00000  Uiso   1.00
H692   H     0.90026   0.99760   0.13719   0.00000  Uiso   1.00
H693   H     0.95028   0.69538   0.11707   0.00000  Uiso   1.00
H694   H     0.87435   0.66913   0.21820   0.00000  Uiso   1.00
H695   H     0.90579   0.75371   0.46330   0.00000  Uiso   1.00
H696   H     0.74758   0.89683   0.40551   0.00000  Uiso   1.00
H697   H     0.85017   0.82827   0.40224   0.00000  Uiso   1.00
H698   H     0.76454   0.83980   0.07392   0.00000  Uiso   1.00
H699   H     0.86814   0.78460   0.42883   0.00000  Uiso   1.00
H700   H     0.68557   0.80100   0.32978   0.00000  Uiso   1.00
O701   O     0.83333   0.83333   0.25000   0.00000  Uiso   1.00
O702   O     0.82360   0.79060   0.16625   0.00000  Uiso   1.00
O703   O     0.79354   0.87313   0.33749   0.00000  Uiso   1.00
O704   O     0.87755   0.84159   0.15877   0.00000  Uiso   1.00
O705   O     0.83865   0.82802   0.33749   0.00000  Uiso   1.00
O706   O     0.97772   0.81758   0.30094   0.00000  Uiso   1.00
O707   O     0.81854   0.85628   0.10399   0.00000  Uiso   1.00
O708   O     0.91371   0.75516   0.09962   0.00000  Uiso   1.00
O709   O     0.84515   0.74768   0.27821   0.00000  Uiso   1.00
O710   O     0.81247   0.92803   0.26767   0.00000  Uiso   1.00
O711   O     0.74119   0.79917   0.23607   0.00000  Uiso   1.00
O712   O     0.93452   0.85845   0.21806   0.00000  Uiso   1.00
O713   O     0.73656   0.85627   0.27820   0.00000  Uiso   1.00
O714   O     0.92106   0.81944   0.26768   0.00000  Uiso   1.00
O715   O     0.80467   0.73570   0.23607   0.00000  Uiso   1.00
O716   O     0.87104   0.92193   0.21806   0.00000  Uiso   1.00
Zn717  Zn    0.85910   0.80756   0.28278   0.00000  Uiso   1.00
Zn718  Zn    0.80125   0.79044   0.22258   0.00000  Uiso   1.00
Zn719  Zn    0.87833   0.86331   0.21188   0.00000  Uiso   1.00
Zn720  Zn    0.79465   0.87202   0.28277   0.00000  Uiso   1.00
C721   C     0.05270   0.16049   0.75858   0.00000  Uiso   1.00
C722   C     0.19396   0.12694   0.96015   0.00000  Uiso   1.00
C723   C     0.21565   0.10815   0.98003   0.00000  Uiso   1.00
C724   C     0.28095   0.17328   0.74131   0.00000  Uiso   1.00
C725   C     0.20801   0.11694   0.52068   0.00000  Uiso   1.00
C726   C     0.17699   0.14439   0.54225   0.00000  Uiso   1.00
C727   C     0.23121   0.09841   0.53992   0.00000  Uiso   1.00
C728   C     0.22407   0.10671   0.58067   0.00000  Uiso   1.00
C729   C     0.17456   0.15695   0.58261   0.00000  Uiso   1.00
C730   C     0.32678   0.17305   0.73707   0.00000  Uiso   1.00
C731   C     0.00669   0.15840   0.76445   0.00000  Uiso   1.00
C732   C     0.09744   0.21478   0.92090   0.00000  Uiso   1.00
C733   C     0.17986   0.32210   0.73957   0.00000  Uiso   1.00
C734   C     0.15029   0.01300   0.76303   0.00000  Uiso   1.00
C735   C     0.15637   0.05634   0.75855   0.00000  Uiso   1.00
C736   C     0.17649   0.27763   0.74163   0.00000  Uiso   1.00
C737   C     0.18820   0.14523   0.64415   0.00000  Uiso   1.00
C738   C     0.14524   0.18771   0.85625   0.00000  Uiso   1.00
C739   C     0.13255   0.19323   0.89963   0.00000  Uiso   1.00
C740   C     0.19642   0.13657   0.60163   0.00000  Uiso   1.00
C741   C     0.08305   0.21691   0.96191   0.00000  Uiso   1.00
C742   C     0.32414   0.12092   0.81868   0.00000  Uiso   1.00
C743   C     0.15453   0.17486   0.91967   0.00000  Uiso   1.00
C744   C     0.28718   0.10797   0.85364   0.00000  Uiso   1.00
C745   C     0.17771   0.22753   0.59561   0.00000  Uiso   1.00
C746   C     0.15306   0.26346   0.61932   0.00000  Uiso   1.00
C747   C     0.22751   0.04770   0.60598   0.00000  Uiso   1.00
C748   C     0.24862   0.02972   0.63183   0.00000  Uiso   1.00
C749   C     0.14005   0.17435   0.96085   0.00000  Uiso   1.00
C750   C     0.10319   0.19546   0.98271   0.00000  Uiso   1.00
C751   C     0.16205   0.15379   0.98062   0.00000  Uiso   1.00
C752   C     0.15083   0.15910   0.52234   0.00000  Uiso   1.00
C753   C     0.11199   0.17586   0.54289   0.00000  Uiso   1.00
C754   C     0.08813   0.19336   0.52398   0.00000  Uiso   1.00
Cl755  Cl    0.03823   0.20856   0.55468   0.00000  Uiso   1.00
Cl756  Cl    0.10227   0.32965   0.79825   0.00000  Uiso   1.00
Cl757  Cl    0.04149   0.24937   0.98395   0.00000  Uiso   1.00
H758   H     0.25454   0.07708   0.52345   0.00000  Uiso   1.00
H759   H     0.33249   0.09261   0.79755   0.00000  Uiso   1.00
H760   H     0.25851   0.09432   0.84360   0.00000  Uiso   1.00
H761   H     0.29696   0.08439   0.86794   0.00000  Uiso   1.00
H762   H     0.27850   0.13547   0.87557   0.00000  Uiso   1.00
H763   H     0.18552   0.23165   0.56376   0.00000  Uiso   1.00
H764   H     0.20826   0.22894   0.60397   0.00000  Uiso   1.00
H765   H     0.14646   0.26137   0.65137   0.00000  Uiso   1.00
H766   H     0.17238   0.29355   0.61205   0.00000  Uiso   1.00
H767   H     0.12201   0.26242   0.61210   0.00000  Uiso   1.00
H768   H     0.23196   0.02733   0.57750   0.00000  Uiso   1.00
H769   H     0.01667   0.18392   0.71078   0.00000  Uiso   1.00
H770   H     0.19237   0.04754   0.62143   0.00000  Uiso   1.00
H771   H     0.24435   0.04936   0.66061   0.00000  Uiso   1.00
H772   H     0.23359   0.33094   0.63719   0.00000  Uiso   1.00
H773   H     0.28361   0.02871   0.61707   0.00000  Uiso   1.00
H774   H     0.20768   0.00247   0.71820   0.00000  Uiso   1.00
H775   H     0.23913   0.08705   0.96330   0.00000  Uiso   1.00
H776   H     0.08091   0.23017   0.90551   0.00000  Uiso   1.00
H777   H     0.18351   0.16160   0.90224   0.00000  Uiso   1.00
H778   H     0.09788   0.17313   0.57392   0.00000  Uiso   1.00
H779   H     0.20148   0.11794   0.92883   0.00000  Uiso   1.00
H780   H     0.01890   0.13433   0.82978   0.00000  Uiso   1.00
O781   O     0.16667   0.16667   0.75000   0.00000  Uiso   1.00
O782   O     0.15693   0.12393   0.66625   0.00000  Uiso   1.00
O783   O     0.12687   0.20646   0.83749   0.00000  Uiso   1.00
O784   O     0.21088   0.17493   0.65877   0.00000  Uiso   1.00
O785   O     0.17198   0.16135   0.83749   0.00000  Uiso   1.00
O786   O     0.31105   0.15091   0.80094   0.00000  Uiso   1.00
O787   O     0.15187   0.18961   0.60399   0.00000  Uiso   1.00
O788   O     0.24704   0.08850   0.59962   0.00000  Uiso   1.00
O789   O     0.17849   0.08101   0.77821   0.00000  Uiso   1.00
O790   O     0.14581   0.26136   0.76767   0.00000  Uiso   1.00
O791   O     0.07452   0.13251   0.73607   0.00000  Uiso   1.00
O792   O     0.26785   0.19179   0.71806   0.00000  Uiso   1.00
O793   O     0.06990   0.18960   0.77820   0.00000  Uiso   1.00
O794   O     0.25440   0.15277   0.76768   0.00000  Uiso   1.00
O795   O     0.13800   0.06903   0.73607   0.00000  Uiso   1.00
O796   O     0.20437   0.25527   0.71806   0.00000  Uiso   1.00
Zn797  Zn    0.19244   0.14090   0.78278   0.00000  Uiso   1.00
Zn798  Zn    0.13459   0.12378   0.72258   0.00000  Uiso   1.00
Zn799  Zn    0.21166   0.19664   0.71188   0.00000  Uiso   1.00
Zn800  Zn    0.12798   0.20535   0.78277   0.00000  Uiso   1.00
C801   C     0.38603   0.16049   0.75858   0.00000  Uiso   1.00
C802   C     0.52729   0.12694   0.96015   0.00000  Uiso   1.00
C803   C     0.54898   0.10815   0.98003   0.00000  Uiso   1.00
C804   C     0.61428   0.17328   0.74131   0.00000  Uiso   1.00
C805   C     0.54135   0.11694   0.52068   0.00000  Uiso   1.00
C806   C     0.51032   0.14439   0.54225   0.00000  Uiso   1.00
C807   C     0.56454   0.09841   0.53992   0.00000  Uiso   1.00
C808   C     0.55741   0.10671   0.58067   0.00000  Uiso   1.00
C809   C     0.50789   0.15695   0.58261   0.00000  Uiso   1.00
C810   C     0.66011   0.17305   0.73707   0.00000  Uiso   1.00
C811   C     0.34002   0.15840   0.76445   0.00000  Uiso   1.00
C812   C     0.43078   0.21478   0.92090   0.00000  Uiso   1.00
C813   C     0.51319   0.32210   0.73957   0.00000  Uiso   1.00
C814   C     0.48363   0.01300   0.76303   0.00000  Uiso   1.00
C815   C     0.48970   0.05634   0.75855   0.00000  Uiso   1.00
C816   C     0.50982   0.27763   0.74163   0.00000  Uiso   1.00
C817   C     0.52153   0.14523   0.64415   0.00000  Uiso   1.00
C818   C     0.47857   0.18771   0.85625   0.00000  Uiso   1.00
C819   C     0.46589   0.19323   0.89963   0.00000  Uiso   1.00
C820   C     0.52975   0.13657   0.60163   0.00000  Uiso   1.00
C821   C     0.41638   0.21691   0.96191   0.00000  Uiso   1.00
C822   C     0.65747   0.12092   0.81868   0.00000  Uiso   1.00
C823   C     0.48786   0.17486   0.91967   0.00000  Uiso   1.00
C824   C     0.62051   0.10797   0.85364   0.00000  Uiso   1.00
C825   C     0.51104   0.22753   0.59561   0.00000  Uiso   1.00
C826   C     0.48639   0.26346   0.61932   0.00000  Uiso   1.00
C827   C     0.56084   0.04770   0.60598   0.00000  Uiso   1.00
C828   C     0.58195   0.02972   0.63183   0.00000  Uiso   1.00
C829   C     0.47338   0.17435   0.96085   0.00000  Uiso   1.00
C830   C     0.43652   0.19546   0.98271   0.00000  Uiso   1.00
C831   C     0.49538   0.15379   0.98062   0.00000  Uiso   1.00
C832   C     0.48416   0.15910   0.52234   0.00000  Uiso   1.00
C833   C     0.44533   0.17586   0.54289   0.00000  Uiso   1.00
C834   C     0.42147   0.19336   0.52398   0.00000  Uiso   1.00
Cl835  Cl    0.37156   0.20856   0.55468   0.00000  Uiso   1.00
Cl836  Cl    0.43560   0.32965   0.79825   0.00000  Uiso   1.00
Cl837  Cl    0.37482   0.24937   0.98395   0.00000  Uiso   1.00
H838   H     0.58788   0.07708   0.52345   0.00000  Uiso   1.00
H839   H     0.66582   0.09261   0.79755   0.00000  Uiso   1.00
H840   H     0.59185   0.09432   0.84360   0.00000  Uiso   1.00
H841   H     0.63029   0.08439   0.86794   0.00000  Uiso   1.00
H842   H     0.61184   0.13547   0.87557   0.00000  Uiso   1.00
H843   H     0.51885   0.23165   0.56376   0.00000  Uiso   1.00
H844   H     0.54159   0.22894   0.60397   0.00000  Uiso   1.00
H845   H     0.47980   0.26137   0.65137   0.00000  Uiso   1.00
H846   H     0.50572   0.29355   0.61205   0.00000  Uiso   1.00
H847   H     0.45534   0.26242   0.61210   0.00000  Uiso   1.00
H848   H     0.56529   0.02733   0.57750   0.00000  Uiso   1.00
H849   H     0.35000   0.18392   0.71078   0.00000  Uiso   1.00
H850   H     0.52571   0.04754   0.62143   0.00000  Uiso   1.00
H851   H     0.57768   0.04936   0.66061   0.00000  Uiso   1.00
H852   H     0.56692   0.33094   0.63719   0.00000  Uiso   1.00
H853   H     0.61695   0.02871   0.61707   0.00000  Uiso   1.00
H854   H     0.54102   0.00247   0.71820   0.00000  Uiso   1.00
H855   H     0.57246   0.08705   0.96330   0.00000  Uiso   1.00
H856   H     0.41424   0.23017   0.90551   0.00000  Uiso   1.00
H857   H     0.51684   0.16160   0.90224   0.00000  Uiso   1.00
H858   H     0.43121   0.17313   0.57392   0.00000  Uiso   1.00
H859   H     0.53481   0.11794   0.92883   0.00000  Uiso   1.00
H860   H     0.35223   0.13433   0.82978   0.00000  Uiso   1.00
O861   O     0.50000   0.16667   0.75000   0.00000  Uiso   1.00
O862   O     0.49027   0.12393   0.66625   0.00000  Uiso   1.00
O863   O     0.46020   0.20646   0.83749   0.00000  Uiso   1.00
O864   O     0.54421   0.17493   0.65877   0.00000  Uiso   1.00
O865   O     0.50532   0.16135   0.83749   0.00000  Uiso   1.00
O866   O     0.64439   0.15091   0.80094   0.00000  Uiso   1.00
O867   O     0.48520   0.18961   0.60399   0.00000  Uiso   1.00
O868   O     0.58038   0.08850   0.59962   0.00000  Uiso   1.00
O869   O     0.51182   0.08101   0.77821   0.00000  Uiso   1.00
O870   O     0.47914   0.26136   0.76767   0.00000  Uiso   1.00
O871   O     0.40785   0.13251   0.73607   0.00000  Uiso   1.00
O872   O     0.60119   0.19179   0.71806   0.00000  Uiso   1.00
O873   O     0.40323   0.18960   0.77820   0.00000  Uiso   1.00
O874   O     0.58773   0.15277   0.76768   0.00000  Uiso   1.00
O875   O     0.47133   0.06903   0.73607   0.00000  Uiso   1.00
O876   O     0.53771   0.25527   0.71806   0.00000  Uiso   1.00
Zn877  Zn    0.52577   0.14090   0.78278   0.00000  Uiso   1.00
Zn878  Zn    0.46792   0.12378   0.72258   0.00000  Uiso   1.00
Zn879  Zn    0.54500   0.19664   0.71188   0.00000  Uiso   1.00
Zn880  Zn    0.46131   0.20535   0.78277   0.00000  Uiso   1.00
C881   C     0.71936   0.16049   0.75858   0.00000  Uiso   1.00
C882   C     0.86062   0.12694   0.96015   0.00000  Uiso   1.00
C883   C     0.88232   0.10815   0.98003   0.00000  Uiso   1.00
C884   C     0.94762   0.17328   0.74131   0.00000  Uiso   1.00
C885   C     0.87468   0.11694   0.52068   0.00000  Uiso   1.00
C886   C     0.84365   0.14439   0.54225   0.00000  Uiso   1.00
C887   C     0.89787   0.09841   0.53992   0.00000  Uiso   1.00
C888   C     0.89074   0.10671   0.58067   0.00000  Uiso   1.00
C889   C     0.84123   0.15695   0.58261   0.00000  Uiso   1.00
C890   C     0.99344   0.17305   0.73707   0.00000  Uiso   1.00
C891   C     0.67336   0.15840   0.76445   0.00000  Uiso   1.00
C892   C     0.76411   0.21478   0.92090   0.00000  Uiso   1.00
C893   C     0.84653   0.32210   0.73957   0.00000  Uiso   1.00
C894   C     0.81696   0.01300   0.76303   0.00000  Uiso   1.00
C895   C     0.82304   0.05634   0.75855   0.00000  Uiso   1.00
C896   C     0.84316   0.27763   0.74163   0.00000  Uiso   1.00
C897   C     0.85486   0.14523   0.64415   0.00000  Uiso   1.00
C898   C     0.81190   0.18771   0.85625   0.00000  Uiso   1.00
C899   C     0.79922   0.19323   0.89963   0.00000  Uiso   1.00
C900   C     0.86308   0.13657   0.60163   0.00000  Uiso   1.00
C901   C     0.74971   0.21691   0.96191   0.00000  Uiso   1.00
C902   C     0.99081   0.12092   0.81868   0.00000  Uiso   1.00
C903   C     0.82120   0.17486   0.91967   0.00000  Uiso   1.00
C904   C     0.95385   0.10797   0.85364   0.00000  Uiso   1.00
C905   C     0.84437   0.22753   0.59561   0.00000  Uiso   1.00
C906   C     0.81972   0.26346   0.61932   0.00000  Uiso   1.00
C907   C     0.89417   0.04770   0.60598   0.00000  Uiso   1.00
C908   C     0.91528   0.02972   0.63183   0.00000  Uiso   1.00
C909   C     0.80671   0.17435   0.96085   0.00000  Uiso   1.00
C910   C     0.76986   0.19546   0.98271   0.00000  Uiso   1.00
C911   C     0.82871   0.15379   0.98062   0.00000  Uiso   1.00
C912   C     0.81750   0.15910   0.52234   0.00000  Uiso   1.00
C913   C     0.77866   0.17586   0.54289   0.00000  Uiso   1.00
C914   C     0.75480   0.19336   0.52398   0.00000  Uiso   1.00
Cl915  Cl    0.70490   0.20856   0.55468   0.00000  Uiso   1.00
Cl916  Cl    0.76894   0.32965   0.79825   0.00000  Uiso   1.00
Cl917  Cl    0.70815   0.24937   0.98395   0.00000  Uiso   1.00
H918   H     0.92121   0.07708   0.52345   0.00000  Uiso   1.00
H919   H     0.99915   0.09261   0.79755   0.00000  Uiso   1.00
H920   H     0.92518   0.09432   0.84360   0.00000  Uiso   1.00
H921   H     0.96363   0.08439   0.86794   0.00000  Uiso   1.00
H922   H     0.94517   0.13547   0.87557   0.00000  Uiso   1.00
H923   H     0.85218   0.23165   0.56376   0.00000  Uiso   1.00
H924   H     0.87493   0.22894   0.60397   0.00000  Uiso   1.00
H925   H     0.81313   0.26137   0.65137   0.00000  Uiso   1.00
H926   H     0.83905   0.29355   0.61205   0.00000  Uiso   1.00
H927   H     0.78867   0.26242   0.61210   0.00000  Uiso   1.00
H928   H     0.89863   0.02733   0.57750   0.00000  Uiso   1.00
H929   H     0.68334   0.18392   0.71078   0.00000  Uiso   1.00
H930   H     0.85904   0.04754   0.62143   0.00000  Uiso   1.00
H931   H     0.91101   0.04936   0.66061   0.00000  Uiso   1.00
H932   H     0.90026   0.33094   0.63719   0.00000  Uiso   1.00
H933   H     0.95028   0.02871   0.61707   0.00000  Uiso   1.00
H934   H     0.87435   0.00247   0.71820   0.00000  Uiso   1.00
H935   H     0.90579   0.08705   0.96330   0.00000  Uiso   1.00
H936   H     0.74758   0.23017   0.90551   0.00000  Uiso   1.00
H937   H     0.85017   0.16160   0.90224   0.00000  Uiso   1.00
H938   H     0.76454   0.17313   0.57392   0.00000  Uiso   1.00
H939   H     0.86814   0.11794   0.92883   0.00000  Uiso   1.00
H940   H     0.68557   0.13433   0.82978   0.00000  Uiso   1.00
O941   O     0.83333   0.16667   0.75000   0.00000  Uiso   1.00
O942   O     0.82360   0.12393   0.66625   0.00000  Uiso   1.00
O943   O     0.79354   0.20646   0.83749   0.00000  Uiso   1.00
O944   O     0.87755   0.17493   0.65877   0.00000  Uiso   1.00
O945   O     0.83865   0.16135   0.83749   0.00000  Uiso   1.00
O946   O     0.97772   0.15091   0.80094   0.00000  Uiso   1.00
O947   O     0.81854   0.18961   0.60399   0.00000  Uiso   1.00
O948   O     0.91371   0.08850   0.59962   0.00000  Uiso   1.00
O949   O     0.84515   0.08101   0.77821   0.00000  Uiso   1.00
O950   O     0.81247   0.26136   0.76767   0.00000  Uiso   1.00
O951   O     0.74119   0.13251   0.73607   0.00000  Uiso   1.00
O952   O     0.93452   0.19179   0.71806   0.00000  Uiso   1.00
O953   O     0.73656   0.18960   0.77820   0.00000  Uiso   1.00
O954   O     0.92106   0.15277   0.76768   0.00000  Uiso   1.00
O955   O     0.80467   0.06903   0.73607   0.00000  Uiso   1.00
O956   O     0.87104   0.25527   0.71806   0.00000  Uiso   1.00
Zn957  Zn    0.85910   0.14090   0.78278   0.00000  Uiso   1.00
Zn958  Zn    0.80125   0.12378   0.72258   0.00000  Uiso   1.00
Zn959  Zn    0.87833   0.19664   0.71188   0.00000  Uiso   1.00
Zn960  Zn    0.79465   0.20535   0.78277   0.00000  Uiso   1.00
C961   C     0.05270   0.49382   0.75858   0.00000  Uiso   1.00
C962   C     0.19396   0.46027   0.96015   0.00000  Uiso   1.00
C963   C     0.21565   0.44148   0.98003   0.00000  Uiso   1.00
C964   C     0.28095   0.50661   0.74131   0.00000  Uiso   1.00
C965   C     0.20801   0.45027   0.52068   0.00000  Uiso   1.00
C966   C     0.17699   0.47772   0.54225   0.00000  Uiso   1.00
C967   C     0.23121   0.43174   0.53992   0.00000  Uiso   1.00
C968   C     0.22407   0.44004   0.58067   0.00000  Uiso   1.00
C969   C     0.17456   0.49029   0.58261   0.00000  Uiso   1.00
C970   C     0.32678   0.50639   0.73707   0.00000  Uiso   1.00
C971   C     0.00669   0.49173   0.76445   0.00000  Uiso   1.00
C972   C     0.09744   0.54811   0.92090   0.00000  Uiso   1.00
C973   C     0.17986   0.65543   0.73957   0.00000  Uiso   1.00
C974   C     0.15029   0.34633   0.76303   0.00000  Uiso   1.00
C975   C     0.15637   0.38967   0.75855   0.00000  Uiso   1.00
C976   C     0.17649   0.61096   0.74163   0.00000  Uiso   1.00
C977   C     0.18820   0.47857   0.64415   0.00000  Uiso   1.00
C978   C     0.14524   0.52104   0.85625   0.00000  Uiso   1.00
C979   C     0.13255   0.52657   0.89963   0.00000  Uiso   1.00
C980   C     0.19642   0.46990   0.60163   0.00000  Uiso   1.00
C981   C     0.08305   0.55024   0.96191   0.00000  Uiso   1.00
C982   C     0.32414   0.45426   0.81868   0.00000  Uiso   1.00
C983   C     0.15453   0.50820   0.91967   0.00000  Uiso   1.00
C984   C     0.28718   0.44130   0.85364   0.00000  Uiso   1.00
C985   C     0.17771   0.56086   0.59561   0.00000  Uiso   1.00
C986   C     0.15306   0.59680   0.61932   0.00000  Uiso   1.00
C987   C     0.22751   0.38103   0.60598   0.00000  Uiso   1.00
C988   C     0.24862   0.36305   0.63183   0.00000  Uiso   1.00
C989   C     0.14005   0.50768   0.96085   0.00000  Uiso   1.00
C990   C     0.10319   0.52880   0.98271   0.00000  Uiso   1.00
C991   C     0.16205   0.48712   0.98062   0.00000  Uiso   1.00
C992   C     0.15083   0.49243   0.52234   0.00000  Uiso   1.00
C993   C     0.11199   0.50919   0.54289   0.00000  Uiso   1.00
C994   C     0.08813   0.52670   0.52398   0.00000  Uiso   1.00
Cl995  Cl    0.03823   0.54189   0.55468   0.00000  Uiso   1.00
Cl996  Cl    0.10227   0.66298   0.79825   0.00000  Uiso   1.00
Cl997  Cl    0.04149   0.58271   0.98395   0.00000  Uiso   1.00
H998   H     0.25454   0.41041   0.52345   0.00000  Uiso   1.00
H999   H     0.33249   0.42594   0.79755   0.00000  Uiso   1.00
H1000  H     0.25851   0.42766   0.84360   0.00000  Uiso   1.00
H1001  H     0.29696   0.41772   0.86794   0.00000  Uiso   1.00
H1002  H     0.27850   0.46881   0.87557   0.00000  Uiso   1.00
H1003  H     0.18552   0.56498   0.56376   0.00000  Uiso   1.00
H1004  H     0.20826   0.56227   0.60397   0.00000  Uiso   1.00
H1005  H     0.14646   0.59470   0.65137   0.00000  Uiso   1.00
H1006  H     0.17238   0.62688   0.61205   0.00000  Uiso   1.00
H1007  H     0.12201   0.59575   0.61210   0.00000  Uiso   1.00
H1008  H     0.23196   0.36066   0.57750   0.00000  Uiso   1.00
H1009  H     0.01667   0.51725   0.71078   0.00000  Uiso   1.00
H1010  H     0.19237   0.38087   0.62143   0.00000  Uiso   1.00
H1011  H     0.24435   0.38269   0.66061   0.00000  Uiso   1.00
H1012  H     0.23359   0.66427   0.63719   0.00000  Uiso   1.00
H1013  H     0.28361   0.36204   0.61707   0.00000  Uiso   1.00
H1014  H     0.20768   0.33580   0.71820   0.00000  Uiso   1.00
H1015  H     0.23913   0.42038   0.96330   0.00000  Uiso   1.00
H1016  H     0.08091   0.56350   0.90551   0.00000  Uiso   1.00
H1017  H     0.18351   0.49494   0.90224   0.00000  Uiso   1.00
H1018  H     0.09788   0.50646   0.57392   0.00000  Uiso   1.00
H1019  H     0.20148   0.45127   0.92883   0.00000  Uiso   1.00
H1020  H     0.01890   0.46766   0.82978   0.00000  Uiso   1.00
O1021  O     0.16667   0.50000   0.75000   0.00000  Uiso   1.00
O1022  O     0.15693   0.45726   0.66625   0.00000  Uiso   1.00
O1023  O     0.12687   0.53979   0.83749   0.00000  Uiso   1.00
O1024  O     0.21088   0.50826   0.65877   0.00000  Uiso   1.00
O1025  O     0.17198   0.49468   0.83749   0.00000  Uiso   1.00
O1026  O     0.31105   0.48425   0.80094   0.00000  Uiso   1.00
O1027  O     0.15187   0.52294   0.60399   0.00000  Uiso   1.00
O1028  O     0.24704   0.42183   0.59962   0.00000  Uiso   1.00
O1029  O     0.17849   0.41434   0.77821   0.00000  Uiso   1.00
O1030  O     0.14581   0.59469   0.76767   0.00000  Uiso   1.00
O1031  O     0.07452   0.46584   0.73607   0.00000  Uiso   1.00
O1032  O     0.26785   0.52512   0.71806   0.00000  Uiso   1.00
O1033  O     0.06990   0.52293   0.77820   0.00000  Uiso   1.00
O1034  O     0.25440   0.48610   0.76768   0.00000  Uiso   1.00
O1035  O     0.13800   0.40236   0.73607   0.00000  Uiso   1.00
O1036  O     0.20437   0.58860   0.71806   0.00000  Uiso   1.00
Zn1037 Zn    0.19244   0.47423   0.78278   0.00000  Uiso   1.00
Zn1038 Zn    0.13459   0.45711   0.72258   0.00000  Uiso   1.00
Zn1039 Zn    0.21166   0.52997   0.71188   0.00000  Uiso   1.00
Zn1040 Zn    0.12798   0.53868   0.78277   0.00000  Uiso   1.00
C1041  C     0.38603   0.49382   0.75858   0.00000  Uiso   1.00
C1042  C     0.52729   0.46027   0.96015   0.00000  Uiso   1.00
C1043  C     0.54898   0.44148   0.98003   0.00000  Uiso   1.00
C1044  C     0.61428   0.50661   0.74131   0.00000  Uiso   1.00
C1045  C     0.54135   0.45027   0.52068   0.00000  Uiso   1.00
C1046  C     0.51032   0.47772   0.54225   0.00000  Uiso   1.00
C1047  C     0.56454   0.43174   0.53992   0.00000  Uiso   1.00
C1048  C     0.55741   0.44004   0.58067   0.00000  Uiso   1.00
C1049  C     0.50789   0.49029   0.58261   0.00000  Uiso   1.00
C1050  C     0.66011   0.50639   0.73707   0.00000  Uiso   1.00
C1051  C     0.34002   0.49173   0.76445   0.00000  Uiso   1.00
C1052  C     0.43078   0.54811   0.92090   0.00000  Uiso   1.00
C1053  C     0.51319   0.65543   0.73957   0.00000  Uiso   1.00
C1054  C     0.48363   0.34633   0.76303   0.00000  Uiso   1.00
C1055  C     0.48970   0.38967   0.75855   0.00000  Uiso   1.00
C1056  C     0.50982   0.61096   0.74163   0.00000  Uiso   1.00
C1057  C     0.52153   0.47857   0.64415   0.00000  Uiso   1.00
C1058  C     0.47857   0.52104   0.85625   0.00000  Uiso   1.00
C1059  C     0.46589   0.52657   0.89963   0.00000  Uiso   1.00
C1060  C     0.52975   0.46990   0.60163   0.00000  Uiso   1.00
C1061  C     0.41638   0.55024   0.96191   0.00000  Uiso   1.00
C1062  C     0.65747   0.45426   0.81868   0.00000  Uiso   1.00
C1063  C     0.48786   0.50820   0.91967   0.00000  Uiso   1.00
C1064  C     0.62051   0.44130   0.85364   0.00000  Uiso   1.00
C1065  C     0.51104   0.56086   0.59561   0.00000  Uiso   1.00
C1066  C     0.48639   0.59680   0.61932   0.00000  Uiso   1.00
C1067  C     0.56084   0.38103   0.60598   0.00000  Uiso   1.00
C1068  C     0.58195   0.36305   0.63183   0.00000  Uiso   1.00
C1069  C     0.47338   0.50768   0.96085   0.00000  Uiso   1.00
C1070  C     0.43652   0.52880   0.98271   0.00000  Uiso   1.00
C1071  C     0.49538   0.48712   0.98062   0.00000  Uiso   1.00
C1072  C     0.48416   0.49243   0.52234   0.00000  Uiso   1.00
C1073  C     0.44533   0.50919   0.54289   0.00000  Uiso   1.00
C1074  C     0.42147   0.52670   0.52398   0.00000  Uiso   1.00
Cl1075 Cl    0.37156   0.54189   0.55468   0.00000  Uiso   1.00
Cl1076 Cl    0.43560   0.66298   0.79825   0.00000  Uiso   1.00
Cl1077 Cl    0.37482   0.58271   0.98395   0.00000  Uiso   1.00
H1078  H     0.58788   0.41041   0.52345   0.00000  Uiso   1.00
H1079  H     0.66582   0.42594   0.79755   0.00000  Uiso   1.00
H1080  H     0.59185   0.42766   0.84360   0.00000  Uiso   1.00
H1081  H     0.63029   0.41772   0.86794   0.00000  Uiso   1.00
H1082  H     0.61184   0.46881   0.87557   0.00000  Uiso   1.00
H1083  H     0.51885   0.56498   0.56376   0.00000  Uiso   1.00
H1084  H     0.54159   0.56227   0.60397   0.00000  Uiso   1.00
H1085  H     0.47980   0.59470   0.65137   0.00000  Uiso   1.00
H1086  H     0.50572   0.62688   0.61205   0.00000  Uiso   1.00
H1087  H     0.45534   0.59575   0.61210   0.00000  Uiso   1.00
H1088  H     0.56529   0.36066   0.57750   0.00000  Uiso   1.00
H1089  H     0.35000   0.51725   0.71078   0.00000  Uiso   1.00
H1090  H     0.52571   0.38087   0.62143   0.00000  Uiso   1.00
H1091  H     0.57768   0.38269   0.66061   0.00000  Uiso   1.00
H1092  H     0.56692   0.66427   0.63719   0.00000  Uiso   1.00
H1093  H     0.61695   0.36204   0.61707   0.00000  Uiso   1.00
H1094  H     0.54102   0.33580   0.71820   0.00000  Uiso   1.00
H1095  H     0.57246   0.42038   0.96330   0.00000  Uiso   1.00
H1096  H     0.41424   0.56350   0.90551   0.00000  Uiso   1.00
H1097  H     0.51684   0.49494   0.90224   0.00000  Uiso   1.00
H1098  H     0.43121   0.50646   0.57392   0.00000  Uiso   1.00
H1099  H     0.53481   0.45127   0.92883   0.00000  Uiso   1.00
H1100  H     0.35223   0.46766   0.82978   0.00000  Uiso   1.00
O1101  O     0.50000   0.50000   0.75000   0.00000  Uiso   1.00
O1102  O     0.49027   0.45726   0.66625   0.00000  Uiso   1.00
O1103  O     0.46020   0.53979   0.83749   0.00000  Uiso   1.00
O1104  O     0.54421   0.50826   0.65877   0.00000  Uiso   1.00
O1105  O     0.50532   0.49468   0.83749   0.00000  Uiso   1.00
O1106  O     0.64439   0.48425   0.80094   0.00000  Uiso   1.00
O1107  O     0.48520   0.52294   0.60399   0.00000  Uiso   1.00
O1108  O     0.58038   0.42183   0.59962   0.00000  Uiso   1.00
O1109  O     0.51182   0.41434   0.77821   0.00000  Uiso   1.00
O1110  O     0.47914   0.59469   0.76767   0.00000  Uiso   1.00
O1111  O     0.40785   0.46584   0.73607   0.00000  Uiso   1.00
O1112  O     0.60119   0.52512   0.71806   0.00000  Uiso   1.00
O1113  O     0.40323   0.52293   0.77820   0.00000  Uiso   1.00
O1114  O     0.58773   0.48610   0.76768   0.00000  Uiso   1.00
O1115  O     0.47133   0.40236   0.73607   0.00000  Uiso   1.00
O1116  O     0.53771   0.58860   0.71806   0.00000  Uiso   1.00
Zn1117 Zn    0.52577   0.47423   0.78278   0.00000  Uiso   1.00
Zn1118 Zn    0.46792   0.45711   0.72258   0.00000  Uiso   1.00
Zn1119 Zn    0.54500   0.52997   0.71188   0.00000  Uiso   1.00
Zn1120 Zn    0.46131   0.53868   0.78277   0.00000  Uiso   1.00
C1121  C     0.71936   0.49382   0.75858   0.00000  Uiso   1.00
C1122  C     0.86062   0.46027   0.96015   0.00000  Uiso   1.00
C1123  C     0.88232   0.44148   0.98003   0.00000  Uiso   1.00
C1124  C     0.94762   0.50661   0.74131   0.00000  Uiso   1.00
C1125  C     0.87468   0.45027   0.52068   0.00000  Uiso   1.00
C1126  C     0.84365   0.47772   0.54225   0.00000  Uiso   1.00
C1127  C     0.89787   0.43174   0.53992   0.00000  Uiso   1.00
C1128  C     0.89074   0.44004   0.58067   0.00000  Uiso   1.00
C1129  C     0.84123   0.49029   0.58261   0.00000  Uiso   1.00
C1130  C     0.99344   0.50639   0.73707   0.00000  Uiso   1.00
C1131  C     0.67336   0.49173   0.76445   0.00000  Uiso   1.00
C1132  C     0.76411   0.54811   0.92090   0.00000  Uiso   1.00
C1133  C     0.84653   0.65543   0.73957   0.00000  Uiso   1.00
C1134  C     0.81696   0.34633   0.76303   0.00000  Uiso   1.00
C1135  C     0.82304   0.38967   0.75855   0.00000  Uiso   1.00
C1136  C     0.84316   0.61096   0.74163   0.00000  Uiso   1.00
C1137  C     0.85486   0.47857   0.64415   0.00000  Uiso   1.00
C1138  C     0.81190   0.52104   0.85625   0.00000  Uiso   1.00
C1139  C     0.79922   0.52657   0.89963   0.00000  Uiso   1.00
C1140  C     0.86308   0.46990   0.60163   0.00000  Uiso   1.00
C1141  C     0.74971   0.55024   0.96191   0.00000  Uiso   1.00
C1142  C     0.99081   0.45426   0.81868   0.00000  Uiso   1.00
C1143  C     0.82120   0.50820   0.91967   0.00000  Uiso   1.00
C1144  C     0.95385   0.44130   0.85364   0.00000  Uiso   1.00
C1145  C     0.84437   0.56086   0.59561   0.00000  Uiso   1.00
C1146  C     0.81972   0.59680   0.61932   0.00000  Uiso   1.00
C1147  C     0.89417   0.38103   0.60598   0.00000  Uiso   1.00
C1148  C     0.91528   0.36305   0.63183   0.00000  Uiso   1.00
C1149  C     0.80671   0.50768   0.96085   0.00000  Uiso   1.00
C1150  C     0.76986   0.52880   0.98271   0.00000  Uiso   1.00
C1151  C     0.82871   0.48712   0.98062   0.00000  Uiso   1.00
C1152  C     0.81750   0.49243   0.52234   0.00000  Uiso   1.00
C1153  C     0.77866   0.50919   0.54289   0.00000  Uiso   1.00
C1154  C     0.75480   0.52670   0.52398   0.00000  Uiso   1.00
Cl1155 Cl    0.70490   0.54189   0.55468   0.00000  Uiso   1.00
Cl1156 Cl    0.76894   0.66298   0.79825   0.00000  Uiso   1.00
Cl1157 Cl    0.70815   0.58271   0.98395   0.00000  Uiso   1.00
H1158  H     0.92121   0.41041   0.52345   0.00000  Uiso   1.00
H1159  H     0.99915   0.42594   0.79755   0.00000  Uiso   1.00
H1160  H     0.92518   0.42766   0.84360   0.00000  Uiso   1.00
H1161  H     0.96363   0.41772   0.86794   0.00000  Uiso   1.00
H1162  H     0.94517   0.46881   0.87557   0.00000  Uiso   1.00
H1163  H     0.85218   0.56498   0.56376   0.00000  Uiso   1.00
H1164  H     0.87493   0.56227   0.60397   0.00000  Uiso   1.00
H1165  H     0.81313   0.59470   0.65137   0.00000  Uiso   1.00
H1166  H     0.83905   0.62688   0.61205   0.00000  Uiso   1.00
H1167  H     0.78867   0.59575   0.61210   0.00000  Uiso   1.00
H1168  H     0.89863   0.36066   0.57750   0.00000  Uiso   1.00
H1169  H     0.68334   0.51725   0.71078   0.00000  Uiso   1.00
H1170  H     0.85904   0.38087   0.62143   0.00000  Uiso   1.00
H1171  H     0.91101   0.38269   0.66061   0.00000  Uiso   1.00
H1172  H     0.90026   0.66427   0.63719   0.00000  Uiso   1.00
H1173  H     0.95028   0.36204   0.61707   0.00000  Uiso   1.00
H1174  H     0.87435   0.33580   0.71820   0.00000  Uiso   1.00
H1175  H     0.90579   0.42038   0.96330   0.00000  Uiso   1.00
H1176  H     0.74758   0.56350   0.90551   0.00000  Uiso   1.00
H1177  H     0.85017   0.49494   0.90224   0.00000  Uiso   1.00
H1178  H     0.76454   0.50646   0.57392   0.00000  Uiso   1.00
H1179  H     0.86814   0.45127   0.92883   0.00000  Uiso   1.00
H1180  H     0.68557   0.46766   0.82978   0.00000  Uiso   1.00
O1181  O     0.83333   0.50000   0.75000   0.00000  Uiso   1.00
O1182  O     0.82360   0.45726   0.66625   0.00000  Uiso   1.00
O1183  O     0.79354   0.53979   0.83749   0.00000  Uiso   1.00
O1184  O     0.87755   0.50826   0.65877   0.00000  Uiso   1.00
O1185  O     0.83865   0.49468   0.83749   0.00000  Uiso   1.00
O1186  O     0.97772   0.48425   0.80094   0.00000  Uiso   1.00
O1187  O     0.81854   0.52294   0.60399   0.00000  Uiso   1.00
O1188  O     0.91371   0.42183   0.59962   0.00000  Uiso   1.00
O1189  O     0.84515   0.41434   0.77821   0.00000  Uiso   1.00
O1190  O     0.81247   0.59469   0.76767   0.00000  Uiso   1.00
O1191  O     0.74119   0.46584   0.73607   0.00000  Uiso   1.00
O1192  O     0.93452   0.52512   0.71806   0.00000  Uiso   1.00
O1193  O     0.73656   0.52293   0.77820   0.00000  Uiso   1.00
O1194  O     0.92106   0.48610   0.76768   0.00000  Uiso   1.00
O1195  O     0.80467   0.40236   0.73607   0.00000  Uiso   1.00
O1196  O     0.87104   0.58860   0.71806   0.00000  Uiso   1.00
Zn1197 Zn    0.85910   0.47423   0.78278   0.00000  Uiso   1.00
Zn1198 Zn    0.80125   0.45711   0.72258   0.00000  Uiso   1.00
Zn1199 Zn    0.87833   0.52997   0.71188   0.00000  Uiso   1.00
Zn1200 Zn    0.79465   0.53868   0.78277   0.00000  Uiso   1.00
C1201  C     0.05270   0.82716   0.75858   0.00000  Uiso   1.00
C1202  C     0.19396   0.79360   0.96015   0.00000  Uiso   1.00
C1203  C     0.21565   0.77481   0.98003   0.00000  Uiso   1.00
C1204  C     0.28095   0.83994   0.74131   0.00000  Uiso   1.00
C1205  C     0.20801   0.78361   0.52068   0.00000  Uiso   1.00
C1206  C     0.17699   0.81106   0.54225   0.00000  Uiso   1.00
C1207  C     0.23121   0.76507   0.53992   0.00000  Uiso   1.00
C1208  C     0.22407   0.77337   0.58067   0.00000  Uiso   1.00
C1209  C     0.17456   0.82362   0.58261   0.00000  Uiso   1.00
C1210  C     0.32678   0.83972   0.73707   0.00000  Uiso   1.00
C1211  C     0.00669   0.82506   0.76445   0.00000  Uiso   1.00
C1212  C     0.09744   0.88145   0.92090   0.00000  Uiso   1.00
C1213  C     0.17986   0.98877   0.73957   0.00000  Uiso   1.00
C1214  C     0.15029   0.67967   0.76303   0.00000  Uiso   1.00
C1215  C     0.15637   0.72300   0.75855   0.00000  Uiso   1.00
C1216  C     0.17649   0.94430   0.74163   0.00000  Uiso   1.00
C1217  C     0.18820   0.81190   0.64415   0.00000  Uiso   1.00
C1218  C     0.14524   0.85438   0.85625   0.00000  Uiso   1.00
C1219  C     0.13255   0.85990   0.89963   0.00000  Uiso   1.00
C1220  C     0.19642   0.80324   0.60163   0.00000  Uiso   1.00
C1221  C     0.08305   0.88357   0.96191   0.00000  Uiso   1.00
C1222  C     0.32414   0.78759   0.81868   0.00000  Uiso   1.00
C1223  C     0.15453   0.84153   0.91967   0.00000  Uiso   1.00
C1224  C     0.28718   0.77464   0.85364   0.00000  Uiso   1.00
C1225  C     0.17771   0.89419   0.59561   0.00000  Uiso   1.00
C1226  C     0.15306   0.93013   0.61932   0.00000  Uiso   1.00
C1227  C     0.22751   0.71436   0.60598   0.00000  Uiso   1.00
C1228  C     0.24862   0.69639   0.63183   0.00000  Uiso   1.00
C1229  C     0.14005   0.84102   0.96085   0.00000  Uiso   1.00
C1230  C     0.10319   0.86213   0.98271   0.00000  Uiso   1.00
C1231  C     0.16205   0.82046   0.98062   0.00000  Uiso   1.00
C1232  C     0.15083   0.82577   0.52234   0.00000  Uiso   1.00
C1233  C     0.11199   0.84252   0.54289   0.00000  Uiso   1.00
C1234  C     0.08813   0.86003   0.52398   0.00000  Uiso   1.00
Cl1235 Cl    0.03823   0.87522   0.55468   0.00000  Uiso   1.00
Cl1236 Cl    0.10227   0.99631   0.79825   0.00000  Uiso   1.00
Cl1237 Cl    0.04149   0.91604   0.98395   0.00000  Uiso   1.00
H1238  H     0.25454   0.74374   0.52345   0.00000  Uiso   1.00
H1239  H     0.33249   0.75927   0.79755   0.00000  Uiso   1.00
H1240  H     0.25851   0.76099   0.84360   0.00000  Uiso   1.00
H1241  H     0.29696   0.75105   0.86794   0.00000  Uiso   1.00
H1242  H     0.27850   0.80214   0.87557   0.00000  Uiso   1.00
H1243  H     0.18552   0.89832   0.56376   0.00000  Uiso   1.00
H1244  H     0.20826   0.89561   0.60397   0.00000  Uiso   1.00
H1245  H     0.14646   0.92803   0.65137   0.00000  Uiso   1.00
H1246  H     0.17238   0.96021   0.61205   0.00000  Uiso   1.00
H1247  H     0.12201   0.92909   0.61210   0.00000  Uiso   1.00
H1248  H     0.23196   0.69399   0.57750   0.00000  Uiso   1.00
H1249  H     0.01667   0.85059   0.71078   0.00000  Uiso   1.00
H1250  H     0.19237   0.71421   0.62143   0.00000  Uiso   1.00
H1251  H     0.24435   0.71602   0.66061   0.00000  Uiso   1.00
H1252  H     0.23359   0.99760   0.63719   0.00000  Uiso   1.00
H1253  H     0.28361   0.69538   0.61707   0.00000  Uiso   1.00
H1254  H     0.20768   0.66913   0.71820   0.00000  Uiso   1.00
H1255  H     0.23913   0.75371   0.96330   0.00000  Uiso   1.00
H1256  H     0.08091   0.89683   0.90551   0.00000  Uiso   1.00
H1257  H     0.18351   0.82827   0.90224   0.00000  Uiso   1.00
H1258  H     0.09788   0.83980   0.57392   0.00000  Uiso   1.00
H1259  H     0.20148   0.78460   0.92883   0.00000  Uiso   1.00
H1260  H     0.01890   0.80100   0.82978   0.00000  Uiso   1.00
O1261  O     0.16667   0.83333   0.75000   0.00000  Uiso   1.00
O1262  O     0.15693   0.79060   0.66625   0.00000  Uiso   1.00
O1263  O     0.12687   0.87313   0.83749   0.00000  Uiso   1.00
O1264  O     0.21088   0.84159   0.65877   0.00000  Uiso   1.00
O1265  O     0.17198   0.82802   0.83749   0.00000  Uiso   1.00
O1266  O     0.31105   0.81758   0.80094   0.00000  Uiso   1.00
O1267  O     0.15187   0.85628   0.60399   0.00000  Uiso   1.00
O1268  O     0.24704   0.75516   0.59962   0.00000  Uiso   1.00
O1269  O     0.17849   0.74768   0.77821   0.00000  Uiso   1.00
O1270  O     0.14581   0.92803   0.76767   0.00000  Uiso   1.00
O1271  O     0.07452   0.79917   0.73607   0.00000  Uiso   1.00
O1272  O     0.26785   0.85845   0.71806   0.00000  Uiso   1.00
O1273  O     0.06990   0.85627   0.77820   0.00000  Uiso   1.00
O1274  O     0.25440   0.81944   0.76768   0.00000  Uiso   1.00
O1275  O     0.13800   0.73570   0.73607   0.00000  Uiso   1.00
O1276  O     0.20437   0.92193   0.71806   0.00000  Uiso   1.00
Zn1277 Zn    0.19244   0.80756   0.78278   0.00000  Uiso   1.00
Zn1278 Zn    0.13459   0.79044   0.72258   0.00000  Uiso   1.00
Zn1279 Zn    0.21166   0.86331   0.71188   0.00000  Uiso   1.00
Zn1280 Zn    0.12798   0.87202   0.78277   0.00000  Uiso   1.00
C1281  C     0.38603   0.82716   0.75858   0.00000  Uiso   1.00
C1282  C     0.52729   0.79360   0.96015   0.00000  Uiso   1.00
C1283  C     0.54898   0.77481   0.98003   0.00000  Uiso   1.00
C1284  C     0.61428   0.83994   0.74131   0.00000  Uiso   1.00
C1285  C     0.54135   0.78361   0.52068   0.00000  Uiso   1.00
C1286  C     0.51032   0.81106   0.54225   0.00000  Uiso   1.00
C1287  C     0.56454   0.76507   0.53992   0.00000  Uiso   1.00
C1288  C     0.55741   0.77337   0.58067   0.00000  Uiso   1.00
C1289  C     0.50789   0.82362   0.58261   0.00000  Uiso   1.00
C1290  C     0.66011   0.83972   0.73707   0.00000  Uiso   1.00
C1291  C     0.34002   0.82506   0.76445   0.00000  Uiso   1.00
C1292  C     0.43078   0.88145   0.92090   0.00000  Uiso   1.00
C1293  C     0.51319   0.98877   0.73957   0.00000  Uiso   1.00
C1294  C     0.48363   0.67967   0.76303   0.00000  Uiso   1.00
C1295  C     0.48970   0.72300   0.75855   0.00000  Uiso   1.00
C1296  C     0.50982   0.94430   0.74163   0.00000  Uiso   1.00
C1297  C     0.52153   0.81190   0.64415   0.00000  Uiso   1.00
C1298  C     0.47857   0.85438   0.85625   0.00000  Uiso   1.00
C1299  C     0.46589   0.85990   0.89963   0.00000  Uiso   1.00
C1300  C     0.52975   0.80324   0.60163   0.00000  Uiso   1.00
C1301  C     0.41638   0.88357   0.96191   0.00000  Uiso   1.00
C1302  C     0.65747   0.78759   0.81868   0.00000  Uiso   1.00
C1303  C     0.48786   0.84153   0.91967   0.00000  Uiso   1.00
C1304  C     0.62051   0.77464   0.85364   0.00000  Uiso   1.00
C1305  C     0.51104   0.89419   0.59561   0.00000  Uiso   1.00
C1306  C     0.48639   0.93013   0.61932   0.00000  Uiso   1.00
C1307  C     0.56084   0.71436   0.60598   0.00000  Uiso   1.00
C1308  C     0.58195   0.69639   0.63183   0.00000  Uiso   1.00
C1309  C     0.47338   0.84102   0.96085   0.00000  Uiso   1.00
C1310  C     0.43652   0.86213   0.98271   0.00000  Uiso   1.00
C1311  C     0.49538   0.82046   0.98062   0.00000  Uiso   1.00
C1312  C     0.48416   0.82577   0.52234   0.00000  Uiso   1.00
C1313  C     0.44533   0.84252   0.54289   0.00000  Uiso   1.00
C1314  C     0.42147   0.86003   0.52398   0.00000  Uiso   1.00
Cl1315 Cl    0.37156   0.87522   0.55468   0.00000  Uiso   1.00
Cl1316 Cl    0.43560   0.99631   0.79825   0.00000  Uiso   1.00
Cl1317 Cl    0.37482   0.91604   0.98395   0.00000  Uiso   1.00
H1318  H     0.58788   0.74374   0.52345   0.00000  Uiso   1.00
H1319  H     0.66582   0.75927   0.79755   0.00000  Uiso   1.00
H1320  H     0.59185   0.76099   0.84360   0.00000  Uiso   1.00
H1321  H     0.63029   0.75105   0.86794   0.00000  Uiso   1.00
H1322  H     0.61184   0.80214   0.87557   0.00000  Uiso   1.00
H1323  H     0.51885   0.89832   0.56376   0.00000  Uiso   1.00
H1324  H     0.54159   0.89561   0.60397   0.00000  Uiso   1.00
H1325  H     0.47980   0.92803   0.65137   0.00000  Uiso   1.00
H1326  H     0.50572   0.96021   0.61205   0.00000  Uiso   1.00
H1327  H     0.45534   0.92909   0.61210   0.00000  Uiso   1.00
H1328  H     0.56529   0.69399   0.57750   0.00000  Uiso   1.00
H1329  H     0.35000   0.85059   0.71078   0.00000  Uiso   1.00
H1330  H     0.52571   0.71421   0.62143   0.00000  Uiso   1.00
H1331  H     0.57768   0.71602   0.66061   0.00000  Uiso   1.00
H1332  H     0.56692   0.99760   0.63719   0.00000  Uiso   1.00
H1333  H     0.61695   0.69538   0.61707   0.00000  Uiso   1.00
H1334  H     0.54102   0.66913   0.71820   0.00000  Uiso   1.00
H1335  H     0.57246   0.75371   0.96330   0.00000  Uiso   1.00
H1336  H     0.41424   0.89683   0.90551   0.00000  Uiso   1.00
H1337  H     0.51684   0.82827   0.90224   0.00000  Uiso   1.00
H1338  H     0.43121   0.83980   0.57392   0.00000  Uiso   1.00
H1339  H     0.53481   0.78460   0.92883   0.00000  Uiso   1.00
H1340  H     0.35223   0.80100   0.82978   0.00000  Uiso   1.00
O1341  O     0.50000   0.83333   0.75000   0.00000  Uiso   1.00
O1342  O     0.49027   0.79060   0.66625   0.00000  Uiso   1.00
O1343  O     0.46020   0.87313   0.83749   0.00000  Uiso   1.00
O1344  O     0.54421   0.84159   0.65877   0.00000  Uiso   1.00
O1345  O     0.50532   0.82802   0.83749   0.00000  Uiso   1.00
O1346  O     0.64439   0.81758   0.80094   0.00000  Uiso   1.00
O1347  O     0.48520   0.85628   0.60399   0.00000  Uiso   1.00
O1348  O     0.58038   0.75516   0.59962   0.00000  Uiso   1.00
O1349  O     0.51182   0.74768   0.77821   0.00000  Uiso   1.00
O1350  O     0.47914   0.92803   0.76767   0.00000  Uiso   1.00
O1351  O     0.40785   0.79917   0.73607   0.00000  Uiso   1.00
O1352  O     0.60119   0.85845   0.71806   0.00000  Uiso   1.00
O1353  O     0.40323   0.85627   0.77820   0.00000  Uiso   1.00
O1354  O     0.58773   0.81944   0.76768   0.00000  Uiso   1.00
O1355  O     0.47133   0.73570   0.73607   0.00000  Uiso   1.00
O1356  O     0.53771   0.92193   0.71806   0.00000  Uiso   1.00
Zn1357 Zn    0.52577   0.80756   0.78278   0.00000  Uiso   1.00
Zn1358 Zn    0.46792   0.79044   0.72258   0.00000  Uiso   1.00
Zn1359 Zn    0.54500   0.86331   0.71188   0.00000  Uiso   1.00
Zn1360 Zn    0.46131   0.87202   0.78277   0.00000  Uiso   1.00
C1361  C     0.71936   0.82716   0.75858   0.00000  Uiso   1.00
C1362  C     0.86062   0.79360   0.96015   0.00000  Uiso   1.00
C1363  C     0.88232   0.77481   0.98003   0.00000  Uiso   1.00
C1364  C     0.94762   0.83994   0.74131   0.00000  Uiso   1.00
C1365  C     0.87468   0.78361   0.52068   0.00000  Uiso   1.00
C1366  C     0.84365   0.81106   0.54225   0.00000  Uiso   1.00
C1367  C     0.89787   0.76507   0.53992   0.00000  Uiso   1.00
C1368  C     0.89074   0.77337   0.58067   0.00000  Uiso   1.00
C1369  C     0.84123   0.82362   0.58261   0.00000  Uiso   1.00
C1370  C     0.99344   0.83972   0.73707   0.00000  Uiso   1.00
C1371  C     0.67336   0.82506   0.76445   0.00000  Uiso   1.00
C1372  C     0.76411   0.88145   0.92090   0.00000  Uiso   1.00
C1373  C     0.84653   0.98877   0.73957   0.00000  Uiso   1.00
C1374  C     0.81696   0.67967   0.76303   0.00000  Uiso   1.00
C1375  C     0.82304   0.72300   0.75855   0.00000  Uiso   1.00
C1376  C     0.84316   0.94430   0.74163   0.00000  Uiso   1.00
C1377  C     0.85486   0.81190   0.64415   0.00000  Uiso   1.00
C1378  C     0.81190   0.85438   0.85625   0.00000  Uiso   1.00
C1379  C     0.79922   0.85990   0.89963   0.00000  Uiso   1.00
C1380  C     0.86308   0.80324   0.60163   0.00000  Uiso   1.00
C1381  C     0.74971   0.88357   0.96191   0.00000  Uiso   1.00
C1382  C     0.99081   0.78759   0.81868   0.00000  Uiso   1.00
C1383  C     0.82120   0.84153   0.91967   0.00000  Uiso   1.00
C1384  C     0.95385   0.77464   0.85364   0.00000  Uiso   1.00
C1385  C     0.84437   0.89419   0.59561   0.00000  Uiso   1.00
C1386  C     0.81972   0.93013   0.61932   0.00000  Uiso   1.00
C1387  C     0.89417   0.71436   0.60598   0.00000  Uiso   1.00
C1388  C     0.91528   0.69639   0.63183   0.00000  Uiso   1.00
C1389  C     0.80671   0.84102   0.96085   0.00000  Uiso   1.00
C1390  C     0.76986   0.86213   0.98271   0.00000  Uiso   1.00
C1391  C     0.82871   0.82046   0.98062   0.00000  Uiso   1.00
C1392  C     0.81750   0.82577   0.52234   0.00000  Uiso   1.00
C1393  C     0.77866   0.84252   0.54289   0.00000  Uiso   1.00
C1394  C     0.75480   0.86003   0.52398   0.00000  Uiso   1.00
Cl1395 Cl    0.70490   0.87522   0.55468   0.00000  Uiso   1.00
Cl1396 Cl    0.76894   0.99631   0.79825   0.00000  Uiso   1.00
Cl1397 Cl    0.70815   0.91604   0.98395   0.00000  Uiso   1.00
H1398  H     0.92121   0.74374   0.52345   0.00000  Uiso   1.00
H1399  H     0.99915   0.75927   0.79755   0.00000  Uiso   1.00
H1400  H     0.92518   0.76099   0.84360   0.00000  Uiso   1.00
H1401  H     0.96363   0.75105   0.86794   0.00000  Uiso   1.00
H1402  H     0.94517   0.80214   0.87557   0.00000  Uiso   1.00
H1403  H     0.85218   0.89832   0.56376   0.00000  Uiso   1.00
H1404  H     0.87493   0.89561   0.60397   0.00000  Uiso   1.00
H1405  H     0.81313   0.92803   0.65137   0.00000  Uiso   1.00
H1406  H     0.83905   0.96021   0.61205   0.00000  Uiso   1.00
H1407  H     0.78867   0.92909   0.61210   0.00000  Uiso   1.00
H1408  H     0.89863   0.69399   0.57750   0.00000  Uiso   1.00
H1409  H     0.68334   0.85059   0.71078   0.00000  Uiso   1.00
H1410  H     0.85904   0.71421   0.62143   0.00000  Uiso   1.00
H1411  H     0.91101   0.71602   0.66061   0.00000  Uiso   1.00
H1412  H     0.90026   0.99760   0.63719   0.00000  Uiso   1.00
H1413  H     0.95028   0.69538   0.61707   0.00000  Uiso   1.00
H1414  H     0.87435   0.66913   0.71820   0.00000  Uiso   1.00
H1415  H     0.90579   0.75371   0.96330   0.00000  Uiso   1.00
H1416  H     0.74758   0.89683   0.90551   0.00000  Uiso   1.00
H1417  H     0.85017   0.82827   0.90224   0.00000  Uiso   1.00
H1418  H     0.76454   0.83980   0.57392   0.00000  Uiso   1.00
H1419  H     0.86814   0.78460   0.92883   0.00000  Uiso   1.00
H1420  H     0.68557   0.80100   0.82978   0.00000  Uiso   1.00
O1421  O     0.83333   0.83333   0.75000   0.00000  Uiso   1.00
O1422  O     0.82360   0.79060   0.66625   0.00000  Uiso   1.00
O1423  O     0.79354   0.87313   0.83749   0.00000  Uiso   1.00
O1424  O     0.87755   0.84159   0.65877   0.00000  Uiso   1.00
O1425  O     0.83865   0.82802   0.83749   0.00000  Uiso   1.00
O1426  O     0.97772   0.81758   0.80094   0.00000  Uiso   1.00
O1427  O     0.81854   0.85628   0.60399   0.00000  Uiso   1.00
O1428  O     0.91371   0.75516   0.59962   0.00000  Uiso   1.00
O1429  O     0.84515   0.74768   0.77821   0.00000  Uiso   1.00
O1430  O     0.81247   0.92803   0.76767   0.00000  Uiso   1.00
O1431  O     0.74119   0.79917   0.73607   0.00000  Uiso   1.00
O1432  O     0.93452   0.85845   0.71806   0.00000  Uiso   1.00
O1433  O     0.73656   0.85627   0.77820   0.00000  Uiso   1.00
O1434  O     0.92106   0.81944   0.76768   0.00000  Uiso   1.00
O1435  O     0.80467   0.73570   0.73607   0.00000  Uiso   1.00
O1436  O     0.87104   0.92193   0.71806   0.00000  Uiso   1.00
Zn1437 Zn    0.85910   0.80756   0.78278   0.00000  Uiso   1.00
Zn1438 Zn    0.80125   0.79044   0.72258   0.00000  Uiso   1.00
Zn1439 Zn    0.87833   0.86331   0.71188   0.00000  Uiso   1.00
Zn1440 Zn    0.79465   0.87202   0.78277   0.00000  Uiso   1.00
loop_
_geom_bond_atom_site_label_1
_geom_bond_atom_site_label_2
_geom_bond_distance
_geom_bond_site_symmetry_2
_ccdc_geom_bond_type
C1     O71     1.272   .     A
C1     C11     1.446   .     S
C1     O73     1.263   .     A
C2     H59     1.077   .     S
C2     C31     1.417   .     A
C2     C3      1.387   .     A
C3     H55     1.084   .     S
C3     C725    1.392   .     S
C4     O74     1.275   .     A
C4     C10     1.458   .     S
C4     O72     1.290   .     A
C5     C6      1.419   .     A
C5     C7      1.401   .     A
C5     C723    1.392   1_554 S
C6     C9      1.421   .     A
C6     C32     1.426   .     A
C7     C8      1.395   .     A
C7     H38     1.084   .     S
C8     C20     1.400   .     A
C8     O68     1.383   .     S
C9     O67     1.385   .     S
C9     C20     1.400   .     A
C10    C91     1.346   .     S
C10    H129    1.088   .     S
C11    C170    1.346   1_455 S
C11    O226    1.398   1_455 S
C12    C21     1.395   .     A
C12    H56     1.084   .     S
C12    C19     1.393   .     A
C13    C16     1.450   .     S
C13    C254    1.343   .     S
C13    H294    1.088   .     S
C14    C15     1.425   .     S
C14    C493    1.343   1_545 S
C14    Cl516   1.770   1_545 S
C15    O75     1.274   .     A
C15    O69     1.277   .     A
C16    O70     1.263   .     A
C16    O76     1.275   .     A
C17    O64     1.279   .     A
C17    C20     1.454   .     S
C17    O62     1.278   .     A
C18    O65     1.284   .     A
C18    C19     1.471   .     S
C18    O63     1.280   .     A
C19    C23     1.390   .     A
C21    C30     1.428   .     A
C21    Cl37    1.764   .     S
C22    O66     1.413   .     S
C22    C24     1.522   .     S
C22    H39     1.115   .     S
C22    H140    1.113   .     S
C23    C29     1.407   .     A
C23    H57     1.076   .     S
C24    H42     1.111   .     S
C24    H41     1.110   .     S
C24    H40     1.111   .     S
C25    O67     1.412   .     S
C25    H43     1.114   .     S
C25    H44     1.114   .     S
C25    C26     1.521   .     S
C26    H45     1.111   .     S
C26    H47     1.111   .     S
C26    H46     1.110   .     S
C27    H48     1.113   .     S
C27    O68     1.412   .     S
C27    H50     1.116   .     S
C27    C28     1.521   .     S
C28    H51     1.111   .     S
C28    H53     1.111   .     S
C28    H532    1.110   1_545 S
C29    C30     1.433   .     A
C29    C31     1.426   .     A
C30    C754    1.418   .     S
C31    C752    1.416   .     S
C32    C33     1.404   .     A
C32    C751    1.416   1_554 S
C33    H58     1.079   .     S
C33    C34     1.390   .     A
C34    Cl35    1.765   .     S
C34    C750    1.418   1_554 S
Cl36   C254    1.770   .     S
H49    C170    1.088   1_455 S
H52    C268    1.110   .     S
H54    C493    1.088   1_545 S
H60    C182    1.113   1_455 S
O61    Zn80    1.924   .     S
O61    Zn77    1.961   .     S
O61    Zn78    1.950   .     S
O61    Zn79    1.942   .     S
O62    Zn78    1.927   .     S
O63    Zn80    1.938   .     S
O64    Zn79    1.931   .     S
O65    Zn77    1.920   .     S
O66    C91     1.398   .     S
O69    Zn77    1.936   .     S
O70    Zn80    1.941   .     S
O71    Zn78    1.927   .     S
O72    Zn79    1.939   .     S
O73    Zn80    1.940   .     S
O74    Zn77    1.930   .     S
O75    Zn78    1.942   .     S
O76    Zn79    1.933   .     S
C81    O151    1.272   .     A
C81    C91     1.446   .     S
C81    O153    1.263   .     A
C82    H139    1.077   .     S
C82    C111    1.417   .     A
C82    C83     1.387   .     A
C83    H135    1.084   .     S
C83    C805    1.392   .     S
C84    O154    1.275   .     A
C84    C90     1.458   .     S
C84    O152    1.290   .     A
C85    C86     1.419   .     A
C85    C87     1.401   .     A
C85    C803    1.392   1_554 S
C86    C89     1.421   .     A
C86    C112    1.426   .     A
C87    C88     1.395   .     A
C87    H118    1.084   .     S
C88    C100    1.400   .     A
C88    O148    1.383   .     S
C89    O147    1.385   .     S
C89    C100    1.400   .     A
C90    C171    1.346   .     S
C90    H209    1.088   .     S
C92    C101    1.395   .     A
C92    H136    1.084   .     S
C92    C99     1.393   .     A
C93    C96     1.450   .     S
C93    C334    1.343   .     S
C93    H374    1.088   .     S
C94    C95     1.425   .     S
C94    C573    1.343   1_545 S
C94    Cl596   1.770   1_545 S
C95    O155    1.274   .     A
C95    O149    1.277   .     A
C96    O150    1.263   .     A
C96    O156    1.275   .     A
C97    O144    1.279   .     A
C97    C100    1.454   .     S
C97    O142    1.278   .     A
C98    O145    1.284   .     A
C98    C99     1.471   .     S
C98    O143    1.280   .     A
C99    C103    1.390   .     A
C101   C110    1.428   .     A
C101   Cl117   1.764   .     S
C102   O146    1.413   .     S
C102   C104    1.522   .     S
C102   H119    1.115   .     S
C102   H220    1.113   .     S
C103   C109    1.407   .     A
C103   H137    1.076   .     S
C104   H122    1.111   .     S
C104   H121    1.110   .     S
C104   H120    1.111   .     S
C105   O147    1.412   .     S
C105   H123    1.114   .     S
C105   H124    1.114   .     S
C105   C106    1.521   .     S
C106   H125    1.111   .     S
C106   H127    1.111   .     S
C106   H126    1.110   .     S
C107   H128    1.113   .     S
C107   O148    1.412   .     S
C107   H130    1.116   .     S
C107   C108    1.521   .     S
C108   H131    1.111   .     S
C108   H133    1.111   .     S
C108   H612    1.110   1_545 S
C109   C110    1.433   .     A
C109   C111    1.426   .     A
C110   C834    1.418   .     S
C111   C832    1.416   .     S
C112   C113    1.404   .     A
C112   C831    1.416   1_554 S
C113   H138    1.079   .     S
C113   C114    1.390   .     A
C114   Cl115   1.765   .     S
C114   C830    1.418   1_554 S
Cl116  C334    1.770   .     S
H132   C348    1.110   .     S
H134   C573    1.088   1_545 S
O141   Zn160   1.924   .     S
O141   Zn157   1.961   .     S
O141   Zn158   1.950   .     S
O141   Zn159   1.942   .     S
O142   Zn158   1.927   .     S
O143   Zn160   1.938   .     S
O144   Zn159   1.931   .     S
O145   Zn157   1.920   .     S
O146   C171    1.398   .     S
O149   Zn157   1.936   .     S
O150   Zn160   1.941   .     S
O151   Zn158   1.927   .     S
O152   Zn159   1.939   .     S
O153   Zn160   1.940   .     S
O154   Zn157   1.930   .     S
O155   Zn158   1.942   .     S
O156   Zn159   1.933   .     S
C161   O231    1.272   .     A
C161   C171    1.446   .     S
C161   O233    1.263   .     A
C162   H219    1.077   .     S
C162   C191    1.417   .     A
C162   C163    1.387   .     A
C163   H215    1.084   .     S
C163   C885    1.392   .     S
C164   O234    1.275   .     A
C164   C170    1.458   .     S
C164   O232    1.290   .     A
C165   C166    1.419   .     A
C165   C167    1.401   .     A
C165   C883    1.392   1_554 S
C166   C169    1.421   .     A
C166   C192    1.426   .     A
C167   C168    1.395   .     A
C167   H198    1.084   .     S
C168   C180    1.400   .     A
C168   O228    1.383   .     S
C169   O227    1.385   .     S
C169   C180    1.400   .     A
C170   C11     1.346   1_655 S
C170   H49     1.088   1_655 S
C172   C181    1.395   .     A
C172   H216    1.084   .     S
C172   C179    1.393   .     A
C173   C176    1.450   .     S
C173   C414    1.343   .     S
C173   H454    1.088   .     S
C174   C175    1.425   .     S
C174   C653    1.343   1_545 S
C174   Cl676   1.770   1_545 S
C175   O235    1.274   .     A
C175   O229    1.277   .     A
C176   O230    1.263   .     A
C176   O236    1.275   .     A
C177   O224    1.279   .     A
C177   C180    1.454   .     S
C177   O222    1.278   .     A
C178   O225    1.284   .     A
C178   C179    1.471   .     S
C178   O223    1.280   .     A
C179   C183    1.390   .     A
C181   C190    1.428   .     A
C181   Cl197   1.764   .     S
C182   O226    1.413   .     S
C182   C184    1.522   .     S
C182   H199    1.115   .     S
C182   H60     1.113   1_655 S
C183   C189    1.407   .     A
C183   H217    1.076   .     S
C184   H202    1.111   .     S
C184   H201    1.110   .     S
C184   H200    1.111   .     S
C185   O227    1.412   .     S
C185   H203    1.114   .     S
C185   H204    1.114   .     S
C185   C186    1.521   .     S
C186   H205    1.111   .     S
C186   H207    1.111   .     S
C186   H206    1.110   .     S
C187   H208    1.113   .     S
C187   O228    1.412   .     S
C187   H210    1.116   .     S
C187   C188    1.521   .     S
C188   H211    1.111   .     S
C188   H213    1.111   .     S
C188   H692    1.110   1_545 S
C189   C190    1.433   .     A
C189   C191    1.426   .     A
C190   C914    1.418   .     S
C191   C912    1.416   .     S
C192   C193    1.404   .     A
C192   C911    1.416   1_554 S
C193   H218    1.079   .     S
C193   C194    1.390   .     A
C194   Cl195   1.765   .     S
C194   C910    1.418   1_554 S
Cl196  C414    1.770   .     S
H212   C428    1.110   .     S
H214   C653    1.088   1_545 S
O221   Zn240   1.924   .     S
O221   Zn237   1.961   .     S
O221   Zn238   1.950   .     S
O221   Zn239   1.942   .     S
O222   Zn238   1.927   .     S
O223   Zn240   1.938   .     S
O224   Zn239   1.931   .     S
O225   Zn237   1.920   .     S
O226   C11     1.398   1_655 S
O229   Zn237   1.936   .     S
O230   Zn240   1.941   .     S
O231   Zn238   1.927   .     S
O232   Zn239   1.939   .     S
O233   Zn240   1.940   .     S
O234   Zn237   1.930   .     S
O235   Zn238   1.942   .     S
O236   Zn239   1.933   .     S
C241   O311    1.272   .     A
C241   C251    1.446   .     S
C241   O313    1.263   .     A
C242   H299    1.077   .     S
C242   C271    1.417   .     A
C242   C243    1.387   .     A
C243   H295    1.084   .     S
C243   C965    1.392   .     S
C244   O314    1.275   .     A
C244   C250    1.458   .     S
C244   O312    1.290   .     A
C245   C246    1.419   .     A
C245   C247    1.401   .     A
C245   C963    1.392   1_554 S
C246   C249    1.421   .     A
C246   C272    1.426   .     A
C247   C248    1.395   .     A
C247   H278    1.084   .     S
C248   C260    1.400   .     A
C248   O308    1.383   .     S
C249   O307    1.385   .     S
C249   C260    1.400   .     A
C250   C331    1.346   .     S
C250   H369    1.088   .     S
C251   C410    1.346   1_455 S
C251   O466    1.398   1_455 S
C252   C261    1.395   .     A
C252   H296    1.084   .     S
C252   C259    1.393   .     A
C253   C256    1.450   .     S
C253   C494    1.343   .     S
C253   H534    1.088   .     S
C254   C255    1.425   .     S
C255   O315    1.274   .     A
C255   O309    1.277   .     A
C256   O310    1.263   .     A
C256   O316    1.275   .     A
C257   O304    1.279   .     A
C257   C260    1.454   .     S
C257   O302    1.278   .     A
C258   O305    1.284   .     A
C258   C259    1.471   .     S
C258   O303    1.280   .     A
C259   C263    1.390   .     A
C261   C270    1.428   .     A
C261   Cl277   1.764   .     S
C262   O306    1.413   .     S
C262   C264    1.522   .     S
C262   H279    1.115   .     S
C262   H380    1.113   .     S
C263   C269    1.407   .     A
C263   H297    1.076   .     S
C264   H282    1.111   .     S
C264   H281    1.110   .     S
C264   H280    1.111   .     S
C265   O307    1.412   .     S
C265   H283    1.114   .     S
C265   H284    1.114   .     S
C265   C266    1.521   .     S
C266   H285    1.111   .     S
C266   H287    1.111   .     S
C266   H286    1.110   .     S
C267   H288    1.113   .     S
C267   O308    1.412   .     S
C267   H290    1.116   .     S
C267   C268    1.521   .     S
C268   H291    1.111   .     S
C268   H293    1.111   .     S
C269   C270    1.433   .     A
C269   C271    1.426   .     A
C270   C994    1.418   .     S
C271   C992    1.416   .     S
C272   C273    1.404   .     A
C272   C991    1.416   1_554 S
C273   H298    1.079   .     S
C273   C274    1.390   .     A
C274   Cl275   1.765   .     S
C274   C990    1.418   1_554 S
Cl276  C494    1.770   .     S
H289   C410    1.088   1_455 S
H292   C508    1.110   .     S
H300   C422    1.113   1_455 S
O301   Zn320   1.924   .     S
O301   Zn317   1.961   .     S
O301   Zn318   1.950   .     S
O301   Zn319   1.942   .     S
O302   Zn318   1.927   .     S
O303   Zn320   1.938   .     S
O304   Zn319   1.931   .     S
O305   Zn317   1.920   .     S
O306   C331    1.398   .     S
O309   Zn317   1.936   .     S
O310   Zn320   1.941   .     S
O311   Zn318   1.927   .     S
O312   Zn319   1.939   .     S
O313   Zn320   1.940   .     S
O314   Zn317   1.930   .     S
O315   Zn318   1.942   .     S
O316   Zn319   1.933   .     S
C321   O391    1.272   .     A
C321   C331    1.446   .     S
C321   O393    1.263   .     A
C322   H379    1.077   .     S
C322   C351    1.417   .     A
C322   C323    1.387   .     A
C323   H375    1.084   .     S
C323   C1045   1.392   .     S
C324   O394    1.275   .     A
C324   C330    1.458   .     S
C324   O392    1.290   .     A
C325   C326    1.419   .     A
C325   C327    1.401   .     A
C325   C1043   1.392   1_554 S
C326   C329    1.421   .     A
C326   C352    1.426   .     A
C327   C328    1.395   .     A
C327   H358    1.084   .     S
C328   C340    1.400   .     A
C328   O388    1.383   .     S
C329   O387    1.385   .     S
C329   C340    1.400   .     A
C330   C411    1.346   .     S
C330   H449    1.088   .     S
C332   C341    1.395   .     A
C332   H376    1.084   .     S
C332   C339    1.393   .     A
C333   C336    1.450   .     S
C333   C574    1.343   .     S
C333   H614    1.088   .     S
C334   C335    1.425   .     S
C335   O395    1.274   .     A
C335   O389    1.277   .     A
C336   O390    1.263   .     A
C336   O396    1.275   .     A
C337   O384    1.279   .     A
C337   C340    1.454   .     S
C337   O382    1.278   .     A
C338   O385    1.284   .     A
C338   C339    1.471   .     S
C338   O383    1.280   .     A
C339   C343    1.390   .     A
C341   C350    1.428   .     A
C341   Cl357   1.764   .     S
C342   O386    1.413   .     S
C342   C344    1.522   .     S
C342   H359    1.115   .     S
C342   H460    1.113   .     S
C343   C349    1.407   .     A
C343   H377    1.076   .     S
C344   H362    1.111   .     S
C344   H361    1.110   .     S
C344   H360    1.111   .     S
C345   O387    1.412   .     S
C345   H363    1.114   .     S
C345   H364    1.114   .     S
C345   C346    1.521   .     S
C346   H365    1.111   .     S
C346   H367    1.111   .     S
C346   H366    1.110   .     S
C347   H368    1.113   .     S
C347   O388    1.412   .     S
C347   H370    1.116   .     S
C347   C348    1.521   .     S
C348   H371    1.111   .     S
C348   H373    1.111   .     S
C349   C350    1.433   .     A
C349   C351    1.426   .     A
C350   C1074   1.418   .     S
C351   C1072   1.416   .     S
C352   C353    1.404   .     A
C352   C1071   1.416   1_554 S
C353   H378    1.079   .     S
C353   C354    1.390   .     A
C354   Cl355   1.765   .     S
C354   C1070   1.418   1_554 S
Cl356  C574    1.770   .     S
H372   C588    1.110   .     S
O381   Zn400   1.924   .     S
O381   Zn397   1.961   .     S
O381   Zn398   1.950   .     S
O381   Zn399   1.942   .     S
O382   Zn398   1.927   .     S
O383   Zn400   1.938   .     S
O384   Zn399   1.931   .     S
O385   Zn397   1.920   .     S
O386   C411    1.398   .     S
O389   Zn397   1.936   .     S
O390   Zn400   1.941   .     S
O391   Zn398   1.927   .     S
O392   Zn399   1.939   .     S
O393   Zn400   1.940   .     S
O394   Zn397   1.930   .     S
O395   Zn398   1.942   .     S
O396   Zn399   1.933   .     S
C401   O471    1.272   .     A
C401   C411    1.446   .     S
C401   O473    1.263   .     A
C402   H459    1.077   .     S
C402   C431    1.417   .     A
C402   C403    1.387   .     A
C403   H455    1.084   .     S
C403   C1125   1.392   .     S
C404   O474    1.275   .     A
C404   C410    1.458   .     S
C404   O472    1.290   .     A
C405   C406    1.419   .     A
C405   C407    1.401   .     A
C405   C1123   1.392   1_554 S
C406   C409    1.421   .     A
C406   C432    1.426   .     A
C407   C408    1.395   .     A
C407   H438    1.084   .     S
C408   C420    1.400   .     A
C408   O468    1.383   .     S
C409   O467    1.385   .     S
C409   C420    1.400   .     A
C410   C251    1.346   1_655 S
C410   H289    1.088   1_655 S
C412   C421    1.395   .     A
C412   H456    1.084   .     S
C412   C419    1.393   .     A
C413   C416    1.450   .     S
C413   C654    1.343   .     S
C413   H694    1.088   .     S
C414   C415    1.425   .     S
C415   O475    1.274   .     A
C415   O469    1.277   .     A
C416   O470    1.263   .     A
C416   O476    1.275   .     A
C417   O464    1.279   .     A
C417   C420    1.454   .     S
C417   O462    1.278   .     A
C418   O465    1.284   .     A
C418   C419    1.471   .     S
C418   O463    1.280   .     A
C419   C423    1.390   .     A
C421   C430    1.428   .     A
C421   Cl437   1.764   .     S
C422   O466    1.413   .     S
C422   C424    1.522   .     S
C422   H439    1.115   .     S
C422   H300    1.113   1_655 S
C423   C429    1.407   .     A
C423   H457    1.076   .     S
C424   H442    1.111   .     S
C424   H441    1.110   .     S
C424   H440    1.111   .     S
C425   O467    1.412   .     S
C425   H443    1.114   .     S
C425   H444    1.114   .     S
C425   C426    1.521   .     S
C426   H445    1.111   .     S
C426   H447    1.111   .     S
C426   H446    1.110   .     S
C427   H448    1.113   .     S
C427   O468    1.412   .     S
C427   H450    1.116   .     S
C427   C428    1.521   .     S
C428   H451    1.111   .     S
C428   H453    1.111   .     S
C429   C430    1.433   .     A
C429   C431    1.426   .     A
C430   C1154   1.418   .     S
C431   C1152   1.416   .     S
C432   C433    1.404   .     A
C432   C1151   1.416   1_554 S
C433   H458    1.079   .     S
C433   C434    1.390   .     A
C434   Cl435   1.765   .     S
C434   C1150   1.418   1_554 S
Cl436  C654    1.770   .     S
H452   C668    1.110   .     S
O461   Zn480   1.924   .     S
O461   Zn477   1.961   .     S
O461   Zn478   1.950   .     S
O461   Zn479   1.942   .     S
O462   Zn478   1.927   .     S
O463   Zn480   1.938   .     S
O464   Zn479   1.931   .     S
O465   Zn477   1.920   .     S
O466   C251    1.398   1_655 S
O469   Zn477   1.936   .     S
O470   Zn480   1.941   .     S
O471   Zn478   1.927   .     S
O472   Zn479   1.939   .     S
O473   Zn480   1.940   .     S
O474   Zn477   1.930   .     S
O475   Zn478   1.942   .     S
O476   Zn479   1.933   .     S
C481   O551    1.272   .     A
C481   C491    1.446   .     S
C481   O553    1.263   .     A
C482   H539    1.077   .     S
C482   C511    1.417   .     A
C482   C483    1.387   .     A
C483   H535    1.084   .     S
C483   C1205   1.392   .     S
C484   O554    1.275   .     A
C484   C490    1.458   .     S
C484   O552    1.290   .     A
C485   C486    1.419   .     A
C485   C487    1.401   .     A
C485   C1203   1.392   1_554 S
C486   C489    1.421   .     A
C486   C512    1.426   .     A
C487   C488    1.395   .     A
C487   H518    1.084   .     S
C488   C500    1.400   .     A
C488   O548    1.383   .     S
C489   O547    1.385   .     S
C489   C500    1.400   .     A
C490   C571    1.346   .     S
C490   H609    1.088   .     S
C491   C650    1.346   1_455 S
C491   O706    1.398   1_455 S
C492   C501    1.395   .     A
C492   H536    1.084   .     S
C492   C499    1.393   .     A
C493   C496    1.450   .     S
C493   C14     1.343   1_565 S
C493   H54     1.088   1_565 S
C494   C495    1.425   .     S
C495   O555    1.274   .     A
C495   O549    1.277   .     A
C496   O550    1.263   .     A
C496   O556    1.275   .     A
C497   O544    1.279   .     A
C497   C500    1.454   .     S
C497   O542    1.278   .     A
C498   O545    1.284   .     A
C498   C499    1.471   .     S
C498   O543    1.280   .     A
C499   C503    1.390   .     A
C501   C510    1.428   .     A
C501   Cl517   1.764   .     S
C502   O546    1.413   .     S
C502   C504    1.522   .     S
C502   H519    1.115   .     S
C502   H620    1.113   .     S
C503   C509    1.407   .     A
C503   H537    1.076   .     S
C504   H522    1.111   .     S
C504   H521    1.110   .     S
C504   H520    1.111   .     S
C505   O547    1.412   .     S
C505   H523    1.114   .     S
C505   H524    1.114   .     S
C505   C506    1.521   .     S
C506   H525    1.111   .     S
C506   H527    1.111   .     S
C506   H526    1.110   .     S
C507   H528    1.113   .     S
C507   O548    1.412   .     S
C507   H530    1.116   .     S
C507   C508    1.521   .     S
C508   H531    1.111   .     S
C508   H533    1.111   .     S
C509   C510    1.433   .     A
C509   C511    1.426   .     A
C510   C1234   1.418   .     S
C511   C1232   1.416   .     S
C512   C513    1.404   .     A
C512   C1231   1.416   1_554 S
C513   H538    1.079   .     S
C513   C514    1.390   .     A
C514   Cl515   1.765   .     S
C514   C1230   1.418   1_554 S
Cl516  C14     1.770   1_565 S
H529   C650    1.088   1_455 S
H532   C28     1.110   1_565 S
H540   C662    1.113   1_455 S
O541   Zn560   1.924   .     S
O541   Zn557   1.961   .     S
O541   Zn558   1.950   .     S
O541   Zn559   1.942   .     S
O542   Zn558   1.927   .     S
O543   Zn560   1.938   .     S
O544   Zn559   1.931   .     S
O545   Zn557   1.920   .     S
O546   C571    1.398   .     S
O549   Zn557   1.936   .     S
O550   Zn560   1.941   .     S
O551   Zn558   1.927   .     S
O552   Zn559   1.939   .     S
O553   Zn560   1.940   .     S
O554   Zn557   1.930   .     S
O555   Zn558   1.942   .     S
O556   Zn559   1.933   .     S
C561   O631    1.272   .     A
C561   C571    1.446   .     S
C561   O633    1.263   .     A
C562   H619    1.077   .     S
C562   C591    1.417   .     A
C562   C563    1.387   .     A
C563   H615    1.084   .     S
C563   C1285   1.392   .     S
C564   O634    1.275   .     A
C564   C570    1.458   .     S
C564   O632    1.290   .     A
C565   C566    1.419   .     A
C565   C567    1.401   .     A
C565   C1283   1.392   1_554 S
C566   C569    1.421   .     A
C566   C592    1.426   .     A
C567   C568    1.395   .     A
C567   H598    1.084   .     S
C568   C580    1.400   .     A
C568   O628    1.383   .     S
C569   O627    1.385   .     S
C569   C580    1.400   .     A
C570   C651    1.346   .     S
C570   H689    1.088   .     S
C572   C581    1.395   .     A
C572   H616    1.084   .     S
C572   C579    1.393   .     A
C573   C576    1.450   .     S
C573   C94     1.343   1_565 S
C573   H134    1.088   1_565 S
C574   C575    1.425   .     S
C575   O635    1.274   .     A
C575   O629    1.277   .     A
C576   O630    1.263   .     A
C576   O636    1.275   .     A
C577   O624    1.279   .     A
C577   C580    1.454   .     S
C577   O622    1.278   .     A
C578   O625    1.284   .     A
C578   C579    1.471   .     S
C578   O623    1.280   .     A
C579   C583    1.390   .     A
C581   C590    1.428   .     A
C581   Cl597   1.764   .     S
C582   O626    1.413   .     S
C582   C584    1.522   .     S
C582   H599    1.115   .     S
C582   H700    1.113   .     S
C583   C589    1.407   .     A
C583   H617    1.076   .     S
C584   H602    1.111   .     S
C584   H601    1.110   .     S
C584   H600    1.111   .     S
C585   O627    1.412   .     S
C585   H603    1.114   .     S
C585   H604    1.114   .     S
C585   C586    1.521   .     S
C586   H605    1.111   .     S
C586   H607    1.111   .     S
C586   H606    1.110   .     S
C587   H608    1.113   .     S
C587   O628    1.412   .     S
C587   H610    1.116   .     S
C587   C588    1.521   .     S
C588   H611    1.111   .     S
C588   H613    1.111   .     S
C589   C590    1.433   .     A
C589   C591    1.426   .     A
C590   C1314   1.418   .     S
C591   C1312   1.416   .     S
C592   C593    1.404   .     A
C592   C1311   1.416   1_554 S
C593   H618    1.079   .     S
C593   C594    1.390   .     A
C594   Cl595   1.765   .     S
C594   C1310   1.418   1_554 S
Cl596  C94     1.770   1_565 S
H612   C108    1.110   1_565 S
O621   Zn640   1.924   .     S
O621   Zn637   1.961   .     S
O621   Zn638   1.950   .     S
O621   Zn639   1.942   .     S
O622   Zn638   1.927   .     S
O623   Zn640   1.938   .     S
O624   Zn639   1.931   .     S
O625   Zn637   1.920   .     S
O626   C651    1.398   .     S
O629   Zn637   1.936   .     S
O630   Zn640   1.941   .     S
O631   Zn638   1.927   .     S
O632   Zn639   1.939   .     S
O633   Zn640   1.940   .     S
O634   Zn637   1.930   .     S
O635   Zn638   1.942   .     S
O636   Zn639   1.933   .     S
C641   O711    1.272   .     A
C641   C651    1.446   .     S
C641   O713    1.263   .     A
C642   H699    1.077   .     S
C642   C671    1.417   .     A
C642   C643    1.387   .     A
C643   H695    1.084   .     S
C643   C1365   1.392   .     S
C644   O714    1.275   .     A
C644   C650    1.458   .     S
C644   O712    1.290   .     A
C645   C646    1.419   .     A
C645   C647    1.401   .     A
C645   C1363   1.392   1_554 S
C646   C649    1.421   .     A
C646   C672    1.426   .     A
C647   C648    1.395   .     A
C647   H678    1.084   .     S
C648   C660    1.400   .     A
C648   O708    1.383   .     S
C649   O707    1.385   .     S
C649   C660    1.400   .     A
C650   C491    1.346   1_655 S
C650   H529    1.088   1_655 S
C652   C661    1.395   .     A
C652   H696    1.084   .     S
C652   C659    1.393   .     A
C653   C656    1.450   .     S
C653   C174    1.343   1_565 S
C653   H214    1.088   1_565 S
C654   C655    1.425   .     S
C655   O715    1.274   .     A
C655   O709    1.277   .     A
C656   O710    1.263   .     A
C656   O716    1.275   .     A
C657   O704    1.279   .     A
C657   C660    1.454   .     S
C657   O702    1.278   .     A
C658   O705    1.284   .     A
C658   C659    1.471   .     S
C658   O703    1.280   .     A
C659   C663    1.390   .     A
C661   C670    1.428   .     A
C661   Cl677   1.764   .     S
C662   O706    1.413   .     S
C662   C664    1.522   .     S
C662   H679    1.115   .     S
C662   H540    1.113   1_655 S
C663   C669    1.407   .     A
C663   H697    1.076   .     S
C664   H682    1.111   .     S
C664   H681    1.110   .     S
C664   H680    1.111   .     S
C665   O707    1.412   .     S
C665   H683    1.114   .     S
C665   H684    1.114   .     S
C665   C666    1.521   .     S
C666   H685    1.111   .     S
C666   H687    1.111   .     S
C666   H686    1.110   .     S
C667   H688    1.113   .     S
C667   O708    1.412   .     S
C667   H690    1.116   .     S
C667   C668    1.521   .     S
C668   H691    1.111   .     S
C668   H693    1.111   .     S
C669   C670    1.433   .     A
C669   C671    1.426   .     A
C670   C1394   1.418   .     S
C671   C1392   1.416   .     S
C672   C673    1.404   .     A
C672   C1391   1.416   1_554 S
C673   H698    1.079   .     S
C673   C674    1.390   .     A
C674   Cl675   1.765   .     S
C674   C1390   1.418   1_554 S
Cl676  C174    1.770   1_565 S
H692   C188    1.110   1_565 S
O701   Zn720   1.924   .     S
O701   Zn717   1.961   .     S
O701   Zn718   1.950   .     S
O701   Zn719   1.942   .     S
O702   Zn718   1.927   .     S
O703   Zn720   1.938   .     S
O704   Zn719   1.931   .     S
O705   Zn717   1.920   .     S
O706   C491    1.398   1_655 S
O709   Zn717   1.936   .     S
O710   Zn720   1.941   .     S
O711   Zn718   1.927   .     S
O712   Zn719   1.939   .     S
O713   Zn720   1.940   .     S
O714   Zn717   1.930   .     S
O715   Zn718   1.942   .     S
O716   Zn719   1.933   .     S
C721   O791    1.272   .     A
C721   C731    1.446   .     S
C721   O793    1.263   .     A
C722   H779    1.077   .     S
C722   C751    1.417   .     A
C722   C723    1.387   .     A
C723   H775    1.084   .     S
C723   C5      1.392   1_556 S
C724   O794    1.275   .     A
C724   C730    1.458   .     S
C724   O792    1.290   .     A
C725   C726    1.419   .     A
C725   C727    1.401   .     A
C726   C729    1.421   .     A
C726   C752    1.426   .     A
C727   C728    1.395   .     A
C727   H758    1.084   .     S
C728   C740    1.400   .     A
C728   O788    1.383   .     S
C729   O787    1.385   .     S
C729   C740    1.400   .     A
C730   C811    1.346   .     S
C730   H849    1.088   .     S
C731   C890    1.346   1_455 S
C731   O946    1.398   1_455 S
C732   C741    1.395   .     A
C732   H776    1.084   .     S
C732   C739    1.393   .     A
C733   C736    1.450   .     S
C733   C974    1.343   .     S
C733   H1014   1.088   .     S
C734   C735    1.425   .     S
C734   C1213   1.343   1_545 S
C734   Cl1236  1.770   1_545 S
C735   O795    1.274   .     A
C735   O789    1.277   .     A
C736   O790    1.263   .     A
C736   O796    1.275   .     A
C737   O784    1.279   .     A
C737   C740    1.454   .     S
C737   O782    1.278   .     A
C738   O785    1.284   .     A
C738   C739    1.471   .     S
C738   O783    1.280   .     A
C739   C743    1.390   .     A
C741   C750    1.428   .     A
C741   Cl757   1.764   .     S
C742   O786    1.413   .     S
C742   C744    1.522   .     S
C742   H759    1.115   .     S
C742   H860    1.113   .     S
C743   C749    1.407   .     A
C743   H777    1.076   .     S
C744   H762    1.111   .     S
C744   H761    1.110   .     S
C744   H760    1.111   .     S
C745   O787    1.412   .     S
C745   H763    1.114   .     S
C745   H764    1.114   .     S
C745   C746    1.521   .     S
C746   H765    1.111   .     S
C746   H767    1.111   .     S
C746   H766    1.110   .     S
C747   H768    1.113   .     S
C747   O788    1.412   .     S
C747   H770    1.116   .     S
C747   C748    1.521   .     S
C748   H771    1.111   .     S
C748   H773    1.111   .     S
C748   H1252   1.110   1_545 S
C749   C750    1.433   .     A
C749   C751    1.426   .     A
C750   C34     1.418   1_556 S
C751   C32     1.416   1_556 S
C752   C753    1.404   .     A
C753   H778    1.079   .     S
C753   C754    1.390   .     A
C754   Cl755   1.765   .     S
Cl756  C974    1.770   .     S
H769   C890    1.088   1_455 S
H772   C988    1.110   .     S
H774   C1213   1.088   1_545 S
H780   C902    1.113   1_455 S
O781   Zn800   1.924   .     S
O781   Zn797   1.961   .     S
O781   Zn798   1.950   .     S
O781   Zn799   1.942   .     S
O782   Zn798   1.927   .     S
O783   Zn800   1.938   .     S
O784   Zn799   1.931   .     S
O785   Zn797   1.920   .     S
O786   C811    1.398   .     S
O789   Zn797   1.936   .     S
O790   Zn800   1.941   .     S
O791   Zn798   1.927   .     S
O792   Zn799   1.939   .     S
O793   Zn800   1.940   .     S
O794   Zn797   1.930   .     S
O795   Zn798   1.942   .     S
O796   Zn799   1.933   .     S
C801   O871    1.272   .     A
C801   C811    1.446   .     S
C801   O873    1.263   .     A
C802   H859    1.077   .     S
C802   C831    1.417   .     A
C802   C803    1.387   .     A
C803   H855    1.084   .     S
C803   C85     1.392   1_556 S
C804   O874    1.275   .     A
C804   C810    1.458   .     S
C804   O872    1.290   .     A
C805   C806    1.419   .     A
C805   C807    1.401   .     A
C806   C809    1.421   .     A
C806   C832    1.426   .     A
C807   C808    1.395   .     A
C807   H838    1.084   .     S
C808   C820    1.400   .     A
C808   O868    1.383   .     S
C809   O867    1.385   .     S
C809   C820    1.400   .     A
C810   C891    1.346   .     S
C810   H929    1.088   .     S
C812   C821    1.395   .     A
C812   H856    1.084   .     S
C812   C819    1.393   .     A
C813   C816    1.450   .     S
C813   C1054   1.343   .     S
C813   H1094   1.088   .     S
C814   C815    1.425   .     S
C814   C1293   1.343   1_545 S
C814   Cl1316  1.770   1_545 S
C815   O875    1.274   .     A
C815   O869    1.277   .     A
C816   O870    1.263   .     A
C816   O876    1.275   .     A
C817   O864    1.279   .     A
C817   C820    1.454   .     S
C817   O862    1.278   .     A
C818   O865    1.284   .     A
C818   C819    1.471   .     S
C818   O863    1.280   .     A
C819   C823    1.390   .     A
C821   C830    1.428   .     A
C821   Cl837   1.764   .     S
C822   O866    1.413   .     S
C822   C824    1.522   .     S
C822   H839    1.115   .     S
C822   H940    1.113   .     S
C823   C829    1.407   .     A
C823   H857    1.076   .     S
C824   H842    1.111   .     S
C824   H841    1.110   .     S
C824   H840    1.111   .     S
C825   O867    1.412   .     S
C825   H843    1.114   .     S
C825   H844    1.114   .     S
C825   C826    1.521   .     S
C826   H845    1.111   .     S
C826   H847    1.111   .     S
C826   H846    1.110   .     S
C827   H848    1.113   .     S
C827   O868    1.412   .     S
C827   H850    1.116   .     S
C827   C828    1.521   .     S
C828   H851    1.111   .     S
C828   H853    1.111   .     S
C828   H1332   1.110   1_545 S
C829   C830    1.433   .     A
C829   C831    1.426   .     A
C830   C114    1.418   1_556 S
C831   C112    1.416   1_556 S
C832   C833    1.404   .     A
C833   H858    1.079   .     S
C833   C834    1.390   .     A
C834   Cl835   1.765   .     S
Cl836  C1054   1.770   .     S
H852   C1068   1.110   .     S
H854   C1293   1.088   1_545 S
O861   Zn880   1.924   .     S
O861   Zn877   1.961   .     S
O861   Zn878   1.950   .     S
O861   Zn879   1.942   .     S
O862   Zn878   1.927   .     S
O863   Zn880   1.938   .     S
O864   Zn879   1.931   .     S
O865   Zn877   1.920   .     S
O866   C891    1.398   .     S
O869   Zn877   1.936   .     S
O870   Zn880   1.941   .     S
O871   Zn878   1.927   .     S
O872   Zn879   1.939   .     S
O873   Zn880   1.940   .     S
O874   Zn877   1.930   .     S
O875   Zn878   1.942   .     S
O876   Zn879   1.933   .     S
C881   O951    1.272   .     A
C881   C891    1.446   .     S
C881   O953    1.263   .     A
C882   H939    1.077   .     S
C882   C911    1.417   .     A
C882   C883    1.387   .     A
C883   H935    1.084   .     S
C883   C165    1.392   1_556 S
C884   O954    1.275   .     A
C884   C890    1.458   .     S
C884   O952    1.290   .     A
C885   C886    1.419   .     A
C885   C887    1.401   .     A
C886   C889    1.421   .     A
C886   C912    1.426   .     A
C887   C888    1.395   .     A
C887   H918    1.084   .     S
C888   C900    1.400   .     A
C888   O948    1.383   .     S
C889   O947    1.385   .     S
C889   C900    1.400   .     A
C890   C731    1.346   1_655 S
C890   H769    1.088   1_655 S
C892   C901    1.395   .     A
C892   H936    1.084   .     S
C892   C899    1.393   .     A
C893   C896    1.450   .     S
C893   C1134   1.343   .     S
C893   H1174   1.088   .     S
C894   C895    1.425   .     S
C894   C1373   1.343   1_545 S
C894   Cl1396  1.770   1_545 S
C895   O955    1.274   .     A
C895   O949    1.277   .     A
C896   O950    1.263   .     A
C896   O956    1.275   .     A
C897   O944    1.279   .     A
C897   C900    1.454   .     S
C897   O942    1.278   .     A
C898   O945    1.284   .     A
C898   C899    1.471   .     S
C898   O943    1.280   .     A
C899   C903    1.390   .     A
C901   C910    1.428   .     A
C901   Cl917   1.764   .     S
C902   O946    1.413   .     S
C902   C904    1.522   .     S
C902   H919    1.115   .     S
C902   H780    1.113   1_655 S
C903   C909    1.407   .     A
C903   H937    1.076   .     S
C904   H922    1.111   .     S
C904   H921    1.110   .     S
C904   H920    1.111   .     S
C905   O947    1.412   .     S
C905   H923    1.114   .     S
C905   H924    1.114   .     S
C905   C906    1.521   .     S
C906   H925    1.111   .     S
C906   H927    1.111   .     S
C906   H926    1.110   .     S
C907   H928    1.113   .     S
C907   O948    1.412   .     S
C907   H930    1.116   .     S
C907   C908    1.521   .     S
C908   H931    1.111   .     S
C908   H933    1.111   .     S
C908   H1412   1.110   1_545 S
C909   C910    1.433   .     A
C909   C911    1.426   .     A
C910   C194    1.418   1_556 S
C911   C192    1.416   1_556 S
C912   C913    1.404   .     A
C913   H938    1.079   .     S
C913   C914    1.390   .     A
C914   Cl915   1.765   .     S
Cl916  C1134   1.770   .     S
H932   C1148   1.110   .     S
H934   C1373   1.088   1_545 S
O941   Zn960   1.924   .     S
O941   Zn957   1.961   .     S
O941   Zn958   1.950   .     S
O941   Zn959   1.942   .     S
O942   Zn958   1.927   .     S
O943   Zn960   1.938   .     S
O944   Zn959   1.931   .     S
O945   Zn957   1.920   .     S
O946   C731    1.398   1_655 S
O949   Zn957   1.936   .     S
O950   Zn960   1.941   .     S
O951   Zn958   1.927   .     S
O952   Zn959   1.939   .     S
O953   Zn960   1.940   .     S
O954   Zn957   1.930   .     S
O955   Zn958   1.942   .     S
O956   Zn959   1.933   .     S
C961   O1031   1.272   .     A
C961   C971    1.446   .     S
C961   O1033   1.263   .     A
C962   H1019   1.077   .     S
C962   C991    1.417   .     A
C962   C963    1.387   .     A
C963   H1015   1.084   .     S
C963   C245    1.392   1_556 S
C964   O1034   1.275   .     A
C964   C970    1.458   .     S
C964   O1032   1.290   .     A
C965   C966    1.419   .     A
C965   C967    1.401   .     A
C966   C969    1.421   .     A
C966   C992    1.426   .     A
C967   C968    1.395   .     A
C967   H998    1.084   .     S
C968   C980    1.400   .     A
C968   O1028   1.383   .     S
C969   O1027   1.385   .     S
C969   C980    1.400   .     A
C970   C1051   1.346   .     S
C970   H1089   1.088   .     S
C971   C1130   1.346   1_455 S
C971   O1186   1.398   1_455 S
C972   C981    1.395   .     A
C972   H1016   1.084   .     S
C972   C979    1.393   .     A
C973   C976    1.450   .     S
C973   C1214   1.343   .     S
C973   H1254   1.088   .     S
C974   C975    1.425   .     S
C975   O1035   1.274   .     A
C975   O1029   1.277   .     A
C976   O1030   1.263   .     A
C976   O1036   1.275   .     A
C977   O1024   1.279   .     A
C977   C980    1.454   .     S
C977   O1022   1.278   .     A
C978   O1025   1.284   .     A
C978   C979    1.471   .     S
C978   O1023   1.280   .     A
C979   C983    1.390   .     A
C981   C990    1.428   .     A
C981   Cl997   1.764   .     S
C982   O1026   1.413   .     S
C982   C984    1.522   .     S
C982   H999    1.115   .     S
C982   H1100   1.113   .     S
C983   C989    1.407   .     A
C983   H1017   1.076   .     S
C984   H1002   1.111   .     S
C984   H1001   1.110   .     S
C984   H1000   1.111   .     S
C985   O1027   1.412   .     S
C985   H1003   1.114   .     S
C985   H1004   1.114   .     S
C985   C986    1.521   .     S
C986   H1005   1.111   .     S
C986   H1007   1.111   .     S
C986   H1006   1.110   .     S
C987   H1008   1.113   .     S
C987   O1028   1.412   .     S
C987   H1010   1.116   .     S
C987   C988    1.521   .     S
C988   H1011   1.111   .     S
C988   H1013   1.111   .     S
C989   C990    1.433   .     A
C989   C991    1.426   .     A
C990   C274    1.418   1_556 S
C991   C272    1.416   1_556 S
C992   C993    1.404   .     A
C993   H1018   1.079   .     S
C993   C994    1.390   .     A
C994   Cl995   1.765   .     S
Cl996  C1214   1.770   .     S
H1009  C1130   1.088   1_455 S
H1012  C1228   1.110   .     S
H1020  C1142   1.113   1_455 S
O1021  Zn1040  1.924   .     S
O1021  Zn1037  1.961   .     S
O1021  Zn1038  1.950   .     S
O1021  Zn1039  1.942   .     S
O1022  Zn1038  1.927   .     S
O1023  Zn1040  1.938   .     S
O1024  Zn1039  1.931   .     S
O1025  Zn1037  1.920   .     S
O1026  C1051   1.398   .     S
O1029  Zn1037  1.936   .     S
O1030  Zn1040  1.941   .     S
O1031  Zn1038  1.927   .     S
O1032  Zn1039  1.939   .     S
O1033  Zn1040  1.940   .     S
O1034  Zn1037  1.930   .     S
O1035  Zn1038  1.942   .     S
O1036  Zn1039  1.933   .     S
C1041  O1111   1.272   .     A
C1041  C1051   1.446   .     S
C1041  O1113   1.263   .     A
C1042  H1099   1.077   .     S
C1042  C1071   1.417   .     A
C1042  C1043   1.387   .     A
C1043  H1095   1.084   .     S
C1043  C325    1.392   1_556 S
C1044  O1114   1.275   .     A
C1044  C1050   1.458   .     S
C1044  O1112   1.290   .     A
C1045  C1046   1.419   .     A
C1045  C1047   1.401   .     A
C1046  C1049   1.421   .     A
C1046  C1072   1.426   .     A
C1047  C1048   1.395   .     A
C1047  H1078   1.084   .     S
C1048  C1060   1.400   .     A
C1048  O1108   1.383   .     S
C1049  O1107   1.385   .     S
C1049  C1060   1.400   .     A
C1050  C1131   1.346   .     S
C1050  H1169   1.088   .     S
C1052  C1061   1.395   .     A
C1052  H1096   1.084   .     S
C1052  C1059   1.393   .     A
C1053  C1056   1.450   .     S
C1053  C1294   1.343   .     S
C1053  H1334   1.088   .     S
C1054  C1055   1.425   .     S
C1055  O1115   1.274   .     A
C1055  O1109   1.277   .     A
C1056  O1110   1.263   .     A
C1056  O1116   1.275   .     A
C1057  O1104   1.279   .     A
C1057  C1060   1.454   .     S
C1057  O1102   1.278   .     A
C1058  O1105   1.284   .     A
C1058  C1059   1.471   .     S
C1058  O1103   1.280   .     A
C1059  C1063   1.390   .     A
C1061  C1070   1.428   .     A
C1061  Cl1077  1.764   .     S
C1062  O1106   1.413   .     S
C1062  C1064   1.522   .     S
C1062  H1079   1.115   .     S
C1062  H1180   1.113   .     S
C1063  C1069   1.407   .     A
C1063  H1097   1.076   .     S
C1064  H1082   1.111   .     S
C1064  H1081   1.110   .     S
C1064  H1080   1.111   .     S
C1065  O1107   1.412   .     S
C1065  H1083   1.114   .     S
C1065  H1084   1.114   .     S
C1065  C1066   1.521   .     S
C1066  H1085   1.111   .     S
C1066  H1087   1.111   .     S
C1066  H1086   1.110   .     S
C1067  H1088   1.113   .     S
C1067  O1108   1.412   .     S
C1067  H1090   1.116   .     S
C1067  C1068   1.521   .     S
C1068  H1091   1.111   .     S
C1068  H1093   1.111   .     S
C1069  C1070   1.433   .     A
C1069  C1071   1.426   .     A
C1070  C354    1.418   1_556 S
C1071  C352    1.416   1_556 S
C1072  C1073   1.404   .     A
C1073  H1098   1.079   .     S
C1073  C1074   1.390   .     A
C1074  Cl1075  1.765   .     S
Cl1076 C1294   1.770   .     S
H1092  C1308   1.110   .     S
O1101  Zn1120  1.924   .     S
O1101  Zn1117  1.961   .     S
O1101  Zn1118  1.950   .     S
O1101  Zn1119  1.942   .     S
O1102  Zn1118  1.927   .     S
O1103  Zn1120  1.938   .     S
O1104  Zn1119  1.931   .     S
O1105  Zn1117  1.920   .     S
O1106  C1131   1.398   .     S
O1109  Zn1117  1.936   .     S
O1110  Zn1120  1.941   .     S
O1111  Zn1118  1.927   .     S
O1112  Zn1119  1.939   .     S
O1113  Zn1120  1.940   .     S
O1114  Zn1117  1.930   .     S
O1115  Zn1118  1.942   .     S
O1116  Zn1119  1.933   .     S
C1121  O1191   1.272   .     A
C1121  C1131   1.446   .     S
C1121  O1193   1.263   .     A
C1122  H1179   1.077   .     S
C1122  C1151   1.417   .     A
C1122  C1123   1.387   .     A
C1123  H1175   1.084   .     S
C1123  C405    1.392   1_556 S
C1124  O1194   1.275   .     A
C1124  C1130   1.458   .     S
C1124  O1192   1.290   .     A
C1125  C1126   1.419   .     A
C1125  C1127   1.401   .     A
C1126  C1129   1.421   .     A
C1126  C1152   1.426   .     A
C1127  C1128   1.395   .     A
C1127  H1158   1.084   .     S
C1128  C1140   1.400   .     A
C1128  O1188   1.383   .     S
C1129  O1187   1.385   .     S
C1129  C1140   1.400   .     A
C1130  C971    1.346   1_655 S
C1130  H1009   1.088   1_655 S
C1132  C1141   1.395   .     A
C1132  H1176   1.084   .     S
C1132  C1139   1.393   .     A
C1133  C1136   1.450   .     S
C1133  C1374   1.343   .     S
C1133  H1414   1.088   .     S
C1134  C1135   1.425   .     S
C1135  O1195   1.274   .     A
C1135  O1189   1.277   .     A
C1136  O1190   1.263   .     A
C1136  O1196   1.275   .     A
C1137  O1184   1.279   .     A
C1137  C1140   1.454   .     S
C1137  O1182   1.278   .     A
C1138  O1185   1.284   .     A
C1138  C1139   1.471   .     S
C1138  O1183   1.280   .     A
C1139  C1143   1.390   .     A
C1141  C1150   1.428   .     A
C1141  Cl1157  1.764   .     S
C1142  O1186   1.413   .     S
C1142  C1144   1.522   .     S
C1142  H1159   1.115   .     S
C1142  H1020   1.113   1_655 S
C1143  C1149   1.407   .     A
C1143  H1177   1.076   .     S
C1144  H1162   1.111   .     S
C1144  H1161   1.110   .     S
C1144  H1160   1.111   .     S
C1145  O1187   1.412   .     S
C1145  H1163   1.114   .     S
C1145  H1164   1.114   .     S
C1145  C1146   1.521   .     S
C1146  H1165   1.111   .     S
C1146  H1167   1.111   .     S
C1146  H1166   1.110   .     S
C1147  H1168   1.113   .     S
C1147  O1188   1.412   .     S
C1147  H1170   1.116   .     S
C1147  C1148   1.521   .     S
C1148  H1171   1.111   .     S
C1148  H1173   1.111   .     S
C1149  C1150   1.433   .     A
C1149  C1151   1.426   .     A
C1150  C434    1.418   1_556 S
C1151  C432    1.416   1_556 S
C1152  C1153   1.404   .     A
C1153  H1178   1.079   .     S
C1153  C1154   1.390   .     A
C1154  Cl1155  1.765   .     S
Cl1156 C1374   1.770   .     S
H1172  C1388   1.110   .     S
O1181  Zn1200  1.924   .     S
O1181  Zn1197  1.961   .     S
O1181  Zn1198  1.950   .     S
O1181  Zn1199  1.942   .     S
O1182  Zn1198  1.927   .     S
O1183  Zn1200  1.938   .     S
O1184  Zn1199  1.931   .     S
O1185  Zn1197  1.920   .     S
O1186  C971    1.398   1_655 S
O1189  Zn1197  1.936   .     S
O1190  Zn1200  1.941   .     S
O1191  Zn1198  1.927   .     S
O1192  Zn1199  1.939   .     S
O1193  Zn1200  1.940   .     S
O1194  Zn1197  1.930   .     S
O1195  Zn1198  1.942   .     S
O1196  Zn1199  1.933   .     S
C1201  O1271   1.272   .     A
C1201  C1211   1.446   .     S
C1201  O1273   1.263   .     A
C1202  H1259   1.077   .     S
C1202  C1231   1.417   .     A
C1202  C1203   1.387   .     A
C1203  H1255   1.084   .     S
C1203  C485    1.392   1_556 S
C1204  O1274   1.275   .     A
C1204  C1210   1.458   .     S
C1204  O1272   1.290   .     A
C1205  C1206   1.419   .     A
C1205  C1207   1.401   .     A
C1206  C1209   1.421   .     A
C1206  C1232   1.426   .     A
C1207  C1208   1.395   .     A
C1207  H1238   1.084   .     S
C1208  C1220   1.400   .     A
C1208  O1268   1.383   .     S
C1209  O1267   1.385   .     S
C1209  C1220   1.400   .     A
C1210  C1291   1.346   .     S
C1210  H1329   1.088   .     S
C1211  C1370   1.346   1_455 S
C1211  O1426   1.398   1_455 S
C1212  C1221   1.395   .     A
C1212  H1256   1.084   .     S
C1212  C1219   1.393   .     A
C1213  C1216   1.450   .     S
C1213  C734    1.343   1_565 S
C1213  H774    1.088   1_565 S
C1214  C1215   1.425   .     S
C1215  O1275   1.274   .     A
C1215  O1269   1.277   .     A
C1216  O1270   1.263   .     A
C1216  O1276   1.275   .     A
C1217  O1264   1.279   .     A
C1217  C1220   1.454   .     S
C1217  O1262   1.278   .     A
C1218  O1265   1.284   .     A
C1218  C1219   1.471   .     S
C1218  O1263   1.280   .     A
C1219  C1223   1.390   .     A
C1221  C1230   1.428   .     A
C1221  Cl1237  1.764   .     S
C1222  O1266   1.413   .     S
C1222  C1224   1.522   .     S
C1222  H1239   1.115   .     S
C1222  H1340   1.113   .     S
C1223  C1229   1.407   .     A
C1223  H1257   1.076   .     S
C1224  H1242   1.111   .     S
C1224  H1241   1.110   .     S
C1224  H1240   1.111   .     S
C1225  O1267   1.412   .     S
C1225  H1243   1.114   .     S
C1225  H1244   1.114   .     S
C1225  C1226   1.521   .     S
C1226  H1245   1.111   .     S
C1226  H1247   1.111   .     S
C1226  H1246   1.110   .     S
C1227  H1248   1.113   .     S
C1227  O1268   1.412   .     S
C1227  H1250   1.116   .     S
C1227  C1228   1.521   .     S
C1228  H1251   1.111   .     S
C1228  H1253   1.111   .     S
C1229  C1230   1.433   .     A
C1229  C1231   1.426   .     A
C1230  C514    1.418   1_556 S
C1231  C512    1.416   1_556 S
C1232  C1233   1.404   .     A
C1233  H1258   1.079   .     S
C1233  C1234   1.390   .     A
C1234  Cl1235  1.765   .     S
Cl1236 C734    1.770   1_565 S
H1249  C1370   1.088   1_455 S
H1252  C748    1.110   1_565 S
H1260  C1382   1.113   1_455 S
O1261  Zn1280  1.924   .     S
O1261  Zn1277  1.961   .     S
O1261  Zn1278  1.950   .     S
O1261  Zn1279  1.942   .     S
O1262  Zn1278  1.927   .     S
O1263  Zn1280  1.938   .     S
O1264  Zn1279  1.931   .     S
O1265  Zn1277  1.920   .     S
O1266  C1291   1.398   .     S
O1269  Zn1277  1.936   .     S
O1270  Zn1280  1.941   .     S
O1271  Zn1278  1.927   .     S
O1272  Zn1279  1.939   .     S
O1273  Zn1280  1.940   .     S
O1274  Zn1277  1.930   .     S
O1275  Zn1278  1.942   .     S
O1276  Zn1279  1.933   .     S
C1281  O1351   1.272   .     A
C1281  C1291   1.446   .     S
C1281  O1353   1.263   .     A
C1282  H1339   1.077   .     S
C1282  C1311   1.417   .     A
C1282  C1283   1.387   .     A
C1283  H1335   1.084   .     S
C1283  C565    1.392   1_556 S
C1284  O1354   1.275   .     A
C1284  C1290   1.458   .     S
C1284  O1352   1.290   .     A
C1285  C1286   1.419   .     A
C1285  C1287   1.401   .     A
C1286  C1289   1.421   .     A
C1286  C1312   1.426   .     A
C1287  C1288   1.395   .     A
C1287  H1318   1.084   .     S
C1288  C1300   1.400   .     A
C1288  O1348   1.383   .     S
C1289  O1347   1.385   .     S
C1289  C1300   1.400   .     A
C1290  C1371   1.346   .     S
C1290  H1409   1.088   .     S
C1292  C1301   1.395   .     A
C1292  H1336   1.084   .     S
C1292  C1299   1.393   .     A
C1293  C1296   1.450   .     S
C1293  C814    1.343   1_565 S
C1293  H854    1.088   1_565 S
C1294  C1295   1.425   .     S
C1295  O1355   1.274   .     A
C1295  O1349   1.277   .     A
C1296  O1350   1.263   .     A
C1296  O1356   1.275   .     A
C1297  O1344   1.279   .     A
C1297  C1300   1.454   .     S
C1297  O1342   1.278   .     A
C1298  O1345   1.284   .     A
C1298  C1299   1.471   .     S
C1298  O1343   1.280   .     A
C1299  C1303   1.390   .     A
C1301  C1310   1.428   .     A
C1301  Cl1317  1.764   .     S
C1302  O1346   1.413   .     S
C1302  C1304   1.522   .     S
C1302  H1319   1.115   .     S
C1302  H1420   1.113   .     S
C1303  C1309   1.407   .     A
C1303  H1337   1.076   .     S
C1304  H1322   1.111   .     S
C1304  H1321   1.110   .     S
C1304  H1320   1.111   .     S
C1305  O1347   1.412   .     S
C1305  H1323   1.114   .     S
C1305  H1324   1.114   .     S
C1305  C1306   1.521   .     S
C1306  H1325   1.111   .     S
C1306  H1327   1.111   .     S
C1306  H1326   1.110   .     S
C1307  H1328   1.113   .     S
C1307  O1348   1.412   .     S
C1307  H1330   1.116   .     S
C1307  C1308   1.521   .     S
C1308  H1331   1.111   .     S
C1308  H1333   1.111   .     S
C1309  C1310   1.433   .     A
C1309  C1311   1.426   .     A
C1310  C594    1.418   1_556 S
C1311  C592    1.416   1_556 S
C1312  C1313   1.404   .     A
C1313  H1338   1.079   .     S
C1313  C1314   1.390   .     A
C1314  Cl1315  1.765   .     S
Cl1316 C814    1.770   1_565 S
H1332  C828    1.110   1_565 S
O1341  Zn1360  1.924   .     S
O1341  Zn1357  1.961   .     S
O1341  Zn1358  1.950   .     S
O1341  Zn1359  1.942   .     S
O1342  Zn1358  1.927   .     S
O1343  Zn1360  1.938   .     S
O1344  Zn1359  1.931   .     S
O1345  Zn1357  1.920   .     S
O1346  C1371   1.398   .     S
O1349  Zn1357  1.936   .     S
O1350  Zn1360  1.941   .     S
O1351  Zn1358  1.927   .     S
O1352  Zn1359  1.939   .     S
O1353  Zn1360  1.940   .     S
O1354  Zn1357  1.930   .     S
O1355  Zn1358  1.942   .     S
O1356  Zn1359  1.933   .     S
C1361  O1431   1.272   .     A
C1361  C1371   1.446   .     S
C1361  O1433   1.263   .     A
C1362  H1419   1.077   .     S
C1362  C1391   1.417   .     A
C1362  C1363   1.387   .     A
C1363  H1415   1.084   .     S
C1363  C645    1.392   1_556 S
C1364  O1434   1.275   .     A
C1364  C1370   1.458   .     S
C1364  O1432   1.290   .     A
C1365  C1366   1.419   .     A
C1365  C1367   1.401   .     A
C1366  C1369   1.421   .     A
C1366  C1392   1.426   .     A
C1367  C1368   1.395   .     A
C1367  H1398   1.084   .     S
C1368  C1380   1.400   .     A
C1368  O1428   1.383   .     S
C1369  O1427   1.385   .     S
C1369  C1380   1.400   .     A
C1370  C1211   1.346   1_655 S
C1370  H1249   1.088   1_655 S
C1372  C1381   1.395   .     A
C1372  H1416   1.084   .     S
C1372  C1379   1.393   .     A
C1373  C1376   1.450   .     S
C1373  C894    1.343   1_565 S
C1373  H934    1.088   1_565 S
C1374  C1375   1.425   .     S
C1375  O1435   1.274   .     A
C1375  O1429   1.277   .     A
C1376  O1430   1.263   .     A
C1376  O1436   1.275   .     A
C1377  O1424   1.279   .     A
C1377  C1380   1.454   .     S
C1377  O1422   1.278   .     A
C1378  O1425   1.284   .     A
C1378  C1379   1.471   .     S
C1378  O1423   1.280   .     A
C1379  C1383   1.390   .     A
C1381  C1390   1.428   .     A
C1381  Cl1397  1.764   .     S
C1382  O1426   1.413   .     S
C1382  C1384   1.522   .     S
C1382  H1399   1.115   .     S
C1382  H1260   1.113   1_655 S
C1383  C1389   1.407   .     A
C1383  H1417   1.076   .     S
C1384  H1402   1.111   .     S
C1384  H1401   1.110   .     S
C1384  H1400   1.111   .     S
C1385  O1427   1.412   .     S
C1385  H1403   1.114   .     S
C1385  H1404   1.114   .     S
C1385  C1386   1.521   .     S
C1386  H1405   1.111   .     S
C1386  H1407   1.111   .     S
C1386  H1406   1.110   .     S
C1387  H1408   1.113   .     S
C1387  O1428   1.412   .     S
C1387  H1410   1.116   .     S
C1387  C1388   1.521   .     S
C1388  H1411   1.111   .     S
C1388  H1413   1.111   .     S
C1389  C1390   1.433   .     A
C1389  C1391   1.426   .     A
C1390  C674    1.418   1_556 S
C1391  C672    1.416   1_556 S
C1392  C1393   1.404   .     A
C1393  H1418   1.079   .     S
C1393  C1394   1.390   .     A
C1394  Cl1395  1.765   .     S
Cl1396 C894    1.770   1_565 S
H1412  C908    1.110   1_565 S
O1421  Zn1440  1.924   .     S
O1421  Zn1437  1.961   .     S
O1421  Zn1438  1.950   .     S
O1421  Zn1439  1.942   .     S
O1422  Zn1438  1.927   .     S
O1423  Zn1440  1.938   .     S
O1424  Zn1439  1.931   .     S
O1425  Zn1437  1.920   .     S
O1426  C1211   1.398   1_655 S
O1429  Zn1437  1.936   .     S
O1430  Zn1440  1.941   .     S
O1431  Zn1438  1.927   .     S
O1432  Zn1439  1.939   .     S
O1433  Zn1440  1.940   .     S
O1434  Zn1437  1.930   .     S
O1435  Zn1438  1.942   .     S
O1436  Zn1439  1.933   .     S
