data_str_m2_o1_o18_pcu_sym.150
_audit_creation_date              2020-01-03
_audit_creation_method            'Materials Studio'
_symmetry_space_group_name_H-M    'P1'
_symmetry_Int_Tables_number       1
_symmetry_cell_setting            triclinic
loop_
_symmetry_equiv_pos_as_xyz
  x,y,z
_cell_length_a                    28.5381
_cell_length_b                    32.4823
_cell_length_c                    30.9347
_cell_angle_alpha                 89.6537
_cell_angle_beta                  74.4943
_cell_angle_gamma                 89.9414
loop_
_atom_site_label
_atom_site_type_symbol
_atom_site_fract_x
_atom_site_fract_y
_atom_site_fract_z
_atom_site_U_iso_or_equiv
_atom_site_adp_type
_atom_site_occupancy
C1     C     0.33332   0.08735   0.25007   0.00000  Uiso   1.00
C2     C     0.00000   0.24598   0.24998   0.00000  Uiso   1.00
C3     C     0.18973   0.13735   0.04399   0.00000  Uiso   1.00
C4     C     0.13864   0.17455   0.45205   0.00000  Uiso   1.00
C5     C     0.23761   0.12921   0.02115   0.00000  Uiso   1.00
C6     C     0.09020   0.18084   0.47449   0.00000  Uiso   1.00
C7     C     0.29075   0.02133   0.25000   0.00000  Uiso   1.00
C8     C     0.04253   0.31201   0.25018   0.00000  Uiso   1.00
C9     C     0.29076   0.31208   0.24994   0.00000  Uiso   1.00
C10    C     0.04252   0.02125   0.25024   0.00000  Uiso   1.00
C11    C     0.33332   0.29059   0.25002   0.00000  Uiso   1.00
C12    C     0.33331   0.04274   0.25012   0.00000  Uiso   1.00
C13    C     0.18286   0.14272   0.27970   0.00000  Uiso   1.00
C14    C     0.15047   0.19062   0.22031   0.00000  Uiso   1.00
C15    C     0.13323   0.14276   0.27971   0.00000  Uiso   1.00
C16    C     0.20010   0.19058   0.22029   0.00000  Uiso   1.00
C17    C     0.30609   0.16570   0.33607   0.00000  Uiso   1.00
C18    C     0.02725   0.16715   0.16386   0.00000  Uiso   1.00
C19    C     0.29085   0.15977   0.38482   0.00000  Uiso   1.00
C20    C     0.04218   0.16891   0.11465   0.00000  Uiso   1.00
C21    C     0.30407   0.13038   0.45275   0.00000  Uiso   1.00
C22    C     0.02495   0.18394   0.04362   0.00000  Uiso   1.00
C23    C     0.32175   0.14150   0.40761   0.00000  Uiso   1.00
C24    C     0.00909   0.17905   0.09016   0.00000  Uiso   1.00
C25    C     0.24266   0.16822   0.40756   0.00000  Uiso   1.00
C26    C     0.09083   0.16167   0.09226   0.00000  Uiso   1.00
C27    C     0.22322   0.15656   0.45255   0.00000  Uiso   1.00
C28    C     0.10753   0.16381   0.04528   0.00000  Uiso   1.00
C29    C     0.25508   0.13868   0.47566   0.00000  Uiso   1.00
C30    C     0.07411   0.17623   0.02097   0.00000  Uiso   1.00
C31    C     0.17314   0.16250   0.47514   0.00000  Uiso   1.00
C32    C     0.15674   0.15480   0.02206   0.00000  Uiso   1.00
Cu33   Cu    0.04689   0.16667   0.25000   0.00000  Uiso   1.00
Cu34   Cu    0.28645   0.16666   0.25000   0.00000  Uiso   1.00
H35    H     0.26111   0.11555   0.03962   0.00000  Uiso   1.00
H36    H     0.06531   0.18960   0.45503   0.00000  Uiso   1.00
H37    H     0.11534   0.15540   0.11252   0.00000  Uiso   1.00
H38    H     0.22116   0.18441   0.38917   0.00000  Uiso   1.00
H39    H     0.30446   0.18426   0.10709   0.00000  Uiso   1.00
H40    H     0.02586   0.13467   0.39020   0.00000  Uiso   1.00
H41    H     0.17938   0.12801   0.07870   0.00000  Uiso   1.00
H42    H     0.14737   0.17786   0.41612   0.00000  Uiso   1.00
H43    H     0.25748   0.03738   0.24993   0.00000  Uiso   1.00
H44    H     0.07580   0.29596   0.25026   0.00000  Uiso   1.00
H45    H     0.25750   0.29609   0.24982   0.00000  Uiso   1.00
H46    H     0.07578   0.03724   0.25037   0.00000  Uiso   1.00
H47    H     0.19467   0.12347   0.30344   0.00000  Uiso   1.00
H48    H     0.13866   0.20988   0.19658   0.00000  Uiso   1.00
H49    H     0.10762   0.12359   0.30347   0.00000  Uiso   1.00
H50    H     0.22571   0.20975   0.19654   0.00000  Uiso   1.00
N51    N     0.11736   0.16668   0.24999   0.00000  Uiso   1.00
N52    N     0.21597   0.16666   0.25001   0.00000  Uiso   1.00
O53    O     0.03958   0.10655   0.25000   0.00000  Uiso   1.00
O54    O     0.29375   0.22678   0.25000   0.00000  Uiso   1.00
O55    O     0.29372   0.10654   0.25000   0.00000  Uiso   1.00
O56    O     0.03961   0.22679   0.24999   0.00000  Uiso   1.00
O57    O     0.01852   0.16668   0.31491   0.00000  Uiso   1.00
O58    O     0.31481   0.16666   0.18508   0.00000  Uiso   1.00
O59    O     0.27267   0.16667   0.31492   0.00000  Uiso   1.00
O60    O     0.06067   0.16667   0.18508   0.00000  Uiso   1.00
O61    O     0.00224   0.11311   0.47485   0.00000  Uiso   1.00
C62    C     0.00234   0.06996   0.46947   0.00000  Uiso   1.00
H63    H     0.01678   0.06147   0.43350   0.00000  Uiso   1.00
H64    H     0.29819   0.05722   0.48209   0.00000  Uiso   1.00
C65    C     0.03388   0.05005   0.49680   0.00000  Uiso   1.00
H66    H     0.02183   0.06091   0.03206   0.00000  Uiso   1.00
H67    H     0.02913   0.01611   0.49703   0.00000  Uiso   1.00
C68    C     0.08772   0.05998   0.47742   0.00000  Uiso   1.00
H69    H     0.10068   0.04845   0.44252   0.00000  Uiso   1.00
H70    H     0.10921   0.04495   0.49817   0.00000  Uiso   1.00
H71    H     0.09383   0.09363   0.47752   0.00000  Uiso   1.00
O72    O     0.32466   0.19294   0.02004   0.00000  Uiso   1.00
C73    C     0.31747   0.23590   0.01991   0.00000  Uiso   1.00
H74    H     0.01881   0.25192   0.00310   0.00000  Uiso   1.00
H75    H     0.30350   0.24765   0.05478   0.00000  Uiso   1.00
C76    C     0.27991   0.24527   0.49404   0.00000  Uiso   1.00
H77    H     0.29225   0.23193   0.45986   0.00000  Uiso   1.00
H78    H     0.24465   0.23078   0.01165   0.00000  Uiso   1.00
C79    C     0.27250   0.29149   0.48985   0.00000  Uiso   1.00
H80    H     0.26156   0.30591   0.02353   0.00000  Uiso   1.00
H81    H     0.24343   0.29701   0.47276   0.00000  Uiso   1.00
H82    H     0.30654   0.30602   0.46956   0.00000  Uiso   1.00
C83    C     0.66665   0.08735   0.25007   0.00000  Uiso   1.00
C84    C     0.33334   0.24598   0.24998   0.00000  Uiso   1.00
C85    C     0.52306   0.13735   0.04399   0.00000  Uiso   1.00
C86    C     0.47197   0.17455   0.45205   0.00000  Uiso   1.00
C87    C     0.57095   0.12921   0.02115   0.00000  Uiso   1.00
C88    C     0.42353   0.18084   0.47449   0.00000  Uiso   1.00
C89    C     0.62408   0.02133   0.25000   0.00000  Uiso   1.00
C90    C     0.37586   0.31201   0.25018   0.00000  Uiso   1.00
C91    C     0.62409   0.31208   0.24994   0.00000  Uiso   1.00
C92    C     0.37586   0.02125   0.25024   0.00000  Uiso   1.00
C93    C     0.66665   0.29059   0.25002   0.00000  Uiso   1.00
C94    C     0.66664   0.04274   0.25012   0.00000  Uiso   1.00
C95    C     0.51619   0.14272   0.27970   0.00000  Uiso   1.00
C96    C     0.48380   0.19062   0.22031   0.00000  Uiso   1.00
C97    C     0.46657   0.14276   0.27971   0.00000  Uiso   1.00
C98    C     0.53343   0.19058   0.22029   0.00000  Uiso   1.00
C99    C     0.63942   0.16570   0.33607   0.00000  Uiso   1.00
C100   C     0.36058   0.16715   0.16386   0.00000  Uiso   1.00
C101   C     0.62418   0.15977   0.38482   0.00000  Uiso   1.00
C102   C     0.37551   0.16891   0.11465   0.00000  Uiso   1.00
C103   C     0.63741   0.13038   0.45275   0.00000  Uiso   1.00
C104   C     0.35828   0.18394   0.04362   0.00000  Uiso   1.00
C105   C     0.65509   0.14150   0.40761   0.00000  Uiso   1.00
C106   C     0.34242   0.17905   0.09016   0.00000  Uiso   1.00
C107   C     0.57599   0.16822   0.40756   0.00000  Uiso   1.00
C108   C     0.42416   0.16167   0.09226   0.00000  Uiso   1.00
C109   C     0.55655   0.15656   0.45255   0.00000  Uiso   1.00
C110   C     0.44087   0.16381   0.04528   0.00000  Uiso   1.00
C111   C     0.58842   0.13868   0.47566   0.00000  Uiso   1.00
C112   C     0.40744   0.17623   0.02097   0.00000  Uiso   1.00
C113   C     0.50647   0.16250   0.47514   0.00000  Uiso   1.00
C114   C     0.49008   0.15480   0.02206   0.00000  Uiso   1.00
Cu115  Cu    0.38022   0.16667   0.25000   0.00000  Uiso   1.00
Cu116  Cu    0.61978   0.16666   0.25000   0.00000  Uiso   1.00
H117   H     0.59445   0.11555   0.03962   0.00000  Uiso   1.00
H118   H     0.39864   0.18960   0.45503   0.00000  Uiso   1.00
H119   H     0.44867   0.15540   0.11252   0.00000  Uiso   1.00
H120   H     0.55449   0.18441   0.38917   0.00000  Uiso   1.00
H121   H     0.63779   0.18426   0.10709   0.00000  Uiso   1.00
H122   H     0.35919   0.13467   0.39020   0.00000  Uiso   1.00
H123   H     0.51271   0.12801   0.07870   0.00000  Uiso   1.00
H124   H     0.48071   0.17786   0.41612   0.00000  Uiso   1.00
H125   H     0.59081   0.03738   0.24993   0.00000  Uiso   1.00
H126   H     0.40914   0.29596   0.25026   0.00000  Uiso   1.00
H127   H     0.59083   0.29609   0.24982   0.00000  Uiso   1.00
H128   H     0.40911   0.03724   0.25037   0.00000  Uiso   1.00
H129   H     0.52800   0.12347   0.30344   0.00000  Uiso   1.00
H130   H     0.47199   0.20988   0.19658   0.00000  Uiso   1.00
H131   H     0.44095   0.12359   0.30347   0.00000  Uiso   1.00
H132   H     0.55904   0.20975   0.19654   0.00000  Uiso   1.00
N133   N     0.45069   0.16668   0.24999   0.00000  Uiso   1.00
N134   N     0.54931   0.16666   0.25001   0.00000  Uiso   1.00
O135   O     0.37291   0.10655   0.25000   0.00000  Uiso   1.00
O136   O     0.62709   0.22678   0.25000   0.00000  Uiso   1.00
O137   O     0.62706   0.10654   0.25000   0.00000  Uiso   1.00
O138   O     0.37294   0.22679   0.24999   0.00000  Uiso   1.00
O139   O     0.35186   0.16668   0.31491   0.00000  Uiso   1.00
O140   O     0.64814   0.16666   0.18508   0.00000  Uiso   1.00
O141   O     0.60600   0.16667   0.31492   0.00000  Uiso   1.00
O142   O     0.39400   0.16667   0.18508   0.00000  Uiso   1.00
O143   O     0.33557   0.11311   0.47485   0.00000  Uiso   1.00
C144   C     0.33567   0.06996   0.46947   0.00000  Uiso   1.00
H145   H     0.35012   0.06147   0.43350   0.00000  Uiso   1.00
H146   H     0.63152   0.05722   0.48209   0.00000  Uiso   1.00
C147   C     0.36721   0.05005   0.49680   0.00000  Uiso   1.00
H148   H     0.35516   0.06091   0.03206   0.00000  Uiso   1.00
H149   H     0.36246   0.01611   0.49703   0.00000  Uiso   1.00
C150   C     0.42105   0.05998   0.47742   0.00000  Uiso   1.00
H151   H     0.43401   0.04845   0.44252   0.00000  Uiso   1.00
H152   H     0.44255   0.04495   0.49817   0.00000  Uiso   1.00
H153   H     0.42717   0.09363   0.47752   0.00000  Uiso   1.00
O154   O     0.65799   0.19294   0.02004   0.00000  Uiso   1.00
C155   C     0.65080   0.23590   0.01991   0.00000  Uiso   1.00
H156   H     0.35214   0.25192   0.00310   0.00000  Uiso   1.00
H157   H     0.63683   0.24765   0.05478   0.00000  Uiso   1.00
C158   C     0.61325   0.24527   0.49404   0.00000  Uiso   1.00
H159   H     0.62558   0.23193   0.45986   0.00000  Uiso   1.00
H160   H     0.57798   0.23078   0.01165   0.00000  Uiso   1.00
C161   C     0.60583   0.29149   0.48985   0.00000  Uiso   1.00
H162   H     0.59489   0.30591   0.02353   0.00000  Uiso   1.00
H163   H     0.57676   0.29701   0.47276   0.00000  Uiso   1.00
H164   H     0.63987   0.30602   0.46956   0.00000  Uiso   1.00
C165   C     0.99998   0.08735   0.25007   0.00000  Uiso   1.00
C166   C     0.66667   0.24598   0.24998   0.00000  Uiso   1.00
C167   C     0.85640   0.13735   0.04399   0.00000  Uiso   1.00
C168   C     0.80531   0.17455   0.45205   0.00000  Uiso   1.00
C169   C     0.90428   0.12921   0.02115   0.00000  Uiso   1.00
C170   C     0.75686   0.18084   0.47449   0.00000  Uiso   1.00
C171   C     0.95742   0.02133   0.25000   0.00000  Uiso   1.00
C172   C     0.70920   0.31201   0.25018   0.00000  Uiso   1.00
C173   C     0.95742   0.31208   0.24994   0.00000  Uiso   1.00
C174   C     0.70919   0.02125   0.25024   0.00000  Uiso   1.00
C175   C     0.99998   0.29059   0.25002   0.00000  Uiso   1.00
C176   C     0.99998   0.04274   0.25012   0.00000  Uiso   1.00
C177   C     0.84953   0.14272   0.27970   0.00000  Uiso   1.00
C178   C     0.81714   0.19062   0.22031   0.00000  Uiso   1.00
C179   C     0.79990   0.14276   0.27971   0.00000  Uiso   1.00
C180   C     0.86676   0.19058   0.22029   0.00000  Uiso   1.00
C181   C     0.97276   0.16570   0.33607   0.00000  Uiso   1.00
C182   C     0.69391   0.16715   0.16386   0.00000  Uiso   1.00
C183   C     0.95752   0.15977   0.38482   0.00000  Uiso   1.00
C184   C     0.70884   0.16891   0.11465   0.00000  Uiso   1.00
C185   C     0.97074   0.13038   0.45275   0.00000  Uiso   1.00
C186   C     0.69162   0.18394   0.04362   0.00000  Uiso   1.00
C187   C     0.98842   0.14150   0.40761   0.00000  Uiso   1.00
C188   C     0.67575   0.17905   0.09016   0.00000  Uiso   1.00
C189   C     0.90932   0.16822   0.40756   0.00000  Uiso   1.00
C190   C     0.75749   0.16167   0.09226   0.00000  Uiso   1.00
C191   C     0.88988   0.15656   0.45255   0.00000  Uiso   1.00
C192   C     0.77420   0.16381   0.04528   0.00000  Uiso   1.00
C193   C     0.92175   0.13868   0.47566   0.00000  Uiso   1.00
C194   C     0.74077   0.17623   0.02097   0.00000  Uiso   1.00
C195   C     0.83981   0.16250   0.47514   0.00000  Uiso   1.00
C196   C     0.82341   0.15480   0.02206   0.00000  Uiso   1.00
Cu197  Cu    0.71355   0.16667   0.25000   0.00000  Uiso   1.00
Cu198  Cu    0.95311   0.16666   0.25000   0.00000  Uiso   1.00
H199   H     0.92778   0.11555   0.03962   0.00000  Uiso   1.00
H200   H     0.73197   0.18960   0.45503   0.00000  Uiso   1.00
H201   H     0.78200   0.15540   0.11252   0.00000  Uiso   1.00
H202   H     0.88783   0.18441   0.38917   0.00000  Uiso   1.00
H203   H     0.97113   0.18426   0.10709   0.00000  Uiso   1.00
H204   H     0.69252   0.13467   0.39020   0.00000  Uiso   1.00
H205   H     0.84605   0.12801   0.07870   0.00000  Uiso   1.00
H206   H     0.81404   0.17786   0.41612   0.00000  Uiso   1.00
H207   H     0.92414   0.03738   0.24993   0.00000  Uiso   1.00
H208   H     0.74247   0.29596   0.25026   0.00000  Uiso   1.00
H209   H     0.92417   0.29609   0.24982   0.00000  Uiso   1.00
H210   H     0.74245   0.03724   0.25037   0.00000  Uiso   1.00
H211   H     0.86134   0.12347   0.30344   0.00000  Uiso   1.00
H212   H     0.80532   0.20988   0.19658   0.00000  Uiso   1.00
H213   H     0.77429   0.12359   0.30347   0.00000  Uiso   1.00
H214   H     0.89237   0.20975   0.19654   0.00000  Uiso   1.00
N215   N     0.78403   0.16668   0.24999   0.00000  Uiso   1.00
N216   N     0.88264   0.16666   0.25001   0.00000  Uiso   1.00
O217   O     0.70625   0.10655   0.25000   0.00000  Uiso   1.00
O218   O     0.96042   0.22678   0.25000   0.00000  Uiso   1.00
O219   O     0.96039   0.10654   0.25000   0.00000  Uiso   1.00
O220   O     0.70628   0.22679   0.24999   0.00000  Uiso   1.00
O221   O     0.68519   0.16668   0.31491   0.00000  Uiso   1.00
O222   O     0.98148   0.16666   0.18508   0.00000  Uiso   1.00
O223   O     0.93933   0.16667   0.31492   0.00000  Uiso   1.00
O224   O     0.72733   0.16667   0.18508   0.00000  Uiso   1.00
O225   O     0.66890   0.11311   0.47485   0.00000  Uiso   1.00
C226   C     0.66900   0.06996   0.46947   0.00000  Uiso   1.00
H227   H     0.68345   0.06147   0.43350   0.00000  Uiso   1.00
H228   H     0.96486   0.05722   0.48209   0.00000  Uiso   1.00
C229   C     0.70054   0.05005   0.49680   0.00000  Uiso   1.00
H230   H     0.68849   0.06091   0.03206   0.00000  Uiso   1.00
H231   H     0.69580   0.01611   0.49703   0.00000  Uiso   1.00
C232   C     0.75438   0.05998   0.47742   0.00000  Uiso   1.00
H233   H     0.76734   0.04845   0.44252   0.00000  Uiso   1.00
H234   H     0.77588   0.04495   0.49817   0.00000  Uiso   1.00
H235   H     0.76050   0.09363   0.47752   0.00000  Uiso   1.00
O236   O     0.99133   0.19294   0.02004   0.00000  Uiso   1.00
C237   C     0.98413   0.23590   0.01991   0.00000  Uiso   1.00
H238   H     0.68548   0.25192   0.00310   0.00000  Uiso   1.00
H239   H     0.97016   0.24765   0.05478   0.00000  Uiso   1.00
C240   C     0.94658   0.24527   0.49404   0.00000  Uiso   1.00
H241   H     0.95891   0.23193   0.45986   0.00000  Uiso   1.00
H242   H     0.91131   0.23078   0.01165   0.00000  Uiso   1.00
C243   C     0.93916   0.29149   0.48985   0.00000  Uiso   1.00
H244   H     0.92822   0.30591   0.02353   0.00000  Uiso   1.00
H245   H     0.91009   0.29701   0.47276   0.00000  Uiso   1.00
H246   H     0.97321   0.30602   0.46956   0.00000  Uiso   1.00
C247   C     0.33332   0.42069   0.25007   0.00000  Uiso   1.00
C248   C     0.00000   0.57931   0.24998   0.00000  Uiso   1.00
C249   C     0.18973   0.47068   0.04399   0.00000  Uiso   1.00
C250   C     0.13864   0.50788   0.45205   0.00000  Uiso   1.00
C251   C     0.23761   0.46254   0.02115   0.00000  Uiso   1.00
C252   C     0.09020   0.51418   0.47449   0.00000  Uiso   1.00
C253   C     0.29075   0.35466   0.25000   0.00000  Uiso   1.00
C254   C     0.04253   0.64534   0.25018   0.00000  Uiso   1.00
C255   C     0.29076   0.64542   0.24994   0.00000  Uiso   1.00
C256   C     0.04252   0.35459   0.25024   0.00000  Uiso   1.00
C257   C     0.33332   0.62393   0.25002   0.00000  Uiso   1.00
C258   C     0.33331   0.37607   0.25012   0.00000  Uiso   1.00
C259   C     0.18286   0.47606   0.27970   0.00000  Uiso   1.00
C260   C     0.15047   0.52395   0.22031   0.00000  Uiso   1.00
C261   C     0.13323   0.47609   0.27971   0.00000  Uiso   1.00
C262   C     0.20010   0.52391   0.22029   0.00000  Uiso   1.00
C263   C     0.30609   0.49904   0.33607   0.00000  Uiso   1.00
C264   C     0.02725   0.50048   0.16386   0.00000  Uiso   1.00
C265   C     0.29085   0.49310   0.38482   0.00000  Uiso   1.00
C266   C     0.04218   0.50224   0.11465   0.00000  Uiso   1.00
C267   C     0.30407   0.46371   0.45275   0.00000  Uiso   1.00
C268   C     0.02495   0.51728   0.04362   0.00000  Uiso   1.00
C269   C     0.32175   0.47484   0.40761   0.00000  Uiso   1.00
C270   C     0.00909   0.51238   0.09016   0.00000  Uiso   1.00
C271   C     0.24266   0.50155   0.40756   0.00000  Uiso   1.00
C272   C     0.09083   0.49500   0.09226   0.00000  Uiso   1.00
C273   C     0.22322   0.48989   0.45255   0.00000  Uiso   1.00
C274   C     0.10753   0.49714   0.04528   0.00000  Uiso   1.00
C275   C     0.25508   0.47201   0.47566   0.00000  Uiso   1.00
C276   C     0.07411   0.50956   0.02097   0.00000  Uiso   1.00
C277   C     0.17314   0.49583   0.47514   0.00000  Uiso   1.00
C278   C     0.15674   0.48814   0.02206   0.00000  Uiso   1.00
Cu279  Cu    0.04689   0.50001   0.25000   0.00000  Uiso   1.00
Cu280  Cu    0.28645   0.49999   0.25000   0.00000  Uiso   1.00
H281   H     0.26111   0.44888   0.03962   0.00000  Uiso   1.00
H282   H     0.06531   0.52293   0.45503   0.00000  Uiso   1.00
H283   H     0.11534   0.48873   0.11252   0.00000  Uiso   1.00
H284   H     0.22116   0.51774   0.38917   0.00000  Uiso   1.00
H285   H     0.30446   0.51759   0.10709   0.00000  Uiso   1.00
H286   H     0.02586   0.46800   0.39020   0.00000  Uiso   1.00
H287   H     0.17938   0.46134   0.07870   0.00000  Uiso   1.00
H288   H     0.14737   0.51119   0.41612   0.00000  Uiso   1.00
H289   H     0.25748   0.37071   0.24993   0.00000  Uiso   1.00
H290   H     0.07580   0.62929   0.25026   0.00000  Uiso   1.00
H291   H     0.25750   0.62943   0.24982   0.00000  Uiso   1.00
H292   H     0.07578   0.37057   0.25037   0.00000  Uiso   1.00
H293   H     0.19467   0.45681   0.30344   0.00000  Uiso   1.00
H294   H     0.13866   0.54321   0.19658   0.00000  Uiso   1.00
H295   H     0.10762   0.45692   0.30347   0.00000  Uiso   1.00
H296   H     0.22571   0.54309   0.19654   0.00000  Uiso   1.00
N297   N     0.11736   0.50001   0.24999   0.00000  Uiso   1.00
N298   N     0.21597   0.49999   0.25001   0.00000  Uiso   1.00
O299   O     0.03958   0.43989   0.25000   0.00000  Uiso   1.00
O300   O     0.29375   0.56011   0.25000   0.00000  Uiso   1.00
O301   O     0.29372   0.43988   0.25000   0.00000  Uiso   1.00
O302   O     0.03961   0.56012   0.24999   0.00000  Uiso   1.00
O303   O     0.01852   0.50001   0.31491   0.00000  Uiso   1.00
O304   O     0.31481   0.49999   0.18508   0.00000  Uiso   1.00
O305   O     0.27267   0.50000   0.31492   0.00000  Uiso   1.00
O306   O     0.06067   0.50000   0.18508   0.00000  Uiso   1.00
O307   O     0.00224   0.44644   0.47485   0.00000  Uiso   1.00
C308   C     0.00234   0.40329   0.46947   0.00000  Uiso   1.00
H309   H     0.01678   0.39480   0.43350   0.00000  Uiso   1.00
H310   H     0.29819   0.39055   0.48209   0.00000  Uiso   1.00
C311   C     0.03388   0.38338   0.49680   0.00000  Uiso   1.00
H312   H     0.02183   0.39424   0.03206   0.00000  Uiso   1.00
H313   H     0.02913   0.34944   0.49703   0.00000  Uiso   1.00
C314   C     0.08772   0.39331   0.47742   0.00000  Uiso   1.00
H315   H     0.10068   0.38179   0.44252   0.00000  Uiso   1.00
H316   H     0.10921   0.37828   0.49817   0.00000  Uiso   1.00
H317   H     0.09383   0.42697   0.47752   0.00000  Uiso   1.00
O318   O     0.32466   0.52628   0.02004   0.00000  Uiso   1.00
C319   C     0.31747   0.56923   0.01991   0.00000  Uiso   1.00
H320   H     0.01881   0.58525   0.00310   0.00000  Uiso   1.00
H321   H     0.30350   0.58098   0.05478   0.00000  Uiso   1.00
C322   C     0.27991   0.57861   0.49404   0.00000  Uiso   1.00
H323   H     0.29225   0.56526   0.45986   0.00000  Uiso   1.00
H324   H     0.24465   0.56411   0.01165   0.00000  Uiso   1.00
C325   C     0.27250   0.62482   0.48985   0.00000  Uiso   1.00
H326   H     0.26156   0.63924   0.02353   0.00000  Uiso   1.00
H327   H     0.24343   0.63034   0.47276   0.00000  Uiso   1.00
H328   H     0.30654   0.63936   0.46956   0.00000  Uiso   1.00
C329   C     0.66665   0.42069   0.25007   0.00000  Uiso   1.00
C330   C     0.33334   0.57931   0.24998   0.00000  Uiso   1.00
C331   C     0.52306   0.47068   0.04399   0.00000  Uiso   1.00
C332   C     0.47197   0.50788   0.45205   0.00000  Uiso   1.00
C333   C     0.57095   0.46254   0.02115   0.00000  Uiso   1.00
C334   C     0.42353   0.51418   0.47449   0.00000  Uiso   1.00
C335   C     0.62408   0.35466   0.25000   0.00000  Uiso   1.00
C336   C     0.37586   0.64534   0.25018   0.00000  Uiso   1.00
C337   C     0.62409   0.64542   0.24994   0.00000  Uiso   1.00
C338   C     0.37586   0.35459   0.25024   0.00000  Uiso   1.00
C339   C     0.66665   0.62393   0.25002   0.00000  Uiso   1.00
C340   C     0.66664   0.37607   0.25012   0.00000  Uiso   1.00
C341   C     0.51619   0.47606   0.27970   0.00000  Uiso   1.00
C342   C     0.48380   0.52395   0.22031   0.00000  Uiso   1.00
C343   C     0.46657   0.47609   0.27971   0.00000  Uiso   1.00
C344   C     0.53343   0.52391   0.22029   0.00000  Uiso   1.00
C345   C     0.63942   0.49904   0.33607   0.00000  Uiso   1.00
C346   C     0.36058   0.50048   0.16386   0.00000  Uiso   1.00
C347   C     0.62418   0.49310   0.38482   0.00000  Uiso   1.00
C348   C     0.37551   0.50224   0.11465   0.00000  Uiso   1.00
C349   C     0.63741   0.46371   0.45275   0.00000  Uiso   1.00
C350   C     0.35828   0.51728   0.04362   0.00000  Uiso   1.00
C351   C     0.65509   0.47484   0.40761   0.00000  Uiso   1.00
C352   C     0.34242   0.51238   0.09016   0.00000  Uiso   1.00
C353   C     0.57599   0.50155   0.40756   0.00000  Uiso   1.00
C354   C     0.42416   0.49500   0.09226   0.00000  Uiso   1.00
C355   C     0.55655   0.48989   0.45255   0.00000  Uiso   1.00
C356   C     0.44087   0.49714   0.04528   0.00000  Uiso   1.00
C357   C     0.58842   0.47201   0.47566   0.00000  Uiso   1.00
C358   C     0.40744   0.50956   0.02097   0.00000  Uiso   1.00
C359   C     0.50647   0.49583   0.47514   0.00000  Uiso   1.00
C360   C     0.49008   0.48814   0.02206   0.00000  Uiso   1.00
Cu361  Cu    0.38022   0.50001   0.25000   0.00000  Uiso   1.00
Cu362  Cu    0.61978   0.49999   0.25000   0.00000  Uiso   1.00
H363   H     0.59445   0.44888   0.03962   0.00000  Uiso   1.00
H364   H     0.39864   0.52293   0.45503   0.00000  Uiso   1.00
H365   H     0.44867   0.48873   0.11252   0.00000  Uiso   1.00
H366   H     0.55449   0.51774   0.38917   0.00000  Uiso   1.00
H367   H     0.63779   0.51759   0.10709   0.00000  Uiso   1.00
H368   H     0.35919   0.46800   0.39020   0.00000  Uiso   1.00
H369   H     0.51271   0.46134   0.07870   0.00000  Uiso   1.00
H370   H     0.48071   0.51119   0.41612   0.00000  Uiso   1.00
H371   H     0.59081   0.37071   0.24993   0.00000  Uiso   1.00
H372   H     0.40914   0.62929   0.25026   0.00000  Uiso   1.00
H373   H     0.59083   0.62943   0.24982   0.00000  Uiso   1.00
H374   H     0.40911   0.37057   0.25037   0.00000  Uiso   1.00
H375   H     0.52800   0.45681   0.30344   0.00000  Uiso   1.00
H376   H     0.47199   0.54321   0.19658   0.00000  Uiso   1.00
H377   H     0.44095   0.45692   0.30347   0.00000  Uiso   1.00
H378   H     0.55904   0.54309   0.19654   0.00000  Uiso   1.00
N379   N     0.45069   0.50001   0.24999   0.00000  Uiso   1.00
N380   N     0.54931   0.49999   0.25001   0.00000  Uiso   1.00
O381   O     0.37291   0.43989   0.25000   0.00000  Uiso   1.00
O382   O     0.62709   0.56011   0.25000   0.00000  Uiso   1.00
O383   O     0.62706   0.43988   0.25000   0.00000  Uiso   1.00
O384   O     0.37294   0.56012   0.24999   0.00000  Uiso   1.00
O385   O     0.35186   0.50001   0.31491   0.00000  Uiso   1.00
O386   O     0.64814   0.49999   0.18508   0.00000  Uiso   1.00
O387   O     0.60600   0.50000   0.31492   0.00000  Uiso   1.00
O388   O     0.39400   0.50000   0.18508   0.00000  Uiso   1.00
O389   O     0.33557   0.44644   0.47485   0.00000  Uiso   1.00
C390   C     0.33567   0.40329   0.46947   0.00000  Uiso   1.00
H391   H     0.35012   0.39480   0.43350   0.00000  Uiso   1.00
H392   H     0.63152   0.39055   0.48209   0.00000  Uiso   1.00
C393   C     0.36721   0.38338   0.49680   0.00000  Uiso   1.00
H394   H     0.35516   0.39424   0.03206   0.00000  Uiso   1.00
H395   H     0.36246   0.34944   0.49703   0.00000  Uiso   1.00
C396   C     0.42105   0.39331   0.47742   0.00000  Uiso   1.00
H397   H     0.43401   0.38179   0.44252   0.00000  Uiso   1.00
H398   H     0.44255   0.37828   0.49817   0.00000  Uiso   1.00
H399   H     0.42717   0.42697   0.47752   0.00000  Uiso   1.00
O400   O     0.65799   0.52628   0.02004   0.00000  Uiso   1.00
C401   C     0.65080   0.56923   0.01991   0.00000  Uiso   1.00
H402   H     0.35214   0.58525   0.00310   0.00000  Uiso   1.00
H403   H     0.63683   0.58098   0.05478   0.00000  Uiso   1.00
C404   C     0.61325   0.57861   0.49404   0.00000  Uiso   1.00
H405   H     0.62558   0.56526   0.45986   0.00000  Uiso   1.00
H406   H     0.57798   0.56411   0.01165   0.00000  Uiso   1.00
C407   C     0.60583   0.62482   0.48985   0.00000  Uiso   1.00
H408   H     0.59489   0.63924   0.02353   0.00000  Uiso   1.00
H409   H     0.57676   0.63034   0.47276   0.00000  Uiso   1.00
H410   H     0.63987   0.63936   0.46956   0.00000  Uiso   1.00
C411   C     0.99998   0.42069   0.25007   0.00000  Uiso   1.00
C412   C     0.66667   0.57931   0.24998   0.00000  Uiso   1.00
C413   C     0.85640   0.47068   0.04399   0.00000  Uiso   1.00
C414   C     0.80531   0.50788   0.45205   0.00000  Uiso   1.00
C415   C     0.90428   0.46254   0.02115   0.00000  Uiso   1.00
C416   C     0.75686   0.51418   0.47449   0.00000  Uiso   1.00
C417   C     0.95742   0.35466   0.25000   0.00000  Uiso   1.00
C418   C     0.70920   0.64534   0.25018   0.00000  Uiso   1.00
C419   C     0.95742   0.64542   0.24994   0.00000  Uiso   1.00
C420   C     0.70919   0.35459   0.25024   0.00000  Uiso   1.00
C421   C     0.99998   0.62393   0.25002   0.00000  Uiso   1.00
C422   C     0.99998   0.37607   0.25012   0.00000  Uiso   1.00
C423   C     0.84953   0.47606   0.27970   0.00000  Uiso   1.00
C424   C     0.81714   0.52395   0.22031   0.00000  Uiso   1.00
C425   C     0.79990   0.47609   0.27971   0.00000  Uiso   1.00
C426   C     0.86676   0.52391   0.22029   0.00000  Uiso   1.00
C427   C     0.97276   0.49904   0.33607   0.00000  Uiso   1.00
C428   C     0.69391   0.50048   0.16386   0.00000  Uiso   1.00
C429   C     0.95752   0.49310   0.38482   0.00000  Uiso   1.00
C430   C     0.70884   0.50224   0.11465   0.00000  Uiso   1.00
C431   C     0.97074   0.46371   0.45275   0.00000  Uiso   1.00
C432   C     0.69162   0.51728   0.04362   0.00000  Uiso   1.00
C433   C     0.98842   0.47484   0.40761   0.00000  Uiso   1.00
C434   C     0.67575   0.51238   0.09016   0.00000  Uiso   1.00
C435   C     0.90932   0.50155   0.40756   0.00000  Uiso   1.00
C436   C     0.75749   0.49500   0.09226   0.00000  Uiso   1.00
C437   C     0.88988   0.48989   0.45255   0.00000  Uiso   1.00
C438   C     0.77420   0.49714   0.04528   0.00000  Uiso   1.00
C439   C     0.92175   0.47201   0.47566   0.00000  Uiso   1.00
C440   C     0.74077   0.50956   0.02097   0.00000  Uiso   1.00
C441   C     0.83981   0.49583   0.47514   0.00000  Uiso   1.00
C442   C     0.82341   0.48814   0.02206   0.00000  Uiso   1.00
Cu443  Cu    0.71355   0.50001   0.25000   0.00000  Uiso   1.00
Cu444  Cu    0.95311   0.49999   0.25000   0.00000  Uiso   1.00
H445   H     0.92778   0.44888   0.03962   0.00000  Uiso   1.00
H446   H     0.73197   0.52293   0.45503   0.00000  Uiso   1.00
H447   H     0.78200   0.48873   0.11252   0.00000  Uiso   1.00
H448   H     0.88783   0.51774   0.38917   0.00000  Uiso   1.00
H449   H     0.97113   0.51759   0.10709   0.00000  Uiso   1.00
H450   H     0.69252   0.46800   0.39020   0.00000  Uiso   1.00
H451   H     0.84605   0.46134   0.07870   0.00000  Uiso   1.00
H452   H     0.81404   0.51119   0.41612   0.00000  Uiso   1.00
H453   H     0.92414   0.37071   0.24993   0.00000  Uiso   1.00
H454   H     0.74247   0.62929   0.25026   0.00000  Uiso   1.00
H455   H     0.92417   0.62943   0.24982   0.00000  Uiso   1.00
H456   H     0.74245   0.37057   0.25037   0.00000  Uiso   1.00
H457   H     0.86134   0.45681   0.30344   0.00000  Uiso   1.00
H458   H     0.80532   0.54321   0.19658   0.00000  Uiso   1.00
H459   H     0.77429   0.45692   0.30347   0.00000  Uiso   1.00
H460   H     0.89237   0.54309   0.19654   0.00000  Uiso   1.00
N461   N     0.78403   0.50001   0.24999   0.00000  Uiso   1.00
N462   N     0.88264   0.49999   0.25001   0.00000  Uiso   1.00
O463   O     0.70625   0.43989   0.25000   0.00000  Uiso   1.00
O464   O     0.96042   0.56011   0.25000   0.00000  Uiso   1.00
O465   O     0.96039   0.43988   0.25000   0.00000  Uiso   1.00
O466   O     0.70628   0.56012   0.24999   0.00000  Uiso   1.00
O467   O     0.68519   0.50001   0.31491   0.00000  Uiso   1.00
O468   O     0.98148   0.49999   0.18508   0.00000  Uiso   1.00
O469   O     0.93933   0.50000   0.31492   0.00000  Uiso   1.00
O470   O     0.72733   0.50000   0.18508   0.00000  Uiso   1.00
O471   O     0.66890   0.44644   0.47485   0.00000  Uiso   1.00
C472   C     0.66900   0.40329   0.46947   0.00000  Uiso   1.00
H473   H     0.68345   0.39480   0.43350   0.00000  Uiso   1.00
H474   H     0.96486   0.39055   0.48209   0.00000  Uiso   1.00
C475   C     0.70054   0.38338   0.49680   0.00000  Uiso   1.00
H476   H     0.68849   0.39424   0.03206   0.00000  Uiso   1.00
H477   H     0.69580   0.34944   0.49703   0.00000  Uiso   1.00
C478   C     0.75438   0.39331   0.47742   0.00000  Uiso   1.00
H479   H     0.76734   0.38179   0.44252   0.00000  Uiso   1.00
H480   H     0.77588   0.37828   0.49817   0.00000  Uiso   1.00
H481   H     0.76050   0.42697   0.47752   0.00000  Uiso   1.00
O482   O     0.99133   0.52628   0.02004   0.00000  Uiso   1.00
C483   C     0.98413   0.56923   0.01991   0.00000  Uiso   1.00
H484   H     0.68548   0.58525   0.00310   0.00000  Uiso   1.00
H485   H     0.97016   0.58098   0.05478   0.00000  Uiso   1.00
C486   C     0.94658   0.57861   0.49404   0.00000  Uiso   1.00
H487   H     0.95891   0.56526   0.45986   0.00000  Uiso   1.00
H488   H     0.91131   0.56411   0.01165   0.00000  Uiso   1.00
C489   C     0.93916   0.62482   0.48985   0.00000  Uiso   1.00
H490   H     0.92822   0.63924   0.02353   0.00000  Uiso   1.00
H491   H     0.91009   0.63034   0.47276   0.00000  Uiso   1.00
H492   H     0.97321   0.63936   0.46956   0.00000  Uiso   1.00
C493   C     0.33332   0.75402   0.25007   0.00000  Uiso   1.00
C494   C     0.00000   0.91265   0.24998   0.00000  Uiso   1.00
C495   C     0.18973   0.80402   0.04399   0.00000  Uiso   1.00
C496   C     0.13864   0.84121   0.45205   0.00000  Uiso   1.00
C497   C     0.23761   0.79588   0.02115   0.00000  Uiso   1.00
C498   C     0.09020   0.84751   0.47449   0.00000  Uiso   1.00
C499   C     0.29075   0.68799   0.25000   0.00000  Uiso   1.00
C500   C     0.04253   0.97867   0.25018   0.00000  Uiso   1.00
C501   C     0.29076   0.97875   0.24994   0.00000  Uiso   1.00
C502   C     0.04252   0.68792   0.25024   0.00000  Uiso   1.00
C503   C     0.33332   0.95726   0.25002   0.00000  Uiso   1.00
C504   C     0.33331   0.70941   0.25012   0.00000  Uiso   1.00
C505   C     0.18286   0.80939   0.27970   0.00000  Uiso   1.00
C506   C     0.15047   0.85728   0.22031   0.00000  Uiso   1.00
C507   C     0.13323   0.80943   0.27971   0.00000  Uiso   1.00
C508   C     0.20010   0.85724   0.22029   0.00000  Uiso   1.00
C509   C     0.30609   0.83237   0.33607   0.00000  Uiso   1.00
C510   C     0.02725   0.83381   0.16386   0.00000  Uiso   1.00
C511   C     0.29085   0.82643   0.38482   0.00000  Uiso   1.00
C512   C     0.04218   0.83557   0.11465   0.00000  Uiso   1.00
C513   C     0.30407   0.79704   0.45275   0.00000  Uiso   1.00
C514   C     0.02495   0.85061   0.04362   0.00000  Uiso   1.00
C515   C     0.32175   0.80817   0.40761   0.00000  Uiso   1.00
C516   C     0.00909   0.84571   0.09016   0.00000  Uiso   1.00
C517   C     0.24266   0.83488   0.40756   0.00000  Uiso   1.00
C518   C     0.09083   0.82833   0.09226   0.00000  Uiso   1.00
C519   C     0.22322   0.82322   0.45255   0.00000  Uiso   1.00
C520   C     0.10753   0.83047   0.04528   0.00000  Uiso   1.00
C521   C     0.25508   0.80535   0.47566   0.00000  Uiso   1.00
C522   C     0.07411   0.84290   0.02097   0.00000  Uiso   1.00
C523   C     0.17314   0.82916   0.47514   0.00000  Uiso   1.00
C524   C     0.15674   0.82147   0.02206   0.00000  Uiso   1.00
Cu525  Cu    0.04689   0.83334   0.25000   0.00000  Uiso   1.00
Cu526  Cu    0.28645   0.83333   0.25000   0.00000  Uiso   1.00
H527   H     0.26111   0.78221   0.03962   0.00000  Uiso   1.00
H528   H     0.06531   0.85626   0.45503   0.00000  Uiso   1.00
H529   H     0.11534   0.82206   0.11252   0.00000  Uiso   1.00
H530   H     0.22116   0.85108   0.38917   0.00000  Uiso   1.00
H531   H     0.30446   0.85092   0.10709   0.00000  Uiso   1.00
H532   H     0.02586   0.80134   0.39020   0.00000  Uiso   1.00
H533   H     0.17938   0.79468   0.07870   0.00000  Uiso   1.00
H534   H     0.14737   0.84453   0.41612   0.00000  Uiso   1.00
H535   H     0.25748   0.70404   0.24993   0.00000  Uiso   1.00
H536   H     0.07580   0.96263   0.25026   0.00000  Uiso   1.00
H537   H     0.25750   0.96276   0.24982   0.00000  Uiso   1.00
H538   H     0.07578   0.70391   0.25037   0.00000  Uiso   1.00
H539   H     0.19467   0.79014   0.30344   0.00000  Uiso   1.00
H540   H     0.13866   0.87654   0.19658   0.00000  Uiso   1.00
H541   H     0.10762   0.79025   0.30347   0.00000  Uiso   1.00
H542   H     0.22571   0.87642   0.19654   0.00000  Uiso   1.00
N543   N     0.11736   0.83334   0.24999   0.00000  Uiso   1.00
N544   N     0.21597   0.83332   0.25001   0.00000  Uiso   1.00
O545   O     0.03958   0.77322   0.25000   0.00000  Uiso   1.00
O546   O     0.29375   0.89345   0.25000   0.00000  Uiso   1.00
O547   O     0.29372   0.77321   0.25000   0.00000  Uiso   1.00
O548   O     0.03961   0.89346   0.24999   0.00000  Uiso   1.00
O549   O     0.01852   0.83334   0.31491   0.00000  Uiso   1.00
O550   O     0.31481   0.83332   0.18508   0.00000  Uiso   1.00
O551   O     0.27267   0.83333   0.31492   0.00000  Uiso   1.00
O552   O     0.06067   0.83333   0.18508   0.00000  Uiso   1.00
O553   O     0.00224   0.77978   0.47485   0.00000  Uiso   1.00
C554   C     0.00234   0.73663   0.46947   0.00000  Uiso   1.00
H555   H     0.01678   0.72813   0.43350   0.00000  Uiso   1.00
H556   H     0.29819   0.72389   0.48209   0.00000  Uiso   1.00
C557   C     0.03388   0.71672   0.49680   0.00000  Uiso   1.00
H558   H     0.02183   0.72757   0.03206   0.00000  Uiso   1.00
H559   H     0.02913   0.68277   0.49703   0.00000  Uiso   1.00
C560   C     0.08772   0.72665   0.47742   0.00000  Uiso   1.00
H561   H     0.10068   0.71512   0.44252   0.00000  Uiso   1.00
H562   H     0.10921   0.71162   0.49817   0.00000  Uiso   1.00
H563   H     0.09383   0.76030   0.47752   0.00000  Uiso   1.00
O564   O     0.32466   0.85961   0.02004   0.00000  Uiso   1.00
C565   C     0.31747   0.90257   0.01991   0.00000  Uiso   1.00
H566   H     0.01881   0.91859   0.00310   0.00000  Uiso   1.00
H567   H     0.30350   0.91432   0.05478   0.00000  Uiso   1.00
C568   C     0.27991   0.91194   0.49404   0.00000  Uiso   1.00
H569   H     0.29225   0.89859   0.45986   0.00000  Uiso   1.00
H570   H     0.24465   0.89744   0.01165   0.00000  Uiso   1.00
C571   C     0.27250   0.95815   0.48985   0.00000  Uiso   1.00
H572   H     0.26156   0.97258   0.02353   0.00000  Uiso   1.00
H573   H     0.24343   0.96368   0.47276   0.00000  Uiso   1.00
H574   H     0.30654   0.97269   0.46956   0.00000  Uiso   1.00
C575   C     0.66665   0.75402   0.25007   0.00000  Uiso   1.00
C576   C     0.33334   0.91265   0.24998   0.00000  Uiso   1.00
C577   C     0.52306   0.80402   0.04399   0.00000  Uiso   1.00
C578   C     0.47197   0.84121   0.45205   0.00000  Uiso   1.00
C579   C     0.57095   0.79588   0.02115   0.00000  Uiso   1.00
C580   C     0.42353   0.84751   0.47449   0.00000  Uiso   1.00
C581   C     0.62408   0.68799   0.25000   0.00000  Uiso   1.00
C582   C     0.37586   0.97867   0.25018   0.00000  Uiso   1.00
C583   C     0.62409   0.97875   0.24994   0.00000  Uiso   1.00
C584   C     0.37586   0.68792   0.25024   0.00000  Uiso   1.00
C585   C     0.66665   0.95726   0.25002   0.00000  Uiso   1.00
C586   C     0.66664   0.70941   0.25012   0.00000  Uiso   1.00
C587   C     0.51619   0.80939   0.27970   0.00000  Uiso   1.00
C588   C     0.48380   0.85728   0.22031   0.00000  Uiso   1.00
C589   C     0.46657   0.80943   0.27971   0.00000  Uiso   1.00
C590   C     0.53343   0.85724   0.22029   0.00000  Uiso   1.00
C591   C     0.63942   0.83237   0.33607   0.00000  Uiso   1.00
C592   C     0.36058   0.83381   0.16386   0.00000  Uiso   1.00
C593   C     0.62418   0.82643   0.38482   0.00000  Uiso   1.00
C594   C     0.37551   0.83557   0.11465   0.00000  Uiso   1.00
C595   C     0.63741   0.79704   0.45275   0.00000  Uiso   1.00
C596   C     0.35828   0.85061   0.04362   0.00000  Uiso   1.00
C597   C     0.65509   0.80817   0.40761   0.00000  Uiso   1.00
C598   C     0.34242   0.84571   0.09016   0.00000  Uiso   1.00
C599   C     0.57599   0.83488   0.40756   0.00000  Uiso   1.00
C600   C     0.42416   0.82833   0.09226   0.00000  Uiso   1.00
C601   C     0.55655   0.82322   0.45255   0.00000  Uiso   1.00
C602   C     0.44087   0.83047   0.04528   0.00000  Uiso   1.00
C603   C     0.58842   0.80535   0.47566   0.00000  Uiso   1.00
C604   C     0.40744   0.84290   0.02097   0.00000  Uiso   1.00
C605   C     0.50647   0.82916   0.47514   0.00000  Uiso   1.00
C606   C     0.49008   0.82147   0.02206   0.00000  Uiso   1.00
Cu607  Cu    0.38022   0.83334   0.25000   0.00000  Uiso   1.00
Cu608  Cu    0.61978   0.83333   0.25000   0.00000  Uiso   1.00
H609   H     0.59445   0.78221   0.03962   0.00000  Uiso   1.00
H610   H     0.39864   0.85626   0.45503   0.00000  Uiso   1.00
H611   H     0.44867   0.82206   0.11252   0.00000  Uiso   1.00
H612   H     0.55449   0.85108   0.38917   0.00000  Uiso   1.00
H613   H     0.63779   0.85092   0.10709   0.00000  Uiso   1.00
H614   H     0.35919   0.80134   0.39020   0.00000  Uiso   1.00
H615   H     0.51271   0.79468   0.07870   0.00000  Uiso   1.00
H616   H     0.48071   0.84453   0.41612   0.00000  Uiso   1.00
H617   H     0.59081   0.70404   0.24993   0.00000  Uiso   1.00
H618   H     0.40914   0.96263   0.25026   0.00000  Uiso   1.00
H619   H     0.59083   0.96276   0.24982   0.00000  Uiso   1.00
H620   H     0.40911   0.70391   0.25037   0.00000  Uiso   1.00
H621   H     0.52800   0.79014   0.30344   0.00000  Uiso   1.00
H622   H     0.47199   0.87654   0.19658   0.00000  Uiso   1.00
H623   H     0.44095   0.79025   0.30347   0.00000  Uiso   1.00
H624   H     0.55904   0.87642   0.19654   0.00000  Uiso   1.00
N625   N     0.45069   0.83334   0.24999   0.00000  Uiso   1.00
N626   N     0.54931   0.83332   0.25001   0.00000  Uiso   1.00
O627   O     0.37291   0.77322   0.25000   0.00000  Uiso   1.00
O628   O     0.62709   0.89345   0.25000   0.00000  Uiso   1.00
O629   O     0.62706   0.77321   0.25000   0.00000  Uiso   1.00
O630   O     0.37294   0.89346   0.24999   0.00000  Uiso   1.00
O631   O     0.35186   0.83334   0.31491   0.00000  Uiso   1.00
O632   O     0.64814   0.83332   0.18508   0.00000  Uiso   1.00
O633   O     0.60600   0.83333   0.31492   0.00000  Uiso   1.00
O634   O     0.39400   0.83333   0.18508   0.00000  Uiso   1.00
O635   O     0.33557   0.77978   0.47485   0.00000  Uiso   1.00
C636   C     0.33567   0.73663   0.46947   0.00000  Uiso   1.00
H637   H     0.35012   0.72813   0.43350   0.00000  Uiso   1.00
H638   H     0.63152   0.72389   0.48209   0.00000  Uiso   1.00
C639   C     0.36721   0.71672   0.49680   0.00000  Uiso   1.00
H640   H     0.35516   0.72757   0.03206   0.00000  Uiso   1.00
H641   H     0.36246   0.68277   0.49703   0.00000  Uiso   1.00
C642   C     0.42105   0.72665   0.47742   0.00000  Uiso   1.00
H643   H     0.43401   0.71512   0.44252   0.00000  Uiso   1.00
H644   H     0.44255   0.71162   0.49817   0.00000  Uiso   1.00
H645   H     0.42717   0.76030   0.47752   0.00000  Uiso   1.00
O646   O     0.65799   0.85961   0.02004   0.00000  Uiso   1.00
C647   C     0.65080   0.90257   0.01991   0.00000  Uiso   1.00
H648   H     0.35214   0.91859   0.00310   0.00000  Uiso   1.00
H649   H     0.63683   0.91432   0.05478   0.00000  Uiso   1.00
C650   C     0.61325   0.91194   0.49404   0.00000  Uiso   1.00
H651   H     0.62558   0.89859   0.45986   0.00000  Uiso   1.00
H652   H     0.57798   0.89744   0.01165   0.00000  Uiso   1.00
C653   C     0.60583   0.95815   0.48985   0.00000  Uiso   1.00
H654   H     0.59489   0.97258   0.02353   0.00000  Uiso   1.00
H655   H     0.57676   0.96368   0.47276   0.00000  Uiso   1.00
H656   H     0.63987   0.97269   0.46956   0.00000  Uiso   1.00
C657   C     0.99998   0.75402   0.25007   0.00000  Uiso   1.00
C658   C     0.66667   0.91265   0.24998   0.00000  Uiso   1.00
C659   C     0.85640   0.80402   0.04399   0.00000  Uiso   1.00
C660   C     0.80531   0.84121   0.45205   0.00000  Uiso   1.00
C661   C     0.90428   0.79588   0.02115   0.00000  Uiso   1.00
C662   C     0.75686   0.84751   0.47449   0.00000  Uiso   1.00
C663   C     0.95742   0.68799   0.25000   0.00000  Uiso   1.00
C664   C     0.70920   0.97867   0.25018   0.00000  Uiso   1.00
C665   C     0.95742   0.97875   0.24994   0.00000  Uiso   1.00
C666   C     0.70919   0.68792   0.25024   0.00000  Uiso   1.00
C667   C     0.99998   0.95726   0.25002   0.00000  Uiso   1.00
C668   C     0.99998   0.70941   0.25012   0.00000  Uiso   1.00
C669   C     0.84953   0.80939   0.27970   0.00000  Uiso   1.00
C670   C     0.81714   0.85728   0.22031   0.00000  Uiso   1.00
C671   C     0.79990   0.80943   0.27971   0.00000  Uiso   1.00
C672   C     0.86676   0.85724   0.22029   0.00000  Uiso   1.00
C673   C     0.97276   0.83237   0.33607   0.00000  Uiso   1.00
C674   C     0.69391   0.83381   0.16386   0.00000  Uiso   1.00
C675   C     0.95752   0.82643   0.38482   0.00000  Uiso   1.00
C676   C     0.70884   0.83557   0.11465   0.00000  Uiso   1.00
C677   C     0.97074   0.79704   0.45275   0.00000  Uiso   1.00
C678   C     0.69162   0.85061   0.04362   0.00000  Uiso   1.00
C679   C     0.98842   0.80817   0.40761   0.00000  Uiso   1.00
C680   C     0.67575   0.84571   0.09016   0.00000  Uiso   1.00
C681   C     0.90932   0.83488   0.40756   0.00000  Uiso   1.00
C682   C     0.75749   0.82833   0.09226   0.00000  Uiso   1.00
C683   C     0.88988   0.82322   0.45255   0.00000  Uiso   1.00
C684   C     0.77420   0.83047   0.04528   0.00000  Uiso   1.00
C685   C     0.92175   0.80535   0.47566   0.00000  Uiso   1.00
C686   C     0.74077   0.84290   0.02097   0.00000  Uiso   1.00
C687   C     0.83981   0.82916   0.47514   0.00000  Uiso   1.00
C688   C     0.82341   0.82147   0.02206   0.00000  Uiso   1.00
Cu689  Cu    0.71355   0.83334   0.25000   0.00000  Uiso   1.00
Cu690  Cu    0.95311   0.83333   0.25000   0.00000  Uiso   1.00
H691   H     0.92778   0.78221   0.03962   0.00000  Uiso   1.00
H692   H     0.73197   0.85626   0.45503   0.00000  Uiso   1.00
H693   H     0.78200   0.82206   0.11252   0.00000  Uiso   1.00
H694   H     0.88783   0.85108   0.38917   0.00000  Uiso   1.00
H695   H     0.97113   0.85092   0.10709   0.00000  Uiso   1.00
H696   H     0.69252   0.80134   0.39020   0.00000  Uiso   1.00
H697   H     0.84605   0.79468   0.07870   0.00000  Uiso   1.00
H698   H     0.81404   0.84453   0.41612   0.00000  Uiso   1.00
H699   H     0.92414   0.70404   0.24993   0.00000  Uiso   1.00
H700   H     0.74247   0.96263   0.25026   0.00000  Uiso   1.00
H701   H     0.92417   0.96276   0.24982   0.00000  Uiso   1.00
H702   H     0.74245   0.70391   0.25037   0.00000  Uiso   1.00
H703   H     0.86134   0.79014   0.30344   0.00000  Uiso   1.00
H704   H     0.80532   0.87654   0.19658   0.00000  Uiso   1.00
H705   H     0.77429   0.79025   0.30347   0.00000  Uiso   1.00
H706   H     0.89237   0.87642   0.19654   0.00000  Uiso   1.00
N707   N     0.78403   0.83334   0.24999   0.00000  Uiso   1.00
N708   N     0.88264   0.83332   0.25001   0.00000  Uiso   1.00
O709   O     0.70625   0.77322   0.25000   0.00000  Uiso   1.00
O710   O     0.96042   0.89345   0.25000   0.00000  Uiso   1.00
O711   O     0.96039   0.77321   0.25000   0.00000  Uiso   1.00
O712   O     0.70628   0.89346   0.24999   0.00000  Uiso   1.00
O713   O     0.68519   0.83334   0.31491   0.00000  Uiso   1.00
O714   O     0.98148   0.83332   0.18508   0.00000  Uiso   1.00
O715   O     0.93933   0.83333   0.31492   0.00000  Uiso   1.00
O716   O     0.72733   0.83333   0.18508   0.00000  Uiso   1.00
O717   O     0.66890   0.77978   0.47485   0.00000  Uiso   1.00
C718   C     0.66900   0.73663   0.46947   0.00000  Uiso   1.00
H719   H     0.68345   0.72813   0.43350   0.00000  Uiso   1.00
H720   H     0.96486   0.72389   0.48209   0.00000  Uiso   1.00
C721   C     0.70054   0.71672   0.49680   0.00000  Uiso   1.00
H722   H     0.68849   0.72757   0.03206   0.00000  Uiso   1.00
H723   H     0.69580   0.68277   0.49703   0.00000  Uiso   1.00
C724   C     0.75438   0.72665   0.47742   0.00000  Uiso   1.00
H725   H     0.76734   0.71512   0.44252   0.00000  Uiso   1.00
H726   H     0.77588   0.71162   0.49817   0.00000  Uiso   1.00
H727   H     0.76050   0.76030   0.47752   0.00000  Uiso   1.00
O728   O     0.99133   0.85961   0.02004   0.00000  Uiso   1.00
C729   C     0.98413   0.90257   0.01991   0.00000  Uiso   1.00
H730   H     0.68548   0.91859   0.00310   0.00000  Uiso   1.00
H731   H     0.97016   0.91432   0.05478   0.00000  Uiso   1.00
C732   C     0.94658   0.91194   0.49404   0.00000  Uiso   1.00
H733   H     0.95891   0.89859   0.45986   0.00000  Uiso   1.00
H734   H     0.91131   0.89744   0.01165   0.00000  Uiso   1.00
C735   C     0.93916   0.95815   0.48985   0.00000  Uiso   1.00
H736   H     0.92822   0.97258   0.02353   0.00000  Uiso   1.00
H737   H     0.91009   0.96368   0.47276   0.00000  Uiso   1.00
H738   H     0.97321   0.97269   0.46956   0.00000  Uiso   1.00
C739   C     0.33332   0.08735   0.75007   0.00000  Uiso   1.00
C740   C     0.00000   0.24598   0.74998   0.00000  Uiso   1.00
C741   C     0.18973   0.13735   0.54399   0.00000  Uiso   1.00
C742   C     0.13864   0.17455   0.95205   0.00000  Uiso   1.00
C743   C     0.23761   0.12921   0.52115   0.00000  Uiso   1.00
C744   C     0.09020   0.18084   0.97449   0.00000  Uiso   1.00
C745   C     0.29075   0.02133   0.75000   0.00000  Uiso   1.00
C746   C     0.04253   0.31201   0.75018   0.00000  Uiso   1.00
C747   C     0.29076   0.31208   0.74994   0.00000  Uiso   1.00
C748   C     0.04252   0.02125   0.75024   0.00000  Uiso   1.00
C749   C     0.33332   0.29059   0.75002   0.00000  Uiso   1.00
C750   C     0.33331   0.04274   0.75012   0.00000  Uiso   1.00
C751   C     0.18286   0.14272   0.77970   0.00000  Uiso   1.00
C752   C     0.15047   0.19062   0.72031   0.00000  Uiso   1.00
C753   C     0.13323   0.14276   0.77971   0.00000  Uiso   1.00
C754   C     0.20010   0.19058   0.72029   0.00000  Uiso   1.00
C755   C     0.30609   0.16570   0.83607   0.00000  Uiso   1.00
C756   C     0.02725   0.16715   0.66386   0.00000  Uiso   1.00
C757   C     0.29085   0.15977   0.88482   0.00000  Uiso   1.00
C758   C     0.04218   0.16891   0.61465   0.00000  Uiso   1.00
C759   C     0.30407   0.13038   0.95275   0.00000  Uiso   1.00
C760   C     0.02495   0.18394   0.54362   0.00000  Uiso   1.00
C761   C     0.32175   0.14150   0.90761   0.00000  Uiso   1.00
C762   C     0.00909   0.17905   0.59016   0.00000  Uiso   1.00
C763   C     0.24266   0.16822   0.90756   0.00000  Uiso   1.00
C764   C     0.09083   0.16167   0.59226   0.00000  Uiso   1.00
C765   C     0.22322   0.15656   0.95255   0.00000  Uiso   1.00
C766   C     0.10753   0.16381   0.54528   0.00000  Uiso   1.00
C767   C     0.25508   0.13868   0.97566   0.00000  Uiso   1.00
C768   C     0.07411   0.17623   0.52097   0.00000  Uiso   1.00
C769   C     0.17314   0.16250   0.97514   0.00000  Uiso   1.00
C770   C     0.15674   0.15480   0.52206   0.00000  Uiso   1.00
Cu771  Cu    0.04689   0.16667   0.75000   0.00000  Uiso   1.00
Cu772  Cu    0.28645   0.16666   0.75000   0.00000  Uiso   1.00
H773   H     0.26111   0.11555   0.53962   0.00000  Uiso   1.00
H774   H     0.06531   0.18960   0.95503   0.00000  Uiso   1.00
H775   H     0.11534   0.15540   0.61252   0.00000  Uiso   1.00
H776   H     0.22116   0.18441   0.88917   0.00000  Uiso   1.00
H777   H     0.30446   0.18426   0.60709   0.00000  Uiso   1.00
H778   H     0.02586   0.13467   0.89020   0.00000  Uiso   1.00
H779   H     0.17938   0.12801   0.57870   0.00000  Uiso   1.00
H780   H     0.14737   0.17786   0.91612   0.00000  Uiso   1.00
H781   H     0.25748   0.03738   0.74993   0.00000  Uiso   1.00
H782   H     0.07580   0.29596   0.75026   0.00000  Uiso   1.00
H783   H     0.25750   0.29609   0.74982   0.00000  Uiso   1.00
H784   H     0.07578   0.03724   0.75037   0.00000  Uiso   1.00
H785   H     0.19467   0.12347   0.80344   0.00000  Uiso   1.00
H786   H     0.13866   0.20988   0.69658   0.00000  Uiso   1.00
H787   H     0.10762   0.12359   0.80347   0.00000  Uiso   1.00
H788   H     0.22571   0.20975   0.69654   0.00000  Uiso   1.00
N789   N     0.11736   0.16668   0.74999   0.00000  Uiso   1.00
N790   N     0.21597   0.16666   0.75001   0.00000  Uiso   1.00
O791   O     0.03958   0.10655   0.75000   0.00000  Uiso   1.00
O792   O     0.29375   0.22678   0.75000   0.00000  Uiso   1.00
O793   O     0.29372   0.10654   0.75000   0.00000  Uiso   1.00
O794   O     0.03961   0.22679   0.74999   0.00000  Uiso   1.00
O795   O     0.01852   0.16668   0.81491   0.00000  Uiso   1.00
O796   O     0.31481   0.16666   0.68508   0.00000  Uiso   1.00
O797   O     0.27267   0.16667   0.81492   0.00000  Uiso   1.00
O798   O     0.06067   0.16667   0.68508   0.00000  Uiso   1.00
O799   O     0.00224   0.11311   0.97485   0.00000  Uiso   1.00
C800   C     0.00234   0.06996   0.96947   0.00000  Uiso   1.00
H801   H     0.01678   0.06147   0.93350   0.00000  Uiso   1.00
H802   H     0.29819   0.05722   0.98209   0.00000  Uiso   1.00
C803   C     0.03388   0.05005   0.99680   0.00000  Uiso   1.00
H804   H     0.02183   0.06091   0.53206   0.00000  Uiso   1.00
H805   H     0.02913   0.01611   0.99703   0.00000  Uiso   1.00
C806   C     0.08772   0.05998   0.97742   0.00000  Uiso   1.00
H807   H     0.10068   0.04845   0.94252   0.00000  Uiso   1.00
H808   H     0.10921   0.04495   0.99817   0.00000  Uiso   1.00
H809   H     0.09383   0.09363   0.97752   0.00000  Uiso   1.00
O810   O     0.32466   0.19294   0.52004   0.00000  Uiso   1.00
C811   C     0.31747   0.23590   0.51991   0.00000  Uiso   1.00
H812   H     0.01881   0.25192   0.50310   0.00000  Uiso   1.00
H813   H     0.30350   0.24765   0.55478   0.00000  Uiso   1.00
C814   C     0.27991   0.24527   0.99404   0.00000  Uiso   1.00
H815   H     0.29225   0.23193   0.95986   0.00000  Uiso   1.00
H816   H     0.24465   0.23078   0.51165   0.00000  Uiso   1.00
C817   C     0.27250   0.29149   0.98985   0.00000  Uiso   1.00
H818   H     0.26156   0.30591   0.52353   0.00000  Uiso   1.00
H819   H     0.24343   0.29701   0.97276   0.00000  Uiso   1.00
H820   H     0.30654   0.30602   0.96956   0.00000  Uiso   1.00
C821   C     0.66665   0.08735   0.75007   0.00000  Uiso   1.00
C822   C     0.33334   0.24598   0.74998   0.00000  Uiso   1.00
C823   C     0.52306   0.13735   0.54399   0.00000  Uiso   1.00
C824   C     0.47197   0.17455   0.95205   0.00000  Uiso   1.00
C825   C     0.57095   0.12921   0.52115   0.00000  Uiso   1.00
C826   C     0.42353   0.18084   0.97449   0.00000  Uiso   1.00
C827   C     0.62408   0.02133   0.75000   0.00000  Uiso   1.00
C828   C     0.37586   0.31201   0.75018   0.00000  Uiso   1.00
C829   C     0.62409   0.31208   0.74994   0.00000  Uiso   1.00
C830   C     0.37586   0.02125   0.75024   0.00000  Uiso   1.00
C831   C     0.66665   0.29059   0.75002   0.00000  Uiso   1.00
C832   C     0.66664   0.04274   0.75012   0.00000  Uiso   1.00
C833   C     0.51619   0.14272   0.77970   0.00000  Uiso   1.00
C834   C     0.48380   0.19062   0.72031   0.00000  Uiso   1.00
C835   C     0.46657   0.14276   0.77971   0.00000  Uiso   1.00
C836   C     0.53343   0.19058   0.72029   0.00000  Uiso   1.00
C837   C     0.63942   0.16570   0.83607   0.00000  Uiso   1.00
C838   C     0.36058   0.16715   0.66386   0.00000  Uiso   1.00
C839   C     0.62418   0.15977   0.88482   0.00000  Uiso   1.00
C840   C     0.37551   0.16891   0.61465   0.00000  Uiso   1.00
C841   C     0.63741   0.13038   0.95275   0.00000  Uiso   1.00
C842   C     0.35828   0.18394   0.54362   0.00000  Uiso   1.00
C843   C     0.65509   0.14150   0.90761   0.00000  Uiso   1.00
C844   C     0.34242   0.17905   0.59016   0.00000  Uiso   1.00
C845   C     0.57599   0.16822   0.90756   0.00000  Uiso   1.00
C846   C     0.42416   0.16167   0.59226   0.00000  Uiso   1.00
C847   C     0.55655   0.15656   0.95255   0.00000  Uiso   1.00
C848   C     0.44087   0.16381   0.54528   0.00000  Uiso   1.00
C849   C     0.58842   0.13868   0.97566   0.00000  Uiso   1.00
C850   C     0.40744   0.17623   0.52097   0.00000  Uiso   1.00
C851   C     0.50647   0.16250   0.97514   0.00000  Uiso   1.00
C852   C     0.49008   0.15480   0.52206   0.00000  Uiso   1.00
Cu853  Cu    0.38022   0.16667   0.75000   0.00000  Uiso   1.00
Cu854  Cu    0.61978   0.16666   0.75000   0.00000  Uiso   1.00
H855   H     0.59445   0.11555   0.53962   0.00000  Uiso   1.00
H856   H     0.39864   0.18960   0.95503   0.00000  Uiso   1.00
H857   H     0.44867   0.15540   0.61252   0.00000  Uiso   1.00
H858   H     0.55449   0.18441   0.88917   0.00000  Uiso   1.00
H859   H     0.63779   0.18426   0.60709   0.00000  Uiso   1.00
H860   H     0.35919   0.13467   0.89020   0.00000  Uiso   1.00
H861   H     0.51271   0.12801   0.57870   0.00000  Uiso   1.00
H862   H     0.48071   0.17786   0.91612   0.00000  Uiso   1.00
H863   H     0.59081   0.03738   0.74993   0.00000  Uiso   1.00
H864   H     0.40914   0.29596   0.75026   0.00000  Uiso   1.00
H865   H     0.59083   0.29609   0.74982   0.00000  Uiso   1.00
H866   H     0.40911   0.03724   0.75037   0.00000  Uiso   1.00
H867   H     0.52800   0.12347   0.80344   0.00000  Uiso   1.00
H868   H     0.47199   0.20988   0.69658   0.00000  Uiso   1.00
H869   H     0.44095   0.12359   0.80347   0.00000  Uiso   1.00
H870   H     0.55904   0.20975   0.69654   0.00000  Uiso   1.00
N871   N     0.45069   0.16668   0.74999   0.00000  Uiso   1.00
N872   N     0.54931   0.16666   0.75001   0.00000  Uiso   1.00
O873   O     0.37291   0.10655   0.75000   0.00000  Uiso   1.00
O874   O     0.62709   0.22678   0.75000   0.00000  Uiso   1.00
O875   O     0.62706   0.10654   0.75000   0.00000  Uiso   1.00
O876   O     0.37294   0.22679   0.74999   0.00000  Uiso   1.00
O877   O     0.35186   0.16668   0.81491   0.00000  Uiso   1.00
O878   O     0.64814   0.16666   0.68508   0.00000  Uiso   1.00
O879   O     0.60600   0.16667   0.81492   0.00000  Uiso   1.00
O880   O     0.39400   0.16667   0.68508   0.00000  Uiso   1.00
O881   O     0.33557   0.11311   0.97485   0.00000  Uiso   1.00
C882   C     0.33567   0.06996   0.96947   0.00000  Uiso   1.00
H883   H     0.35012   0.06147   0.93350   0.00000  Uiso   1.00
H884   H     0.63152   0.05722   0.98209   0.00000  Uiso   1.00
C885   C     0.36721   0.05005   0.99680   0.00000  Uiso   1.00
H886   H     0.35516   0.06091   0.53206   0.00000  Uiso   1.00
H887   H     0.36246   0.01611   0.99703   0.00000  Uiso   1.00
C888   C     0.42105   0.05998   0.97742   0.00000  Uiso   1.00
H889   H     0.43401   0.04845   0.94252   0.00000  Uiso   1.00
H890   H     0.44255   0.04495   0.99817   0.00000  Uiso   1.00
H891   H     0.42717   0.09363   0.97752   0.00000  Uiso   1.00
O892   O     0.65799   0.19294   0.52004   0.00000  Uiso   1.00
C893   C     0.65080   0.23590   0.51991   0.00000  Uiso   1.00
H894   H     0.35214   0.25192   0.50310   0.00000  Uiso   1.00
H895   H     0.63683   0.24765   0.55478   0.00000  Uiso   1.00
C896   C     0.61325   0.24527   0.99404   0.00000  Uiso   1.00
H897   H     0.62558   0.23193   0.95986   0.00000  Uiso   1.00
H898   H     0.57798   0.23078   0.51165   0.00000  Uiso   1.00
C899   C     0.60583   0.29149   0.98985   0.00000  Uiso   1.00
H900   H     0.59489   0.30591   0.52353   0.00000  Uiso   1.00
H901   H     0.57676   0.29701   0.97276   0.00000  Uiso   1.00
H902   H     0.63987   0.30602   0.96956   0.00000  Uiso   1.00
C903   C     0.99998   0.08735   0.75007   0.00000  Uiso   1.00
C904   C     0.66667   0.24598   0.74998   0.00000  Uiso   1.00
C905   C     0.85640   0.13735   0.54399   0.00000  Uiso   1.00
C906   C     0.80531   0.17455   0.95205   0.00000  Uiso   1.00
C907   C     0.90428   0.12921   0.52115   0.00000  Uiso   1.00
C908   C     0.75686   0.18084   0.97449   0.00000  Uiso   1.00
C909   C     0.95742   0.02133   0.75000   0.00000  Uiso   1.00
C910   C     0.70920   0.31201   0.75018   0.00000  Uiso   1.00
C911   C     0.95742   0.31208   0.74994   0.00000  Uiso   1.00
C912   C     0.70919   0.02125   0.75024   0.00000  Uiso   1.00
C913   C     0.99998   0.29059   0.75002   0.00000  Uiso   1.00
C914   C     0.99998   0.04274   0.75012   0.00000  Uiso   1.00
C915   C     0.84953   0.14272   0.77970   0.00000  Uiso   1.00
C916   C     0.81714   0.19062   0.72031   0.00000  Uiso   1.00
C917   C     0.79990   0.14276   0.77971   0.00000  Uiso   1.00
C918   C     0.86676   0.19058   0.72029   0.00000  Uiso   1.00
C919   C     0.97276   0.16570   0.83607   0.00000  Uiso   1.00
C920   C     0.69391   0.16715   0.66386   0.00000  Uiso   1.00
C921   C     0.95752   0.15977   0.88482   0.00000  Uiso   1.00
C922   C     0.70884   0.16891   0.61465   0.00000  Uiso   1.00
C923   C     0.97074   0.13038   0.95275   0.00000  Uiso   1.00
C924   C     0.69162   0.18394   0.54362   0.00000  Uiso   1.00
C925   C     0.98842   0.14150   0.90761   0.00000  Uiso   1.00
C926   C     0.67575   0.17905   0.59016   0.00000  Uiso   1.00
C927   C     0.90932   0.16822   0.90756   0.00000  Uiso   1.00
C928   C     0.75749   0.16167   0.59226   0.00000  Uiso   1.00
C929   C     0.88988   0.15656   0.95255   0.00000  Uiso   1.00
C930   C     0.77420   0.16381   0.54528   0.00000  Uiso   1.00
C931   C     0.92175   0.13868   0.97566   0.00000  Uiso   1.00
C932   C     0.74077   0.17623   0.52097   0.00000  Uiso   1.00
C933   C     0.83981   0.16250   0.97514   0.00000  Uiso   1.00
C934   C     0.82341   0.15480   0.52206   0.00000  Uiso   1.00
Cu935  Cu    0.71355   0.16667   0.75000   0.00000  Uiso   1.00
Cu936  Cu    0.95311   0.16666   0.75000   0.00000  Uiso   1.00
H937   H     0.92778   0.11555   0.53962   0.00000  Uiso   1.00
H938   H     0.73197   0.18960   0.95503   0.00000  Uiso   1.00
H939   H     0.78200   0.15540   0.61252   0.00000  Uiso   1.00
H940   H     0.88783   0.18441   0.88917   0.00000  Uiso   1.00
H941   H     0.97113   0.18426   0.60709   0.00000  Uiso   1.00
H942   H     0.69252   0.13467   0.89020   0.00000  Uiso   1.00
H943   H     0.84605   0.12801   0.57870   0.00000  Uiso   1.00
H944   H     0.81404   0.17786   0.91612   0.00000  Uiso   1.00
H945   H     0.92414   0.03738   0.74993   0.00000  Uiso   1.00
H946   H     0.74247   0.29596   0.75026   0.00000  Uiso   1.00
H947   H     0.92417   0.29609   0.74982   0.00000  Uiso   1.00
H948   H     0.74245   0.03724   0.75037   0.00000  Uiso   1.00
H949   H     0.86134   0.12347   0.80344   0.00000  Uiso   1.00
H950   H     0.80532   0.20988   0.69658   0.00000  Uiso   1.00
H951   H     0.77429   0.12359   0.80347   0.00000  Uiso   1.00
H952   H     0.89237   0.20975   0.69654   0.00000  Uiso   1.00
N953   N     0.78403   0.16668   0.74999   0.00000  Uiso   1.00
N954   N     0.88264   0.16666   0.75001   0.00000  Uiso   1.00
O955   O     0.70625   0.10655   0.75000   0.00000  Uiso   1.00
O956   O     0.96042   0.22678   0.75000   0.00000  Uiso   1.00
O957   O     0.96039   0.10654   0.75000   0.00000  Uiso   1.00
O958   O     0.70628   0.22679   0.74999   0.00000  Uiso   1.00
O959   O     0.68519   0.16668   0.81491   0.00000  Uiso   1.00
O960   O     0.98148   0.16666   0.68508   0.00000  Uiso   1.00
O961   O     0.93933   0.16667   0.81492   0.00000  Uiso   1.00
O962   O     0.72733   0.16667   0.68508   0.00000  Uiso   1.00
O963   O     0.66890   0.11311   0.97485   0.00000  Uiso   1.00
C964   C     0.66900   0.06996   0.96947   0.00000  Uiso   1.00
H965   H     0.68345   0.06147   0.93350   0.00000  Uiso   1.00
H966   H     0.96486   0.05722   0.98209   0.00000  Uiso   1.00
C967   C     0.70054   0.05005   0.99680   0.00000  Uiso   1.00
H968   H     0.68849   0.06091   0.53206   0.00000  Uiso   1.00
H969   H     0.69580   0.01611   0.99703   0.00000  Uiso   1.00
C970   C     0.75438   0.05998   0.97742   0.00000  Uiso   1.00
H971   H     0.76734   0.04845   0.94252   0.00000  Uiso   1.00
H972   H     0.77588   0.04495   0.99817   0.00000  Uiso   1.00
H973   H     0.76050   0.09363   0.97752   0.00000  Uiso   1.00
O974   O     0.99133   0.19294   0.52004   0.00000  Uiso   1.00
C975   C     0.98413   0.23590   0.51991   0.00000  Uiso   1.00
H976   H     0.68548   0.25192   0.50310   0.00000  Uiso   1.00
H977   H     0.97016   0.24765   0.55478   0.00000  Uiso   1.00
C978   C     0.94658   0.24527   0.99404   0.00000  Uiso   1.00
H979   H     0.95891   0.23193   0.95986   0.00000  Uiso   1.00
H980   H     0.91131   0.23078   0.51165   0.00000  Uiso   1.00
C981   C     0.93916   0.29149   0.98985   0.00000  Uiso   1.00
H982   H     0.92822   0.30591   0.52353   0.00000  Uiso   1.00
H983   H     0.91009   0.29701   0.97276   0.00000  Uiso   1.00
H984   H     0.97321   0.30602   0.96956   0.00000  Uiso   1.00
C985   C     0.33332   0.42069   0.75007   0.00000  Uiso   1.00
C986   C     0.00000   0.57931   0.74998   0.00000  Uiso   1.00
C987   C     0.18973   0.47068   0.54399   0.00000  Uiso   1.00
C988   C     0.13864   0.50788   0.95205   0.00000  Uiso   1.00
C989   C     0.23761   0.46254   0.52115   0.00000  Uiso   1.00
C990   C     0.09020   0.51418   0.97449   0.00000  Uiso   1.00
C991   C     0.29075   0.35466   0.75000   0.00000  Uiso   1.00
C992   C     0.04253   0.64534   0.75018   0.00000  Uiso   1.00
C993   C     0.29076   0.64542   0.74994   0.00000  Uiso   1.00
C994   C     0.04252   0.35459   0.75024   0.00000  Uiso   1.00
C995   C     0.33332   0.62393   0.75002   0.00000  Uiso   1.00
C996   C     0.33331   0.37607   0.75012   0.00000  Uiso   1.00
C997   C     0.18286   0.47606   0.77970   0.00000  Uiso   1.00
C998   C     0.15047   0.52395   0.72031   0.00000  Uiso   1.00
C999   C     0.13323   0.47609   0.77971   0.00000  Uiso   1.00
C1000  C     0.20010   0.52391   0.72029   0.00000  Uiso   1.00
C1001  C     0.30609   0.49904   0.83607   0.00000  Uiso   1.00
C1002  C     0.02725   0.50048   0.66386   0.00000  Uiso   1.00
C1003  C     0.29085   0.49310   0.88482   0.00000  Uiso   1.00
C1004  C     0.04218   0.50224   0.61465   0.00000  Uiso   1.00
C1005  C     0.30407   0.46371   0.95275   0.00000  Uiso   1.00
C1006  C     0.02495   0.51728   0.54362   0.00000  Uiso   1.00
C1007  C     0.32175   0.47484   0.90761   0.00000  Uiso   1.00
C1008  C     0.00909   0.51238   0.59016   0.00000  Uiso   1.00
C1009  C     0.24266   0.50155   0.90756   0.00000  Uiso   1.00
C1010  C     0.09083   0.49500   0.59226   0.00000  Uiso   1.00
C1011  C     0.22322   0.48989   0.95255   0.00000  Uiso   1.00
C1012  C     0.10753   0.49714   0.54528   0.00000  Uiso   1.00
C1013  C     0.25508   0.47201   0.97566   0.00000  Uiso   1.00
C1014  C     0.07411   0.50956   0.52097   0.00000  Uiso   1.00
C1015  C     0.17314   0.49583   0.97514   0.00000  Uiso   1.00
C1016  C     0.15674   0.48814   0.52206   0.00000  Uiso   1.00
Cu1017 Cu    0.04689   0.50001   0.75000   0.00000  Uiso   1.00
Cu1018 Cu    0.28645   0.49999   0.75000   0.00000  Uiso   1.00
H1019  H     0.26111   0.44888   0.53962   0.00000  Uiso   1.00
H1020  H     0.06531   0.52293   0.95503   0.00000  Uiso   1.00
H1021  H     0.11534   0.48873   0.61252   0.00000  Uiso   1.00
H1022  H     0.22116   0.51774   0.88917   0.00000  Uiso   1.00
H1023  H     0.30446   0.51759   0.60709   0.00000  Uiso   1.00
H1024  H     0.02586   0.46800   0.89020   0.00000  Uiso   1.00
H1025  H     0.17938   0.46134   0.57870   0.00000  Uiso   1.00
H1026  H     0.14737   0.51119   0.91612   0.00000  Uiso   1.00
H1027  H     0.25748   0.37071   0.74993   0.00000  Uiso   1.00
H1028  H     0.07580   0.62929   0.75026   0.00000  Uiso   1.00
H1029  H     0.25750   0.62943   0.74982   0.00000  Uiso   1.00
H1030  H     0.07578   0.37057   0.75037   0.00000  Uiso   1.00
H1031  H     0.19467   0.45681   0.80344   0.00000  Uiso   1.00
H1032  H     0.13866   0.54321   0.69658   0.00000  Uiso   1.00
H1033  H     0.10762   0.45692   0.80347   0.00000  Uiso   1.00
H1034  H     0.22571   0.54309   0.69654   0.00000  Uiso   1.00
N1035  N     0.11736   0.50001   0.74999   0.00000  Uiso   1.00
N1036  N     0.21597   0.49999   0.75001   0.00000  Uiso   1.00
O1037  O     0.03958   0.43989   0.75000   0.00000  Uiso   1.00
O1038  O     0.29375   0.56011   0.75000   0.00000  Uiso   1.00
O1039  O     0.29372   0.43988   0.75000   0.00000  Uiso   1.00
O1040  O     0.03961   0.56012   0.74999   0.00000  Uiso   1.00
O1041  O     0.01852   0.50001   0.81491   0.00000  Uiso   1.00
O1042  O     0.31481   0.49999   0.68508   0.00000  Uiso   1.00
O1043  O     0.27267   0.50000   0.81492   0.00000  Uiso   1.00
O1044  O     0.06067   0.50000   0.68508   0.00000  Uiso   1.00
O1045  O     0.00224   0.44644   0.97485   0.00000  Uiso   1.00
C1046  C     0.00234   0.40329   0.96947   0.00000  Uiso   1.00
H1047  H     0.01678   0.39480   0.93350   0.00000  Uiso   1.00
H1048  H     0.29819   0.39055   0.98209   0.00000  Uiso   1.00
C1049  C     0.03388   0.38338   0.99680   0.00000  Uiso   1.00
H1050  H     0.02183   0.39424   0.53206   0.00000  Uiso   1.00
H1051  H     0.02913   0.34944   0.99703   0.00000  Uiso   1.00
C1052  C     0.08772   0.39331   0.97742   0.00000  Uiso   1.00
H1053  H     0.10068   0.38179   0.94252   0.00000  Uiso   1.00
H1054  H     0.10921   0.37828   0.99817   0.00000  Uiso   1.00
H1055  H     0.09383   0.42697   0.97752   0.00000  Uiso   1.00
O1056  O     0.32466   0.52628   0.52004   0.00000  Uiso   1.00
C1057  C     0.31747   0.56923   0.51991   0.00000  Uiso   1.00
H1058  H     0.01881   0.58525   0.50310   0.00000  Uiso   1.00
H1059  H     0.30350   0.58098   0.55478   0.00000  Uiso   1.00
C1060  C     0.27991   0.57861   0.99404   0.00000  Uiso   1.00
H1061  H     0.29225   0.56526   0.95986   0.00000  Uiso   1.00
H1062  H     0.24465   0.56411   0.51165   0.00000  Uiso   1.00
C1063  C     0.27250   0.62482   0.98985   0.00000  Uiso   1.00
H1064  H     0.26156   0.63924   0.52353   0.00000  Uiso   1.00
H1065  H     0.24343   0.63034   0.97276   0.00000  Uiso   1.00
H1066  H     0.30654   0.63936   0.96956   0.00000  Uiso   1.00
C1067  C     0.66665   0.42069   0.75007   0.00000  Uiso   1.00
C1068  C     0.33334   0.57931   0.74998   0.00000  Uiso   1.00
C1069  C     0.52306   0.47068   0.54399   0.00000  Uiso   1.00
C1070  C     0.47197   0.50788   0.95205   0.00000  Uiso   1.00
C1071  C     0.57095   0.46254   0.52115   0.00000  Uiso   1.00
C1072  C     0.42353   0.51418   0.97449   0.00000  Uiso   1.00
C1073  C     0.62408   0.35466   0.75000   0.00000  Uiso   1.00
C1074  C     0.37586   0.64534   0.75018   0.00000  Uiso   1.00
C1075  C     0.62409   0.64542   0.74994   0.00000  Uiso   1.00
C1076  C     0.37586   0.35459   0.75024   0.00000  Uiso   1.00
C1077  C     0.66665   0.62393   0.75002   0.00000  Uiso   1.00
C1078  C     0.66664   0.37607   0.75012   0.00000  Uiso   1.00
C1079  C     0.51619   0.47606   0.77970   0.00000  Uiso   1.00
C1080  C     0.48380   0.52395   0.72031   0.00000  Uiso   1.00
C1081  C     0.46657   0.47609   0.77971   0.00000  Uiso   1.00
C1082  C     0.53343   0.52391   0.72029   0.00000  Uiso   1.00
C1083  C     0.63942   0.49904   0.83607   0.00000  Uiso   1.00
C1084  C     0.36058   0.50048   0.66386   0.00000  Uiso   1.00
C1085  C     0.62418   0.49310   0.88482   0.00000  Uiso   1.00
C1086  C     0.37551   0.50224   0.61465   0.00000  Uiso   1.00
C1087  C     0.63741   0.46371   0.95275   0.00000  Uiso   1.00
C1088  C     0.35828   0.51728   0.54362   0.00000  Uiso   1.00
C1089  C     0.65509   0.47484   0.90761   0.00000  Uiso   1.00
C1090  C     0.34242   0.51238   0.59016   0.00000  Uiso   1.00
C1091  C     0.57599   0.50155   0.90756   0.00000  Uiso   1.00
C1092  C     0.42416   0.49500   0.59226   0.00000  Uiso   1.00
C1093  C     0.55655   0.48989   0.95255   0.00000  Uiso   1.00
C1094  C     0.44087   0.49714   0.54528   0.00000  Uiso   1.00
C1095  C     0.58842   0.47201   0.97566   0.00000  Uiso   1.00
C1096  C     0.40744   0.50956   0.52097   0.00000  Uiso   1.00
C1097  C     0.50647   0.49583   0.97514   0.00000  Uiso   1.00
C1098  C     0.49008   0.48814   0.52206   0.00000  Uiso   1.00
Cu1099 Cu    0.38022   0.50001   0.75000   0.00000  Uiso   1.00
Cu1100 Cu    0.61978   0.49999   0.75000   0.00000  Uiso   1.00
H1101  H     0.59445   0.44888   0.53962   0.00000  Uiso   1.00
H1102  H     0.39864   0.52293   0.95503   0.00000  Uiso   1.00
H1103  H     0.44867   0.48873   0.61252   0.00000  Uiso   1.00
H1104  H     0.55449   0.51774   0.88917   0.00000  Uiso   1.00
H1105  H     0.63779   0.51759   0.60709   0.00000  Uiso   1.00
H1106  H     0.35919   0.46800   0.89020   0.00000  Uiso   1.00
H1107  H     0.51271   0.46134   0.57870   0.00000  Uiso   1.00
H1108  H     0.48071   0.51119   0.91612   0.00000  Uiso   1.00
H1109  H     0.59081   0.37071   0.74993   0.00000  Uiso   1.00
H1110  H     0.40914   0.62929   0.75026   0.00000  Uiso   1.00
H1111  H     0.59083   0.62943   0.74982   0.00000  Uiso   1.00
H1112  H     0.40911   0.37057   0.75037   0.00000  Uiso   1.00
H1113  H     0.52800   0.45681   0.80344   0.00000  Uiso   1.00
H1114  H     0.47199   0.54321   0.69658   0.00000  Uiso   1.00
H1115  H     0.44095   0.45692   0.80347   0.00000  Uiso   1.00
H1116  H     0.55904   0.54309   0.69654   0.00000  Uiso   1.00
N1117  N     0.45069   0.50001   0.74999   0.00000  Uiso   1.00
N1118  N     0.54931   0.49999   0.75001   0.00000  Uiso   1.00
O1119  O     0.37291   0.43989   0.75000   0.00000  Uiso   1.00
O1120  O     0.62709   0.56011   0.75000   0.00000  Uiso   1.00
O1121  O     0.62706   0.43988   0.75000   0.00000  Uiso   1.00
O1122  O     0.37294   0.56012   0.74999   0.00000  Uiso   1.00
O1123  O     0.35186   0.50001   0.81491   0.00000  Uiso   1.00
O1124  O     0.64814   0.49999   0.68508   0.00000  Uiso   1.00
O1125  O     0.60600   0.50000   0.81492   0.00000  Uiso   1.00
O1126  O     0.39400   0.50000   0.68508   0.00000  Uiso   1.00
O1127  O     0.33557   0.44644   0.97485   0.00000  Uiso   1.00
C1128  C     0.33567   0.40329   0.96947   0.00000  Uiso   1.00
H1129  H     0.35012   0.39480   0.93350   0.00000  Uiso   1.00
H1130  H     0.63152   0.39055   0.98209   0.00000  Uiso   1.00
C1131  C     0.36721   0.38338   0.99680   0.00000  Uiso   1.00
H1132  H     0.35516   0.39424   0.53206   0.00000  Uiso   1.00
H1133  H     0.36246   0.34944   0.99703   0.00000  Uiso   1.00
C1134  C     0.42105   0.39331   0.97742   0.00000  Uiso   1.00
H1135  H     0.43401   0.38179   0.94252   0.00000  Uiso   1.00
H1136  H     0.44255   0.37828   0.99817   0.00000  Uiso   1.00
H1137  H     0.42717   0.42697   0.97752   0.00000  Uiso   1.00
O1138  O     0.65799   0.52628   0.52004   0.00000  Uiso   1.00
C1139  C     0.65080   0.56923   0.51991   0.00000  Uiso   1.00
H1140  H     0.35214   0.58525   0.50310   0.00000  Uiso   1.00
H1141  H     0.63683   0.58098   0.55478   0.00000  Uiso   1.00
C1142  C     0.61325   0.57861   0.99404   0.00000  Uiso   1.00
H1143  H     0.62558   0.56526   0.95986   0.00000  Uiso   1.00
H1144  H     0.57798   0.56411   0.51165   0.00000  Uiso   1.00
C1145  C     0.60583   0.62482   0.98985   0.00000  Uiso   1.00
H1146  H     0.59489   0.63924   0.52353   0.00000  Uiso   1.00
H1147  H     0.57676   0.63034   0.97276   0.00000  Uiso   1.00
H1148  H     0.63987   0.63936   0.96956   0.00000  Uiso   1.00
C1149  C     0.99998   0.42069   0.75007   0.00000  Uiso   1.00
C1150  C     0.66667   0.57931   0.74998   0.00000  Uiso   1.00
C1151  C     0.85640   0.47068   0.54399   0.00000  Uiso   1.00
C1152  C     0.80531   0.50788   0.95205   0.00000  Uiso   1.00
C1153  C     0.90428   0.46254   0.52115   0.00000  Uiso   1.00
C1154  C     0.75686   0.51418   0.97449   0.00000  Uiso   1.00
C1155  C     0.95742   0.35466   0.75000   0.00000  Uiso   1.00
C1156  C     0.70920   0.64534   0.75018   0.00000  Uiso   1.00
C1157  C     0.95742   0.64542   0.74994   0.00000  Uiso   1.00
C1158  C     0.70919   0.35459   0.75024   0.00000  Uiso   1.00
C1159  C     0.99998   0.62393   0.75002   0.00000  Uiso   1.00
C1160  C     0.99998   0.37607   0.75012   0.00000  Uiso   1.00
C1161  C     0.84953   0.47606   0.77970   0.00000  Uiso   1.00
C1162  C     0.81714   0.52395   0.72031   0.00000  Uiso   1.00
C1163  C     0.79990   0.47609   0.77971   0.00000  Uiso   1.00
C1164  C     0.86676   0.52391   0.72029   0.00000  Uiso   1.00
C1165  C     0.97276   0.49904   0.83607   0.00000  Uiso   1.00
C1166  C     0.69391   0.50048   0.66386   0.00000  Uiso   1.00
C1167  C     0.95752   0.49310   0.88482   0.00000  Uiso   1.00
C1168  C     0.70884   0.50224   0.61465   0.00000  Uiso   1.00
C1169  C     0.97074   0.46371   0.95275   0.00000  Uiso   1.00
C1170  C     0.69162   0.51728   0.54362   0.00000  Uiso   1.00
C1171  C     0.98842   0.47484   0.90761   0.00000  Uiso   1.00
C1172  C     0.67575   0.51238   0.59016   0.00000  Uiso   1.00
C1173  C     0.90932   0.50155   0.90756   0.00000  Uiso   1.00
C1174  C     0.75749   0.49500   0.59226   0.00000  Uiso   1.00
C1175  C     0.88988   0.48989   0.95255   0.00000  Uiso   1.00
C1176  C     0.77420   0.49714   0.54528   0.00000  Uiso   1.00
C1177  C     0.92175   0.47201   0.97566   0.00000  Uiso   1.00
C1178  C     0.74077   0.50956   0.52097   0.00000  Uiso   1.00
C1179  C     0.83981   0.49583   0.97514   0.00000  Uiso   1.00
C1180  C     0.82341   0.48814   0.52206   0.00000  Uiso   1.00
Cu1181 Cu    0.71355   0.50001   0.75000   0.00000  Uiso   1.00
Cu1182 Cu    0.95311   0.49999   0.75000   0.00000  Uiso   1.00
H1183  H     0.92778   0.44888   0.53962   0.00000  Uiso   1.00
H1184  H     0.73197   0.52293   0.95503   0.00000  Uiso   1.00
H1185  H     0.78200   0.48873   0.61252   0.00000  Uiso   1.00
H1186  H     0.88783   0.51774   0.88917   0.00000  Uiso   1.00
H1187  H     0.97113   0.51759   0.60709   0.00000  Uiso   1.00
H1188  H     0.69252   0.46800   0.89020   0.00000  Uiso   1.00
H1189  H     0.84605   0.46134   0.57870   0.00000  Uiso   1.00
H1190  H     0.81404   0.51119   0.91612   0.00000  Uiso   1.00
H1191  H     0.92414   0.37071   0.74993   0.00000  Uiso   1.00
H1192  H     0.74247   0.62929   0.75026   0.00000  Uiso   1.00
H1193  H     0.92417   0.62943   0.74982   0.00000  Uiso   1.00
H1194  H     0.74245   0.37057   0.75037   0.00000  Uiso   1.00
H1195  H     0.86134   0.45681   0.80344   0.00000  Uiso   1.00
H1196  H     0.80532   0.54321   0.69658   0.00000  Uiso   1.00
H1197  H     0.77429   0.45692   0.80347   0.00000  Uiso   1.00
H1198  H     0.89237   0.54309   0.69654   0.00000  Uiso   1.00
N1199  N     0.78403   0.50001   0.74999   0.00000  Uiso   1.00
N1200  N     0.88264   0.49999   0.75001   0.00000  Uiso   1.00
O1201  O     0.70625   0.43989   0.75000   0.00000  Uiso   1.00
O1202  O     0.96042   0.56011   0.75000   0.00000  Uiso   1.00
O1203  O     0.96039   0.43988   0.75000   0.00000  Uiso   1.00
O1204  O     0.70628   0.56012   0.74999   0.00000  Uiso   1.00
O1205  O     0.68519   0.50001   0.81491   0.00000  Uiso   1.00
O1206  O     0.98148   0.49999   0.68508   0.00000  Uiso   1.00
O1207  O     0.93933   0.50000   0.81492   0.00000  Uiso   1.00
O1208  O     0.72733   0.50000   0.68508   0.00000  Uiso   1.00
O1209  O     0.66890   0.44644   0.97485   0.00000  Uiso   1.00
C1210  C     0.66900   0.40329   0.96947   0.00000  Uiso   1.00
H1211  H     0.68345   0.39480   0.93350   0.00000  Uiso   1.00
H1212  H     0.96486   0.39055   0.98209   0.00000  Uiso   1.00
C1213  C     0.70054   0.38338   0.99680   0.00000  Uiso   1.00
H1214  H     0.68849   0.39424   0.53206   0.00000  Uiso   1.00
H1215  H     0.69580   0.34944   0.99703   0.00000  Uiso   1.00
C1216  C     0.75438   0.39331   0.97742   0.00000  Uiso   1.00
H1217  H     0.76734   0.38179   0.94252   0.00000  Uiso   1.00
H1218  H     0.77588   0.37828   0.99817   0.00000  Uiso   1.00
H1219  H     0.76050   0.42697   0.97752   0.00000  Uiso   1.00
O1220  O     0.99133   0.52628   0.52004   0.00000  Uiso   1.00
C1221  C     0.98413   0.56923   0.51991   0.00000  Uiso   1.00
H1222  H     0.68548   0.58525   0.50310   0.00000  Uiso   1.00
H1223  H     0.97016   0.58098   0.55478   0.00000  Uiso   1.00
C1224  C     0.94658   0.57861   0.99404   0.00000  Uiso   1.00
H1225  H     0.95891   0.56526   0.95986   0.00000  Uiso   1.00
H1226  H     0.91131   0.56411   0.51165   0.00000  Uiso   1.00
C1227  C     0.93916   0.62482   0.98985   0.00000  Uiso   1.00
H1228  H     0.92822   0.63924   0.52353   0.00000  Uiso   1.00
H1229  H     0.91009   0.63034   0.97276   0.00000  Uiso   1.00
H1230  H     0.97321   0.63936   0.96956   0.00000  Uiso   1.00
C1231  C     0.33332   0.75402   0.75007   0.00000  Uiso   1.00
C1232  C     0.00000   0.91265   0.74998   0.00000  Uiso   1.00
C1233  C     0.18973   0.80402   0.54399   0.00000  Uiso   1.00
C1234  C     0.13864   0.84121   0.95205   0.00000  Uiso   1.00
C1235  C     0.23761   0.79588   0.52115   0.00000  Uiso   1.00
C1236  C     0.09020   0.84751   0.97449   0.00000  Uiso   1.00
C1237  C     0.29075   0.68799   0.75000   0.00000  Uiso   1.00
C1238  C     0.04253   0.97867   0.75018   0.00000  Uiso   1.00
C1239  C     0.29076   0.97875   0.74994   0.00000  Uiso   1.00
C1240  C     0.04252   0.68792   0.75024   0.00000  Uiso   1.00
C1241  C     0.33332   0.95726   0.75002   0.00000  Uiso   1.00
C1242  C     0.33331   0.70941   0.75012   0.00000  Uiso   1.00
C1243  C     0.18286   0.80939   0.77970   0.00000  Uiso   1.00
C1244  C     0.15047   0.85728   0.72031   0.00000  Uiso   1.00
C1245  C     0.13323   0.80943   0.77971   0.00000  Uiso   1.00
C1246  C     0.20010   0.85724   0.72029   0.00000  Uiso   1.00
C1247  C     0.30609   0.83237   0.83607   0.00000  Uiso   1.00
C1248  C     0.02725   0.83381   0.66386   0.00000  Uiso   1.00
C1249  C     0.29085   0.82643   0.88482   0.00000  Uiso   1.00
C1250  C     0.04218   0.83557   0.61465   0.00000  Uiso   1.00
C1251  C     0.30407   0.79704   0.95275   0.00000  Uiso   1.00
C1252  C     0.02495   0.85061   0.54362   0.00000  Uiso   1.00
C1253  C     0.32175   0.80817   0.90761   0.00000  Uiso   1.00
C1254  C     0.00909   0.84571   0.59016   0.00000  Uiso   1.00
C1255  C     0.24266   0.83488   0.90756   0.00000  Uiso   1.00
C1256  C     0.09083   0.82833   0.59226   0.00000  Uiso   1.00
C1257  C     0.22322   0.82322   0.95255   0.00000  Uiso   1.00
C1258  C     0.10753   0.83047   0.54528   0.00000  Uiso   1.00
C1259  C     0.25508   0.80535   0.97566   0.00000  Uiso   1.00
C1260  C     0.07411   0.84290   0.52097   0.00000  Uiso   1.00
C1261  C     0.17314   0.82916   0.97514   0.00000  Uiso   1.00
C1262  C     0.15674   0.82147   0.52206   0.00000  Uiso   1.00
Cu1263 Cu    0.04689   0.83334   0.75000   0.00000  Uiso   1.00
Cu1264 Cu    0.28645   0.83333   0.75000   0.00000  Uiso   1.00
H1265  H     0.26111   0.78221   0.53962   0.00000  Uiso   1.00
H1266  H     0.06531   0.85626   0.95503   0.00000  Uiso   1.00
H1267  H     0.11534   0.82206   0.61252   0.00000  Uiso   1.00
H1268  H     0.22116   0.85108   0.88917   0.00000  Uiso   1.00
H1269  H     0.30446   0.85092   0.60709   0.00000  Uiso   1.00
H1270  H     0.02586   0.80134   0.89020   0.00000  Uiso   1.00
H1271  H     0.17938   0.79468   0.57870   0.00000  Uiso   1.00
H1272  H     0.14737   0.84453   0.91612   0.00000  Uiso   1.00
H1273  H     0.25748   0.70404   0.74993   0.00000  Uiso   1.00
H1274  H     0.07580   0.96263   0.75026   0.00000  Uiso   1.00
H1275  H     0.25750   0.96276   0.74982   0.00000  Uiso   1.00
H1276  H     0.07578   0.70391   0.75037   0.00000  Uiso   1.00
H1277  H     0.19467   0.79014   0.80344   0.00000  Uiso   1.00
H1278  H     0.13866   0.87654   0.69658   0.00000  Uiso   1.00
H1279  H     0.10762   0.79025   0.80347   0.00000  Uiso   1.00
H1280  H     0.22571   0.87642   0.69654   0.00000  Uiso   1.00
N1281  N     0.11736   0.83334   0.74999   0.00000  Uiso   1.00
N1282  N     0.21597   0.83332   0.75001   0.00000  Uiso   1.00
O1283  O     0.03958   0.77322   0.75000   0.00000  Uiso   1.00
O1284  O     0.29375   0.89345   0.75000   0.00000  Uiso   1.00
O1285  O     0.29372   0.77321   0.75000   0.00000  Uiso   1.00
O1286  O     0.03961   0.89346   0.74999   0.00000  Uiso   1.00
O1287  O     0.01852   0.83334   0.81491   0.00000  Uiso   1.00
O1288  O     0.31481   0.83332   0.68508   0.00000  Uiso   1.00
O1289  O     0.27267   0.83333   0.81492   0.00000  Uiso   1.00
O1290  O     0.06067   0.83333   0.68508   0.00000  Uiso   1.00
O1291  O     0.00224   0.77978   0.97485   0.00000  Uiso   1.00
C1292  C     0.00234   0.73663   0.96947   0.00000  Uiso   1.00
H1293  H     0.01678   0.72813   0.93350   0.00000  Uiso   1.00
H1294  H     0.29819   0.72389   0.98209   0.00000  Uiso   1.00
C1295  C     0.03388   0.71672   0.99680   0.00000  Uiso   1.00
H1296  H     0.02183   0.72757   0.53206   0.00000  Uiso   1.00
H1297  H     0.02913   0.68277   0.99703   0.00000  Uiso   1.00
C1298  C     0.08772   0.72665   0.97742   0.00000  Uiso   1.00
H1299  H     0.10068   0.71512   0.94252   0.00000  Uiso   1.00
H1300  H     0.10921   0.71162   0.99817   0.00000  Uiso   1.00
H1301  H     0.09383   0.76030   0.97752   0.00000  Uiso   1.00
O1302  O     0.32466   0.85961   0.52004   0.00000  Uiso   1.00
C1303  C     0.31747   0.90257   0.51991   0.00000  Uiso   1.00
H1304  H     0.01881   0.91859   0.50310   0.00000  Uiso   1.00
H1305  H     0.30350   0.91432   0.55478   0.00000  Uiso   1.00
C1306  C     0.27991   0.91194   0.99404   0.00000  Uiso   1.00
H1307  H     0.29225   0.89859   0.95986   0.00000  Uiso   1.00
H1308  H     0.24465   0.89744   0.51165   0.00000  Uiso   1.00
C1309  C     0.27250   0.95815   0.98985   0.00000  Uiso   1.00
H1310  H     0.26156   0.97258   0.52353   0.00000  Uiso   1.00
H1311  H     0.24343   0.96368   0.97276   0.00000  Uiso   1.00
H1312  H     0.30654   0.97269   0.96956   0.00000  Uiso   1.00
C1313  C     0.66665   0.75402   0.75007   0.00000  Uiso   1.00
C1314  C     0.33334   0.91265   0.74998   0.00000  Uiso   1.00
C1315  C     0.52306   0.80402   0.54399   0.00000  Uiso   1.00
C1316  C     0.47197   0.84121   0.95205   0.00000  Uiso   1.00
C1317  C     0.57095   0.79588   0.52115   0.00000  Uiso   1.00
C1318  C     0.42353   0.84751   0.97449   0.00000  Uiso   1.00
C1319  C     0.62408   0.68799   0.75000   0.00000  Uiso   1.00
C1320  C     0.37586   0.97867   0.75018   0.00000  Uiso   1.00
C1321  C     0.62409   0.97875   0.74994   0.00000  Uiso   1.00
C1322  C     0.37586   0.68792   0.75024   0.00000  Uiso   1.00
C1323  C     0.66665   0.95726   0.75002   0.00000  Uiso   1.00
C1324  C     0.66664   0.70941   0.75012   0.00000  Uiso   1.00
C1325  C     0.51619   0.80939   0.77970   0.00000  Uiso   1.00
C1326  C     0.48380   0.85728   0.72031   0.00000  Uiso   1.00
C1327  C     0.46657   0.80943   0.77971   0.00000  Uiso   1.00
C1328  C     0.53343   0.85724   0.72029   0.00000  Uiso   1.00
C1329  C     0.63942   0.83237   0.83607   0.00000  Uiso   1.00
C1330  C     0.36058   0.83381   0.66386   0.00000  Uiso   1.00
C1331  C     0.62418   0.82643   0.88482   0.00000  Uiso   1.00
C1332  C     0.37551   0.83557   0.61465   0.00000  Uiso   1.00
C1333  C     0.63741   0.79704   0.95275   0.00000  Uiso   1.00
C1334  C     0.35828   0.85061   0.54362   0.00000  Uiso   1.00
C1335  C     0.65509   0.80817   0.90761   0.00000  Uiso   1.00
C1336  C     0.34242   0.84571   0.59016   0.00000  Uiso   1.00
C1337  C     0.57599   0.83488   0.90756   0.00000  Uiso   1.00
C1338  C     0.42416   0.82833   0.59226   0.00000  Uiso   1.00
C1339  C     0.55655   0.82322   0.95255   0.00000  Uiso   1.00
C1340  C     0.44087   0.83047   0.54528   0.00000  Uiso   1.00
C1341  C     0.58842   0.80535   0.97566   0.00000  Uiso   1.00
C1342  C     0.40744   0.84290   0.52097   0.00000  Uiso   1.00
C1343  C     0.50647   0.82916   0.97514   0.00000  Uiso   1.00
C1344  C     0.49008   0.82147   0.52206   0.00000  Uiso   1.00
Cu1345 Cu    0.38022   0.83334   0.75000   0.00000  Uiso   1.00
Cu1346 Cu    0.61978   0.83333   0.75000   0.00000  Uiso   1.00
H1347  H     0.59445   0.78221   0.53962   0.00000  Uiso   1.00
H1348  H     0.39864   0.85626   0.95503   0.00000  Uiso   1.00
H1349  H     0.44867   0.82206   0.61252   0.00000  Uiso   1.00
H1350  H     0.55449   0.85108   0.88917   0.00000  Uiso   1.00
H1351  H     0.63779   0.85092   0.60709   0.00000  Uiso   1.00
H1352  H     0.35919   0.80134   0.89020   0.00000  Uiso   1.00
H1353  H     0.51271   0.79468   0.57870   0.00000  Uiso   1.00
H1354  H     0.48071   0.84453   0.91612   0.00000  Uiso   1.00
H1355  H     0.59081   0.70404   0.74993   0.00000  Uiso   1.00
H1356  H     0.40914   0.96263   0.75026   0.00000  Uiso   1.00
H1357  H     0.59083   0.96276   0.74982   0.00000  Uiso   1.00
H1358  H     0.40911   0.70391   0.75037   0.00000  Uiso   1.00
H1359  H     0.52800   0.79014   0.80344   0.00000  Uiso   1.00
H1360  H     0.47199   0.87654   0.69658   0.00000  Uiso   1.00
H1361  H     0.44095   0.79025   0.80347   0.00000  Uiso   1.00
H1362  H     0.55904   0.87642   0.69654   0.00000  Uiso   1.00
N1363  N     0.45069   0.83334   0.74999   0.00000  Uiso   1.00
N1364  N     0.54931   0.83332   0.75001   0.00000  Uiso   1.00
O1365  O     0.37291   0.77322   0.75000   0.00000  Uiso   1.00
O1366  O     0.62709   0.89345   0.75000   0.00000  Uiso   1.00
O1367  O     0.62706   0.77321   0.75000   0.00000  Uiso   1.00
O1368  O     0.37294   0.89346   0.74999   0.00000  Uiso   1.00
O1369  O     0.35186   0.83334   0.81491   0.00000  Uiso   1.00
O1370  O     0.64814   0.83332   0.68508   0.00000  Uiso   1.00
O1371  O     0.60600   0.83333   0.81492   0.00000  Uiso   1.00
O1372  O     0.39400   0.83333   0.68508   0.00000  Uiso   1.00
O1373  O     0.33557   0.77978   0.97485   0.00000  Uiso   1.00
C1374  C     0.33567   0.73663   0.96947   0.00000  Uiso   1.00
H1375  H     0.35012   0.72813   0.93350   0.00000  Uiso   1.00
H1376  H     0.63152   0.72389   0.98209   0.00000  Uiso   1.00
C1377  C     0.36721   0.71672   0.99680   0.00000  Uiso   1.00
H1378  H     0.35516   0.72757   0.53206   0.00000  Uiso   1.00
H1379  H     0.36246   0.68277   0.99703   0.00000  Uiso   1.00
C1380  C     0.42105   0.72665   0.97742   0.00000  Uiso   1.00
H1381  H     0.43401   0.71512   0.94252   0.00000  Uiso   1.00
H1382  H     0.44255   0.71162   0.99817   0.00000  Uiso   1.00
H1383  H     0.42717   0.76030   0.97752   0.00000  Uiso   1.00
O1384  O     0.65799   0.85961   0.52004   0.00000  Uiso   1.00
C1385  C     0.65080   0.90257   0.51991   0.00000  Uiso   1.00
H1386  H     0.35214   0.91859   0.50310   0.00000  Uiso   1.00
H1387  H     0.63683   0.91432   0.55478   0.00000  Uiso   1.00
C1388  C     0.61325   0.91194   0.99404   0.00000  Uiso   1.00
H1389  H     0.62558   0.89859   0.95986   0.00000  Uiso   1.00
H1390  H     0.57798   0.89744   0.51165   0.00000  Uiso   1.00
C1391  C     0.60583   0.95815   0.98985   0.00000  Uiso   1.00
H1392  H     0.59489   0.97258   0.52353   0.00000  Uiso   1.00
H1393  H     0.57676   0.96368   0.97276   0.00000  Uiso   1.00
H1394  H     0.63987   0.97269   0.96956   0.00000  Uiso   1.00
C1395  C     0.99998   0.75402   0.75007   0.00000  Uiso   1.00
C1396  C     0.66667   0.91265   0.74998   0.00000  Uiso   1.00
C1397  C     0.85640   0.80402   0.54399   0.00000  Uiso   1.00
C1398  C     0.80531   0.84121   0.95205   0.00000  Uiso   1.00
C1399  C     0.90428   0.79588   0.52115   0.00000  Uiso   1.00
C1400  C     0.75686   0.84751   0.97449   0.00000  Uiso   1.00
C1401  C     0.95742   0.68799   0.75000   0.00000  Uiso   1.00
C1402  C     0.70920   0.97867   0.75018   0.00000  Uiso   1.00
C1403  C     0.95742   0.97875   0.74994   0.00000  Uiso   1.00
C1404  C     0.70919   0.68792   0.75024   0.00000  Uiso   1.00
C1405  C     0.99998   0.95726   0.75002   0.00000  Uiso   1.00
C1406  C     0.99998   0.70941   0.75012   0.00000  Uiso   1.00
C1407  C     0.84953   0.80939   0.77970   0.00000  Uiso   1.00
C1408  C     0.81714   0.85728   0.72031   0.00000  Uiso   1.00
C1409  C     0.79990   0.80943   0.77971   0.00000  Uiso   1.00
C1410  C     0.86676   0.85724   0.72029   0.00000  Uiso   1.00
C1411  C     0.97276   0.83237   0.83607   0.00000  Uiso   1.00
C1412  C     0.69391   0.83381   0.66386   0.00000  Uiso   1.00
C1413  C     0.95752   0.82643   0.88482   0.00000  Uiso   1.00
C1414  C     0.70884   0.83557   0.61465   0.00000  Uiso   1.00
C1415  C     0.97074   0.79704   0.95275   0.00000  Uiso   1.00
C1416  C     0.69162   0.85061   0.54362   0.00000  Uiso   1.00
C1417  C     0.98842   0.80817   0.90761   0.00000  Uiso   1.00
C1418  C     0.67575   0.84571   0.59016   0.00000  Uiso   1.00
C1419  C     0.90932   0.83488   0.90756   0.00000  Uiso   1.00
C1420  C     0.75749   0.82833   0.59226   0.00000  Uiso   1.00
C1421  C     0.88988   0.82322   0.95255   0.00000  Uiso   1.00
C1422  C     0.77420   0.83047   0.54528   0.00000  Uiso   1.00
C1423  C     0.92175   0.80535   0.97566   0.00000  Uiso   1.00
C1424  C     0.74077   0.84290   0.52097   0.00000  Uiso   1.00
C1425  C     0.83981   0.82916   0.97514   0.00000  Uiso   1.00
C1426  C     0.82341   0.82147   0.52206   0.00000  Uiso   1.00
Cu1427 Cu    0.71355   0.83334   0.75000   0.00000  Uiso   1.00
Cu1428 Cu    0.95311   0.83333   0.75000   0.00000  Uiso   1.00
H1429  H     0.92778   0.78221   0.53962   0.00000  Uiso   1.00
H1430  H     0.73197   0.85626   0.95503   0.00000  Uiso   1.00
H1431  H     0.78200   0.82206   0.61252   0.00000  Uiso   1.00
H1432  H     0.88783   0.85108   0.88917   0.00000  Uiso   1.00
H1433  H     0.97113   0.85092   0.60709   0.00000  Uiso   1.00
H1434  H     0.69252   0.80134   0.89020   0.00000  Uiso   1.00
H1435  H     0.84605   0.79468   0.57870   0.00000  Uiso   1.00
H1436  H     0.81404   0.84453   0.91612   0.00000  Uiso   1.00
H1437  H     0.92414   0.70404   0.74993   0.00000  Uiso   1.00
H1438  H     0.74247   0.96263   0.75026   0.00000  Uiso   1.00
H1439  H     0.92417   0.96276   0.74982   0.00000  Uiso   1.00
H1440  H     0.74245   0.70391   0.75037   0.00000  Uiso   1.00
H1441  H     0.86134   0.79014   0.80344   0.00000  Uiso   1.00
H1442  H     0.80532   0.87654   0.69658   0.00000  Uiso   1.00
H1443  H     0.77429   0.79025   0.80347   0.00000  Uiso   1.00
H1444  H     0.89237   0.87642   0.69654   0.00000  Uiso   1.00
N1445  N     0.78403   0.83334   0.74999   0.00000  Uiso   1.00
N1446  N     0.88264   0.83332   0.75001   0.00000  Uiso   1.00
O1447  O     0.70625   0.77322   0.75000   0.00000  Uiso   1.00
O1448  O     0.96042   0.89345   0.75000   0.00000  Uiso   1.00
O1449  O     0.96039   0.77321   0.75000   0.00000  Uiso   1.00
O1450  O     0.70628   0.89346   0.74999   0.00000  Uiso   1.00
O1451  O     0.68519   0.83334   0.81491   0.00000  Uiso   1.00
O1452  O     0.98148   0.83332   0.68508   0.00000  Uiso   1.00
O1453  O     0.93933   0.83333   0.81492   0.00000  Uiso   1.00
O1454  O     0.72733   0.83333   0.68508   0.00000  Uiso   1.00
O1455  O     0.66890   0.77978   0.97485   0.00000  Uiso   1.00
C1456  C     0.66900   0.73663   0.96947   0.00000  Uiso   1.00
H1457  H     0.68345   0.72813   0.93350   0.00000  Uiso   1.00
H1458  H     0.96486   0.72389   0.98209   0.00000  Uiso   1.00
C1459  C     0.70054   0.71672   0.99680   0.00000  Uiso   1.00
H1460  H     0.68849   0.72757   0.53206   0.00000  Uiso   1.00
H1461  H     0.69580   0.68277   0.99703   0.00000  Uiso   1.00
C1462  C     0.75438   0.72665   0.97742   0.00000  Uiso   1.00
H1463  H     0.76734   0.71512   0.94252   0.00000  Uiso   1.00
H1464  H     0.77588   0.71162   0.99817   0.00000  Uiso   1.00
H1465  H     0.76050   0.76030   0.97752   0.00000  Uiso   1.00
O1466  O     0.99133   0.85961   0.52004   0.00000  Uiso   1.00
C1467  C     0.98413   0.90257   0.51991   0.00000  Uiso   1.00
H1468  H     0.68548   0.91859   0.50310   0.00000  Uiso   1.00
H1469  H     0.97016   0.91432   0.55478   0.00000  Uiso   1.00
C1470  C     0.94658   0.91194   0.99404   0.00000  Uiso   1.00
H1471  H     0.95891   0.89859   0.95986   0.00000  Uiso   1.00
H1472  H     0.91131   0.89744   0.51165   0.00000  Uiso   1.00
C1473  C     0.93916   0.95815   0.98985   0.00000  Uiso   1.00
H1474  H     0.92822   0.97258   0.52353   0.00000  Uiso   1.00
H1475  H     0.91009   0.96368   0.97276   0.00000  Uiso   1.00
H1476  H     0.97321   0.97269   0.96956   0.00000  Uiso   1.00
loop_
_geom_bond_atom_site_label_1
_geom_bond_atom_site_label_2
_geom_bond_distance
_geom_bond_site_symmetry_2
_ccdc_geom_bond_type
C1     C12     1.449   .     S
C1     O55     1.290   .     A
C1     O135    1.291   .     S
C2     O56     1.290   .     A
C2     C175    1.449   1_455 S
C2     O218    1.291   1_455 S
C3     H41     1.076   .     S
C3     C5      1.386   .     A
C3     C32     1.416   .     A
C4     H42     1.077   .     S
C4     C6      1.387   .     A
C4     C31     1.416   .     A
C5     H35     1.084   .     S
C5     C767    1.394   1_554 S
C6     H36     1.084   .     S
C6     C768    1.395   .     S
C7     C12     1.401   .     A
C7     H43     1.083   .     S
C7     C501    1.383   1_545 S
C8     H44     1.083   .     S
C8     C256    1.383   .     S
C8     C175    1.401   1_455 S
C9     H45     1.083   .     S
C9     C11     1.401   .     A
C9     C253    1.383   .     S
C10    H46     1.083   .     S
C10    C500    1.383   1_545 S
C10    C176    1.401   1_455 S
C11    C90     1.401   .     S
C11    C84     1.449   .     S
C12    C92     1.401   .     S
C13    N52     1.367   .     A
C13    C15     1.416   .     A
C13    H47     1.082   .     S
C14    C16     1.416   .     A
C14    H48     1.082   .     S
C14    N51     1.367   .     A
C15    N51     1.367   .     A
C15    H49     1.082   .     S
C16    N52     1.367   .     A
C16    H50     1.082   .     S
C17    O59     1.293   .     A
C17    C19     1.465   .     S
C17    O139    1.295   .     S
C18    O60     1.294   .     A
C18    C20     1.468   .     S
C18    O222    1.296   1_455 S
C19    C23     1.398   .     A
C19    C25     1.395   .     A
C20    C26     1.396   .     A
C20    C24     1.397   .     A
C21    C29     1.415   .     A
C21    C23     1.397   .     A
C21    O143    1.383   .     S
C22    C24     1.397   .     A
C22    C30     1.413   .     A
C22    O236    1.382   1_455 S
C23    H122    1.084   .     S
C24    H203    1.083   1_455 S
C25    H38     1.076   .     S
C25    C27     1.404   .     A
C26    H37     1.075   .     S
C26    C28     1.404   .     A
C27    C29     1.420   .     A
C27    C31     1.426   .     A
C28    C32     1.427   .     A
C28    C30     1.420   .     A
C29    C743    1.394   .     S
C30    C744    1.395   1_554 S
C31    C770    1.422   .     S
C32    C769    1.422   1_554 S
Cu33   O56     1.964   .     S
Cu33   O53     1.964   .     S
Cu33   O60     1.941   .     S
Cu33   O57     1.954   .     S
Cu33   N51     2.011   .     S
Cu33   Cu198   2.676   1_455 S
Cu34   O55     1.964   .     S
Cu34   O54     1.964   .     S
Cu34   O59     1.941   .     S
Cu34   N52     2.011   .     S
Cu34   O58     1.954   .     S
Cu34   Cu115   2.676   .     S
H39    C106    1.083   .     S
H40    C187    1.084   1_455 S
O53    C165    1.291   1_455 S
O54    C84     1.291   .     S
O57    C181    1.295   1_455 S
O58    C100    1.296   .     S
O61    C62     1.412   .     S
O61    C185    1.383   1_455 S
C62    H63     1.115   .     S
C62    C65     1.530   .     S
C62    H228    1.115   1_455 S
H64    C144    1.115   .     S
C65    H67     1.111   .     S
C65    C68     1.527   .     S
C65    H804    1.112   .     S
H66    C803    1.112   1_554 S
C68    H69     1.111   .     S
C68    H71     1.107   .     S
C68    H70     1.110   .     S
O72    C73     1.410   .     S
O72    C104    1.382   .     S
C73    H75     1.115   .     S
C73    H156    1.115   .     S
C73    C814    1.529   1_554 S
H74    C237    1.115   1_455 S
C76    C79     1.525   .     S
C76    H77     1.112   .     S
C76    C811    1.529   .     S
C76    H816    1.112   .     S
H78    C814    1.112   1_554 S
C79    H81     1.110   .     S
C79    H82     1.110   .     S
C79    H818    1.111   .     S
H80    C817    1.111   1_554 S
C83    C94     1.449   .     S
C83    O137    1.290   .     A
C83    O217    1.291   .     S
C84    O138    1.290   .     A
C85    H123    1.076   .     S
C85    C87     1.386   .     A
C85    C114    1.416   .     A
C86    H124    1.077   .     S
C86    C88     1.387   .     A
C86    C113    1.416   .     A
C87    H117    1.084   .     S
C87    C849    1.394   1_554 S
C88    H118    1.084   .     S
C88    C850    1.395   .     S
C89    C94     1.401   .     A
C89    H125    1.083   .     S
C89    C583    1.383   1_545 S
C90    H126    1.083   .     S
C90    C338    1.383   .     S
C91    H127    1.083   .     S
C91    C93     1.401   .     A
C91    C335    1.383   .     S
C92    H128    1.083   .     S
C92    C582    1.383   1_545 S
C93    C172    1.401   .     S
C93    C166    1.449   .     S
C94    C174    1.401   .     S
C95    N134    1.367   .     A
C95    C97     1.416   .     A
C95    H129    1.082   .     S
C96    C98     1.416   .     A
C96    H130    1.082   .     S
C96    N133    1.367   .     A
C97    N133    1.367   .     A
C97    H131    1.082   .     S
C98    N134    1.367   .     A
C98    H132    1.082   .     S
C99    O141    1.293   .     A
C99    C101    1.465   .     S
C99    O221    1.295   .     S
C100   O142    1.294   .     A
C100   C102    1.468   .     S
C101   C105    1.398   .     A
C101   C107    1.395   .     A
C102   C108    1.396   .     A
C102   C106    1.397   .     A
C103   C111    1.415   .     A
C103   C105    1.397   .     A
C103   O225    1.383   .     S
C104   C106    1.397   .     A
C104   C112    1.413   .     A
C105   H204    1.084   .     S
C107   H120    1.076   .     S
C107   C109    1.404   .     A
C108   H119    1.075   .     S
C108   C110    1.404   .     A
C109   C111    1.420   .     A
C109   C113    1.426   .     A
C110   C114    1.427   .     A
C110   C112    1.420   .     A
C111   C825    1.394   .     S
C112   C826    1.395   1_554 S
C113   C852    1.422   .     S
C114   C851    1.422   1_554 S
Cu115  O138    1.964   .     S
Cu115  O135    1.964   .     S
Cu115  O142    1.941   .     S
Cu115  O139    1.954   .     S
Cu115  N133    2.011   .     S
Cu116  O137    1.964   .     S
Cu116  O136    1.964   .     S
Cu116  O141    1.941   .     S
Cu116  N134    2.011   .     S
Cu116  O140    1.954   .     S
Cu116  Cu197   2.676   .     S
H121   C188    1.083   .     S
O136   C166    1.291   .     S
O140   C182    1.296   .     S
O143   C144    1.412   .     S
C144   H145    1.115   .     S
C144   C147    1.530   .     S
H146   C226    1.115   .     S
C147   H149    1.111   .     S
C147   C150    1.527   .     S
C147   H886    1.112   .     S
H148   C885    1.112   1_554 S
C150   H151    1.111   .     S
C150   H153    1.107   .     S
C150   H152    1.110   .     S
O154   C155    1.410   .     S
O154   C186    1.382   .     S
C155   H157    1.115   .     S
C155   H238    1.115   .     S
C155   C896    1.529   1_554 S
C158   C161    1.525   .     S
C158   H159    1.112   .     S
C158   C893    1.529   .     S
C158   H898    1.112   .     S
H160   C896    1.112   1_554 S
C161   H163    1.110   .     S
C161   H164    1.110   .     S
C161   H900    1.111   .     S
H162   C899    1.111   1_554 S
C165   C176    1.449   .     S
C165   O219    1.290   .     A
C165   O53     1.291   1_655 S
C166   O220    1.290   .     A
C167   H205    1.076   .     S
C167   C169    1.386   .     A
C167   C196    1.416   .     A
C168   H206    1.077   .     S
C168   C170    1.387   .     A
C168   C195    1.416   .     A
C169   H199    1.084   .     S
C169   C931    1.394   1_554 S
C170   H200    1.084   .     S
C170   C932    1.395   .     S
C171   C176    1.401   .     A
C171   H207    1.083   .     S
C171   C665    1.383   1_545 S
C172   H208    1.083   .     S
C172   C420    1.383   .     S
C173   H209    1.083   .     S
C173   C175    1.401   .     A
C173   C417    1.383   .     S
C174   H210    1.083   .     S
C174   C664    1.383   1_545 S
C175   C8      1.401   1_655 S
C175   C2      1.449   1_655 S
C176   C10     1.401   1_655 S
C177   N216    1.367   .     A
C177   C179    1.416   .     A
C177   H211    1.082   .     S
C178   C180    1.416   .     A
C178   H212    1.082   .     S
C178   N215    1.367   .     A
C179   N215    1.367   .     A
C179   H213    1.082   .     S
C180   N216    1.367   .     A
C180   H214    1.082   .     S
C181   O223    1.293   .     A
C181   C183    1.465   .     S
C181   O57     1.295   1_655 S
C182   O224    1.294   .     A
C182   C184    1.468   .     S
C183   C187    1.398   .     A
C183   C189    1.395   .     A
C184   C190    1.396   .     A
C184   C188    1.397   .     A
C185   C193    1.415   .     A
C185   C187    1.397   .     A
C185   O61     1.383   1_655 S
C186   C188    1.397   .     A
C186   C194    1.413   .     A
C187   H40     1.084   1_655 S
C189   H202    1.076   .     S
C189   C191    1.404   .     A
C190   H201    1.075   .     S
C190   C192    1.404   .     A
C191   C193    1.420   .     A
C191   C195    1.426   .     A
C192   C196    1.427   .     A
C192   C194    1.420   .     A
C193   C907    1.394   .     S
C194   C908    1.395   1_554 S
C195   C934    1.422   .     S
C196   C933    1.422   1_554 S
Cu197  O220    1.964   .     S
Cu197  O217    1.964   .     S
Cu197  O224    1.941   .     S
Cu197  O221    1.954   .     S
Cu197  N215    2.011   .     S
Cu198  O219    1.964   .     S
Cu198  O218    1.964   .     S
Cu198  O223    1.941   .     S
Cu198  N216    2.011   .     S
Cu198  O222    1.954   .     S
Cu198  Cu33    2.676   1_655 S
H203   C24     1.083   1_655 S
O218   C2      1.291   1_655 S
O222   C18     1.296   1_655 S
O225   C226    1.412   .     S
C226   H227    1.115   .     S
C226   C229    1.530   .     S
H228   C62     1.115   1_655 S
C229   H231    1.111   .     S
C229   C232    1.527   .     S
C229   H968    1.112   .     S
H230   C967    1.112   1_554 S
C232   H233    1.111   .     S
C232   H235    1.107   .     S
C232   H234    1.110   .     S
O236   C237    1.410   .     S
O236   C22     1.382   1_655 S
C237   H239    1.115   .     S
C237   H74     1.115   1_655 S
C237   C978    1.529   1_554 S
C240   C243    1.525   .     S
C240   H241    1.112   .     S
C240   C975    1.529   .     S
C240   H980    1.112   .     S
H242   C978    1.112   1_554 S
C243   H245    1.110   .     S
C243   H246    1.110   .     S
C243   H982    1.111   .     S
H244   C981    1.111   1_554 S
C247   C258    1.449   .     S
C247   O301    1.290   .     A
C247   O381    1.291   .     S
C248   O302    1.290   .     A
C248   C421    1.449   1_455 S
C248   O464    1.291   1_455 S
C249   H287    1.076   .     S
C249   C251    1.386   .     A
C249   C278    1.416   .     A
C250   H288    1.077   .     S
C250   C252    1.387   .     A
C250   C277    1.416   .     A
C251   H281    1.084   .     S
C251   C1013   1.394   1_554 S
C252   H282    1.084   .     S
C252   C1014   1.395   .     S
C253   C258    1.401   .     A
C253   H289    1.083   .     S
C254   H290    1.083   .     S
C254   C502    1.383   .     S
C254   C421    1.401   1_455 S
C255   H291    1.083   .     S
C255   C257    1.401   .     A
C255   C499    1.383   .     S
C256   H292    1.083   .     S
C256   C422    1.401   1_455 S
C257   C336    1.401   .     S
C257   C330    1.449   .     S
C258   C338    1.401   .     S
C259   N298    1.367   .     A
C259   C261    1.416   .     A
C259   H293    1.082   .     S
C260   C262    1.416   .     A
C260   H294    1.082   .     S
C260   N297    1.367   .     A
C261   N297    1.367   .     A
C261   H295    1.082   .     S
C262   N298    1.367   .     A
C262   H296    1.082   .     S
C263   O305    1.293   .     A
C263   C265    1.465   .     S
C263   O385    1.295   .     S
C264   O306    1.294   .     A
C264   C266    1.468   .     S
C264   O468    1.296   1_455 S
C265   C269    1.398   .     A
C265   C271    1.395   .     A
C266   C272    1.396   .     A
C266   C270    1.397   .     A
C267   C275    1.415   .     A
C267   C269    1.397   .     A
C267   O389    1.383   .     S
C268   C270    1.397   .     A
C268   C276    1.413   .     A
C268   O482    1.382   1_455 S
C269   H368    1.084   .     S
C270   H449    1.083   1_455 S
C271   H284    1.076   .     S
C271   C273    1.404   .     A
C272   H283    1.075   .     S
C272   C274    1.404   .     A
C273   C275    1.420   .     A
C273   C277    1.426   .     A
C274   C278    1.427   .     A
C274   C276    1.420   .     A
C275   C989    1.394   .     S
C276   C990    1.395   1_554 S
C277   C1016   1.422   .     S
C278   C1015   1.422   1_554 S
Cu279  O302    1.964   .     S
Cu279  O299    1.964   .     S
Cu279  O306    1.941   .     S
Cu279  O303    1.954   .     S
Cu279  N297    2.011   .     S
Cu279  Cu444   2.676   1_455 S
Cu280  O301    1.964   .     S
Cu280  O300    1.964   .     S
Cu280  O305    1.941   .     S
Cu280  N298    2.011   .     S
Cu280  O304    1.954   .     S
Cu280  Cu361   2.676   .     S
H285   C352    1.083   .     S
H286   C433    1.084   1_455 S
O299   C411    1.291   1_455 S
O300   C330    1.291   .     S
O303   C427    1.295   1_455 S
O304   C346    1.296   .     S
O307   C308    1.412   .     S
O307   C431    1.383   1_455 S
C308   H309    1.115   .     S
C308   C311    1.530   .     S
C308   H474    1.115   1_455 S
H310   C390    1.115   .     S
C311   H313    1.111   .     S
C311   C314    1.527   .     S
C311   H1050   1.112   .     S
H312   C1049   1.112   1_554 S
C314   H315    1.111   .     S
C314   H317    1.107   .     S
C314   H316    1.110   .     S
O318   C319    1.410   .     S
O318   C350    1.382   .     S
C319   H321    1.115   .     S
C319   H402    1.115   .     S
C319   C1060   1.529   1_554 S
H320   C483    1.115   1_455 S
C322   C325    1.525   .     S
C322   H323    1.112   .     S
C322   C1057   1.529   .     S
C322   H1062   1.112   .     S
H324   C1060   1.112   1_554 S
C325   H327    1.110   .     S
C325   H328    1.110   .     S
C325   H1064   1.111   .     S
H326   C1063   1.111   1_554 S
C329   C340    1.449   .     S
C329   O383    1.290   .     A
C329   O463    1.291   .     S
C330   O384    1.290   .     A
C331   H369    1.076   .     S
C331   C333    1.386   .     A
C331   C360    1.416   .     A
C332   H370    1.077   .     S
C332   C334    1.387   .     A
C332   C359    1.416   .     A
C333   H363    1.084   .     S
C333   C1095   1.394   1_554 S
C334   H364    1.084   .     S
C334   C1096   1.395   .     S
C335   C340    1.401   .     A
C335   H371    1.083   .     S
C336   H372    1.083   .     S
C336   C584    1.383   .     S
C337   H373    1.083   .     S
C337   C339    1.401   .     A
C337   C581    1.383   .     S
C338   H374    1.083   .     S
C339   C418    1.401   .     S
C339   C412    1.449   .     S
C340   C420    1.401   .     S
C341   N380    1.367   .     A
C341   C343    1.416   .     A
C341   H375    1.082   .     S
C342   C344    1.416   .     A
C342   H376    1.082   .     S
C342   N379    1.367   .     A
C343   N379    1.367   .     A
C343   H377    1.082   .     S
C344   N380    1.367   .     A
C344   H378    1.082   .     S
C345   O387    1.293   .     A
C345   C347    1.465   .     S
C345   O467    1.295   .     S
C346   O388    1.294   .     A
C346   C348    1.468   .     S
C347   C351    1.398   .     A
C347   C353    1.395   .     A
C348   C354    1.396   .     A
C348   C352    1.397   .     A
C349   C357    1.415   .     A
C349   C351    1.397   .     A
C349   O471    1.383   .     S
C350   C352    1.397   .     A
C350   C358    1.413   .     A
C351   H450    1.084   .     S
C353   H366    1.076   .     S
C353   C355    1.404   .     A
C354   H365    1.075   .     S
C354   C356    1.404   .     A
C355   C357    1.420   .     A
C355   C359    1.426   .     A
C356   C360    1.427   .     A
C356   C358    1.420   .     A
C357   C1071   1.394   .     S
C358   C1072   1.395   1_554 S
C359   C1098   1.422   .     S
C360   C1097   1.422   1_554 S
Cu361  O384    1.964   .     S
Cu361  O381    1.964   .     S
Cu361  O388    1.941   .     S
Cu361  O385    1.954   .     S
Cu361  N379    2.011   .     S
Cu362  O383    1.964   .     S
Cu362  O382    1.964   .     S
Cu362  O387    1.941   .     S
Cu362  N380    2.011   .     S
Cu362  O386    1.954   .     S
Cu362  Cu443   2.676   .     S
H367   C434    1.083   .     S
O382   C412    1.291   .     S
O386   C428    1.296   .     S
O389   C390    1.412   .     S
C390   H391    1.115   .     S
C390   C393    1.530   .     S
H392   C472    1.115   .     S
C393   H395    1.111   .     S
C393   C396    1.527   .     S
C393   H1132   1.112   .     S
H394   C1131   1.112   1_554 S
C396   H397    1.111   .     S
C396   H399    1.107   .     S
C396   H398    1.110   .     S
O400   C401    1.410   .     S
O400   C432    1.382   .     S
C401   H403    1.115   .     S
C401   H484    1.115   .     S
C401   C1142   1.529   1_554 S
C404   C407    1.525   .     S
C404   H405    1.112   .     S
C404   C1139   1.529   .     S
C404   H1144   1.112   .     S
H406   C1142   1.112   1_554 S
C407   H409    1.110   .     S
C407   H410    1.110   .     S
C407   H1146   1.111   .     S
H408   C1145   1.111   1_554 S
C411   C422    1.449   .     S
C411   O465    1.290   .     A
C411   O299    1.291   1_655 S
C412   O466    1.290   .     A
C413   H451    1.076   .     S
C413   C415    1.386   .     A
C413   C442    1.416   .     A
C414   H452    1.077   .     S
C414   C416    1.387   .     A
C414   C441    1.416   .     A
C415   H445    1.084   .     S
C415   C1177   1.394   1_554 S
C416   H446    1.084   .     S
C416   C1178   1.395   .     S
C417   C422    1.401   .     A
C417   H453    1.083   .     S
C418   H454    1.083   .     S
C418   C666    1.383   .     S
C419   H455    1.083   .     S
C419   C421    1.401   .     A
C419   C663    1.383   .     S
C420   H456    1.083   .     S
C421   C254    1.401   1_655 S
C421   C248    1.449   1_655 S
C422   C256    1.401   1_655 S
C423   N462    1.367   .     A
C423   C425    1.416   .     A
C423   H457    1.082   .     S
C424   C426    1.416   .     A
C424   H458    1.082   .     S
C424   N461    1.367   .     A
C425   N461    1.367   .     A
C425   H459    1.082   .     S
C426   N462    1.367   .     A
C426   H460    1.082   .     S
C427   O469    1.293   .     A
C427   C429    1.465   .     S
C427   O303    1.295   1_655 S
C428   O470    1.294   .     A
C428   C430    1.468   .     S
C429   C433    1.398   .     A
C429   C435    1.395   .     A
C430   C436    1.396   .     A
C430   C434    1.397   .     A
C431   C439    1.415   .     A
C431   C433    1.397   .     A
C431   O307    1.383   1_655 S
C432   C434    1.397   .     A
C432   C440    1.413   .     A
C433   H286    1.084   1_655 S
C435   H448    1.076   .     S
C435   C437    1.404   .     A
C436   H447    1.075   .     S
C436   C438    1.404   .     A
C437   C439    1.420   .     A
C437   C441    1.426   .     A
C438   C442    1.427   .     A
C438   C440    1.420   .     A
C439   C1153   1.394   .     S
C440   C1154   1.395   1_554 S
C441   C1180   1.422   .     S
C442   C1179   1.422   1_554 S
Cu443  O466    1.964   .     S
Cu443  O463    1.964   .     S
Cu443  O470    1.941   .     S
Cu443  O467    1.954   .     S
Cu443  N461    2.011   .     S
Cu444  O465    1.964   .     S
Cu444  O464    1.964   .     S
Cu444  O469    1.941   .     S
Cu444  N462    2.011   .     S
Cu444  O468    1.954   .     S
Cu444  Cu279   2.676   1_655 S
H449   C270    1.083   1_655 S
O464   C248    1.291   1_655 S
O468   C264    1.296   1_655 S
O471   C472    1.412   .     S
C472   H473    1.115   .     S
C472   C475    1.530   .     S
H474   C308    1.115   1_655 S
C475   H477    1.111   .     S
C475   C478    1.527   .     S
C475   H1214   1.112   .     S
H476   C1213   1.112   1_554 S
C478   H479    1.111   .     S
C478   H481    1.107   .     S
C478   H480    1.110   .     S
O482   C483    1.410   .     S
O482   C268    1.382   1_655 S
C483   H485    1.115   .     S
C483   H320    1.115   1_655 S
C483   C1224   1.529   1_554 S
C486   C489    1.525   .     S
C486   H487    1.112   .     S
C486   C1221   1.529   .     S
C486   H1226   1.112   .     S
H488   C1224   1.112   1_554 S
C489   H491    1.110   .     S
C489   H492    1.110   .     S
C489   H1228   1.111   .     S
H490   C1227   1.111   1_554 S
C493   C504    1.449   .     S
C493   O547    1.290   .     A
C493   O627    1.291   .     S
C494   O548    1.290   .     A
C494   C667    1.449   1_455 S
C494   O710    1.291   1_455 S
C495   H533    1.076   .     S
C495   C497    1.386   .     A
C495   C524    1.416   .     A
C496   H534    1.077   .     S
C496   C498    1.387   .     A
C496   C523    1.416   .     A
C497   H527    1.084   .     S
C497   C1259   1.394   1_554 S
C498   H528    1.084   .     S
C498   C1260   1.395   .     S
C499   C504    1.401   .     A
C499   H535    1.083   .     S
C500   H536    1.083   .     S
C500   C10     1.383   1_565 S
C500   C667    1.401   1_455 S
C501   H537    1.083   .     S
C501   C503    1.401   .     A
C501   C7      1.383   1_565 S
C502   H538    1.083   .     S
C502   C668    1.401   1_455 S
C503   C582    1.401   .     S
C503   C576    1.449   .     S
C504   C584    1.401   .     S
C505   N544    1.367   .     A
C505   C507    1.416   .     A
C505   H539    1.082   .     S
C506   C508    1.416   .     A
C506   H540    1.082   .     S
C506   N543    1.367   .     A
C507   N543    1.367   .     A
C507   H541    1.082   .     S
C508   N544    1.367   .     A
C508   H542    1.082   .     S
C509   O551    1.293   .     A
C509   C511    1.465   .     S
C509   O631    1.295   .     S
C510   O552    1.294   .     A
C510   C512    1.468   .     S
C510   O714    1.296   1_455 S
C511   C515    1.398   .     A
C511   C517    1.395   .     A
C512   C518    1.396   .     A
C512   C516    1.397   .     A
C513   C521    1.415   .     A
C513   C515    1.397   .     A
C513   O635    1.383   .     S
C514   C516    1.397   .     A
C514   C522    1.413   .     A
C514   O728    1.382   1_455 S
C515   H614    1.084   .     S
C516   H695    1.083   1_455 S
C517   H530    1.076   .     S
C517   C519    1.404   .     A
C518   H529    1.075   .     S
C518   C520    1.404   .     A
C519   C521    1.420   .     A
C519   C523    1.426   .     A
C520   C524    1.427   .     A
C520   C522    1.420   .     A
C521   C1235   1.394   .     S
C522   C1236   1.395   1_554 S
C523   C1262   1.422   .     S
C524   C1261   1.422   1_554 S
Cu525  O548    1.964   .     S
Cu525  O545    1.964   .     S
Cu525  O552    1.941   .     S
Cu525  O549    1.954   .     S
Cu525  N543    2.011   .     S
Cu525  Cu690   2.676   1_455 S
Cu526  O547    1.964   .     S
Cu526  O546    1.964   .     S
Cu526  O551    1.941   .     S
Cu526  N544    2.011   .     S
Cu526  O550    1.954   .     S
Cu526  Cu607   2.676   .     S
H531   C598    1.083   .     S
H532   C679    1.084   1_455 S
O545   C657    1.291   1_455 S
O546   C576    1.291   .     S
O549   C673    1.295   1_455 S
O550   C592    1.296   .     S
O553   C554    1.412   .     S
O553   C677    1.383   1_455 S
C554   H555    1.115   .     S
C554   C557    1.530   .     S
C554   H720    1.115   1_455 S
H556   C636    1.115   .     S
C557   H559    1.111   .     S
C557   C560    1.527   .     S
C557   H1296   1.112   .     S
H558   C1295   1.112   1_554 S
C560   H561    1.111   .     S
C560   H563    1.107   .     S
C560   H562    1.110   .     S
O564   C565    1.410   .     S
O564   C596    1.382   .     S
C565   H567    1.115   .     S
C565   H648    1.115   .     S
C565   C1306   1.529   1_554 S
H566   C729    1.115   1_455 S
C568   C571    1.525   .     S
C568   H569    1.112   .     S
C568   C1303   1.529   .     S
C568   H1308   1.112   .     S
H570   C1306   1.112   1_554 S
C571   H573    1.110   .     S
C571   H574    1.110   .     S
C571   H1310   1.111   .     S
H572   C1309   1.111   1_554 S
C575   C586    1.449   .     S
C575   O629    1.290   .     A
C575   O709    1.291   .     S
C576   O630    1.290   .     A
C577   H615    1.076   .     S
C577   C579    1.386   .     A
C577   C606    1.416   .     A
C578   H616    1.077   .     S
C578   C580    1.387   .     A
C578   C605    1.416   .     A
C579   H609    1.084   .     S
C579   C1341   1.394   1_554 S
C580   H610    1.084   .     S
C580   C1342   1.395   .     S
C581   C586    1.401   .     A
C581   H617    1.083   .     S
C582   H618    1.083   .     S
C582   C92     1.383   1_565 S
C583   H619    1.083   .     S
C583   C585    1.401   .     A
C583   C89     1.383   1_565 S
C584   H620    1.083   .     S
C585   C664    1.401   .     S
C585   C658    1.449   .     S
C586   C666    1.401   .     S
C587   N626    1.367   .     A
C587   C589    1.416   .     A
C587   H621    1.082   .     S
C588   C590    1.416   .     A
C588   H622    1.082   .     S
C588   N625    1.367   .     A
C589   N625    1.367   .     A
C589   H623    1.082   .     S
C590   N626    1.367   .     A
C590   H624    1.082   .     S
C591   O633    1.293   .     A
C591   C593    1.465   .     S
C591   O713    1.295   .     S
C592   O634    1.294   .     A
C592   C594    1.468   .     S
C593   C597    1.398   .     A
C593   C599    1.395   .     A
C594   C600    1.396   .     A
C594   C598    1.397   .     A
C595   C603    1.415   .     A
C595   C597    1.397   .     A
C595   O717    1.383   .     S
C596   C598    1.397   .     A
C596   C604    1.413   .     A
C597   H696    1.084   .     S
C599   H612    1.076   .     S
C599   C601    1.404   .     A
C600   H611    1.075   .     S
C600   C602    1.404   .     A
C601   C603    1.420   .     A
C601   C605    1.426   .     A
C602   C606    1.427   .     A
C602   C604    1.420   .     A
C603   C1317   1.394   .     S
C604   C1318   1.395   1_554 S
C605   C1344   1.422   .     S
C606   C1343   1.422   1_554 S
Cu607  O630    1.964   .     S
Cu607  O627    1.964   .     S
Cu607  O634    1.941   .     S
Cu607  O631    1.954   .     S
Cu607  N625    2.011   .     S
Cu608  O629    1.964   .     S
Cu608  O628    1.964   .     S
Cu608  O633    1.941   .     S
Cu608  N626    2.011   .     S
Cu608  O632    1.954   .     S
Cu608  Cu689   2.676   .     S
H613   C680    1.083   .     S
O628   C658    1.291   .     S
O632   C674    1.296   .     S
O635   C636    1.412   .     S
C636   H637    1.115   .     S
C636   C639    1.530   .     S
H638   C718    1.115   .     S
C639   H641    1.111   .     S
C639   C642    1.527   .     S
C639   H1378   1.112   .     S
H640   C1377   1.112   1_554 S
C642   H643    1.111   .     S
C642   H645    1.107   .     S
C642   H644    1.110   .     S
O646   C647    1.410   .     S
O646   C678    1.382   .     S
C647   H649    1.115   .     S
C647   H730    1.115   .     S
C647   C1388   1.529   1_554 S
C650   C653    1.525   .     S
C650   H651    1.112   .     S
C650   C1385   1.529   .     S
C650   H1390   1.112   .     S
H652   C1388   1.112   1_554 S
C653   H655    1.110   .     S
C653   H656    1.110   .     S
C653   H1392   1.111   .     S
H654   C1391   1.111   1_554 S
C657   C668    1.449   .     S
C657   O711    1.290   .     A
C657   O545    1.291   1_655 S
C658   O712    1.290   .     A
C659   H697    1.076   .     S
C659   C661    1.386   .     A
C659   C688    1.416   .     A
C660   H698    1.077   .     S
C660   C662    1.387   .     A
C660   C687    1.416   .     A
C661   H691    1.084   .     S
C661   C1423   1.394   1_554 S
C662   H692    1.084   .     S
C662   C1424   1.395   .     S
C663   C668    1.401   .     A
C663   H699    1.083   .     S
C664   H700    1.083   .     S
C664   C174    1.383   1_565 S
C665   H701    1.083   .     S
C665   C667    1.401   .     A
C665   C171    1.383   1_565 S
C666   H702    1.083   .     S
C667   C500    1.401   1_655 S
C667   C494    1.449   1_655 S
C668   C502    1.401   1_655 S
C669   N708    1.367   .     A
C669   C671    1.416   .     A
C669   H703    1.082   .     S
C670   C672    1.416   .     A
C670   H704    1.082   .     S
C670   N707    1.367   .     A
C671   N707    1.367   .     A
C671   H705    1.082   .     S
C672   N708    1.367   .     A
C672   H706    1.082   .     S
C673   O715    1.293   .     A
C673   C675    1.465   .     S
C673   O549    1.295   1_655 S
C674   O716    1.294   .     A
C674   C676    1.468   .     S
C675   C679    1.398   .     A
C675   C681    1.395   .     A
C676   C682    1.396   .     A
C676   C680    1.397   .     A
C677   C685    1.415   .     A
C677   C679    1.397   .     A
C677   O553    1.383   1_655 S
C678   C680    1.397   .     A
C678   C686    1.413   .     A
C679   H532    1.084   1_655 S
C681   H694    1.076   .     S
C681   C683    1.404   .     A
C682   H693    1.075   .     S
C682   C684    1.404   .     A
C683   C685    1.420   .     A
C683   C687    1.426   .     A
C684   C688    1.427   .     A
C684   C686    1.420   .     A
C685   C1399   1.394   .     S
C686   C1400   1.395   1_554 S
C687   C1426   1.422   .     S
C688   C1425   1.422   1_554 S
Cu689  O712    1.964   .     S
Cu689  O709    1.964   .     S
Cu689  O716    1.941   .     S
Cu689  O713    1.954   .     S
Cu689  N707    2.011   .     S
Cu690  O711    1.964   .     S
Cu690  O710    1.964   .     S
Cu690  O715    1.941   .     S
Cu690  N708    2.011   .     S
Cu690  O714    1.954   .     S
Cu690  Cu525   2.676   1_655 S
H695   C516    1.083   1_655 S
O710   C494    1.291   1_655 S
O714   C510    1.296   1_655 S
O717   C718    1.412   .     S
C718   H719    1.115   .     S
C718   C721    1.530   .     S
H720   C554    1.115   1_655 S
C721   H723    1.111   .     S
C721   C724    1.527   .     S
C721   H1460   1.112   .     S
H722   C1459   1.112   1_554 S
C724   H725    1.111   .     S
C724   H727    1.107   .     S
C724   H726    1.110   .     S
O728   C729    1.410   .     S
O728   C514    1.382   1_655 S
C729   H731    1.115   .     S
C729   H566    1.115   1_655 S
C729   C1470   1.529   1_554 S
C732   C735    1.525   .     S
C732   H733    1.112   .     S
C732   C1467   1.529   .     S
C732   H1472   1.112   .     S
H734   C1470   1.112   1_554 S
C735   H737    1.110   .     S
C735   H738    1.110   .     S
C735   H1474   1.111   .     S
H736   C1473   1.111   1_554 S
C739   C750    1.449   .     S
C739   O793    1.290   .     A
C739   O873    1.291   .     S
C740   O794    1.290   .     A
C740   C913    1.449   1_455 S
C740   O956    1.291   1_455 S
C741   H779    1.076   .     S
C741   C743    1.386   .     A
C741   C770    1.416   .     A
C742   H780    1.077   .     S
C742   C744    1.387   .     A
C742   C769    1.416   .     A
C743   H773    1.084   .     S
C744   H774    1.084   .     S
C744   C30     1.395   1_556 S
C745   C750    1.401   .     A
C745   H781    1.083   .     S
C745   C1239   1.383   1_545 S
C746   H782    1.083   .     S
C746   C994    1.383   .     S
C746   C913    1.401   1_455 S
C747   H783    1.083   .     S
C747   C749    1.401   .     A
C747   C991    1.383   .     S
C748   H784    1.083   .     S
C748   C1238   1.383   1_545 S
C748   C914    1.401   1_455 S
C749   C828    1.401   .     S
C749   C822    1.449   .     S
C750   C830    1.401   .     S
C751   N790    1.367   .     A
C751   C753    1.416   .     A
C751   H785    1.082   .     S
C752   C754    1.416   .     A
C752   H786    1.082   .     S
C752   N789    1.367   .     A
C753   N789    1.367   .     A
C753   H787    1.082   .     S
C754   N790    1.367   .     A
C754   H788    1.082   .     S
C755   O797    1.293   .     A
C755   C757    1.465   .     S
C755   O877    1.295   .     S
C756   O798    1.294   .     A
C756   C758    1.468   .     S
C756   O960    1.296   1_455 S
C757   C761    1.398   .     A
C757   C763    1.395   .     A
C758   C764    1.396   .     A
C758   C762    1.397   .     A
C759   C767    1.415   .     A
C759   C761    1.397   .     A
C759   O881    1.383   .     S
C760   C762    1.397   .     A
C760   C768    1.413   .     A
C760   O974    1.382   1_455 S
C761   H860    1.084   .     S
C762   H941    1.083   1_455 S
C763   H776    1.076   .     S
C763   C765    1.404   .     A
C764   H775    1.075   .     S
C764   C766    1.404   .     A
C765   C767    1.420   .     A
C765   C769    1.426   .     A
C766   C770    1.427   .     A
C766   C768    1.420   .     A
C767   C5      1.394   1_556 S
C769   C32     1.422   1_556 S
Cu771  O794    1.964   .     S
Cu771  O791    1.964   .     S
Cu771  O798    1.941   .     S
Cu771  O795    1.954   .     S
Cu771  N789    2.011   .     S
Cu771  Cu936   2.676   1_455 S
Cu772  O793    1.964   .     S
Cu772  O792    1.964   .     S
Cu772  O797    1.941   .     S
Cu772  N790    2.011   .     S
Cu772  O796    1.954   .     S
Cu772  Cu853   2.676   .     S
H777   C844    1.083   .     S
H778   C925    1.084   1_455 S
O791   C903    1.291   1_455 S
O792   C822    1.291   .     S
O795   C919    1.295   1_455 S
O796   C838    1.296   .     S
O799   C800    1.412   .     S
O799   C923    1.383   1_455 S
C800   H801    1.115   .     S
C800   C803    1.530   .     S
C800   H966    1.115   1_455 S
H802   C882    1.115   .     S
C803   H805    1.111   .     S
C803   C806    1.527   .     S
C803   H66     1.112   1_556 S
C806   H807    1.111   .     S
C806   H809    1.107   .     S
C806   H808    1.110   .     S
O810   C811    1.410   .     S
O810   C842    1.382   .     S
C811   H813    1.115   .     S
C811   H894    1.115   .     S
H812   C975    1.115   1_455 S
C814   C817    1.525   .     S
C814   H815    1.112   .     S
C814   C73     1.529   1_556 S
C814   H78     1.112   1_556 S
C817   H819    1.110   .     S
C817   H820    1.110   .     S
C817   H80     1.111   1_556 S
C821   C832    1.449   .     S
C821   O875    1.290   .     A
C821   O955    1.291   .     S
C822   O876    1.290   .     A
C823   H861    1.076   .     S
C823   C825    1.386   .     A
C823   C852    1.416   .     A
C824   H862    1.077   .     S
C824   C826    1.387   .     A
C824   C851    1.416   .     A
C825   H855    1.084   .     S
C826   H856    1.084   .     S
C826   C112    1.395   1_556 S
C827   C832    1.401   .     A
C827   H863    1.083   .     S
C827   C1321   1.383   1_545 S
C828   H864    1.083   .     S
C828   C1076   1.383   .     S
C829   H865    1.083   .     S
C829   C831    1.401   .     A
C829   C1073   1.383   .     S
C830   H866    1.083   .     S
C830   C1320   1.383   1_545 S
C831   C910    1.401   .     S
C831   C904    1.449   .     S
C832   C912    1.401   .     S
C833   N872    1.367   .     A
C833   C835    1.416   .     A
C833   H867    1.082   .     S
C834   C836    1.416   .     A
C834   H868    1.082   .     S
C834   N871    1.367   .     A
C835   N871    1.367   .     A
C835   H869    1.082   .     S
C836   N872    1.367   .     A
C836   H870    1.082   .     S
C837   O879    1.293   .     A
C837   C839    1.465   .     S
C837   O959    1.295   .     S
C838   O880    1.294   .     A
C838   C840    1.468   .     S
C839   C843    1.398   .     A
C839   C845    1.395   .     A
C840   C846    1.396   .     A
C840   C844    1.397   .     A
C841   C849    1.415   .     A
C841   C843    1.397   .     A
C841   O963    1.383   .     S
C842   C844    1.397   .     A
C842   C850    1.413   .     A
C843   H942    1.084   .     S
C845   H858    1.076   .     S
C845   C847    1.404   .     A
C846   H857    1.075   .     S
C846   C848    1.404   .     A
C847   C849    1.420   .     A
C847   C851    1.426   .     A
C848   C852    1.427   .     A
C848   C850    1.420   .     A
C849   C87     1.394   1_556 S
C851   C114    1.422   1_556 S
Cu853  O876    1.964   .     S
Cu853  O873    1.964   .     S
Cu853  O880    1.941   .     S
Cu853  O877    1.954   .     S
Cu853  N871    2.011   .     S
Cu854  O875    1.964   .     S
Cu854  O874    1.964   .     S
Cu854  O879    1.941   .     S
Cu854  N872    2.011   .     S
Cu854  O878    1.954   .     S
Cu854  Cu935   2.676   .     S
H859   C926    1.083   .     S
O874   C904    1.291   .     S
O878   C920    1.296   .     S
O881   C882    1.412   .     S
C882   H883    1.115   .     S
C882   C885    1.530   .     S
H884   C964    1.115   .     S
C885   H887    1.111   .     S
C885   C888    1.527   .     S
C885   H148    1.112   1_556 S
C888   H889    1.111   .     S
C888   H891    1.107   .     S
C888   H890    1.110   .     S
O892   C893    1.410   .     S
O892   C924    1.382   .     S
C893   H895    1.115   .     S
C893   H976    1.115   .     S
C896   C899    1.525   .     S
C896   H897    1.112   .     S
C896   C155    1.529   1_556 S
C896   H160    1.112   1_556 S
C899   H901    1.110   .     S
C899   H902    1.110   .     S
C899   H162    1.111   1_556 S
C903   C914    1.449   .     S
C903   O957    1.290   .     A
C903   O791    1.291   1_655 S
C904   O958    1.290   .     A
C905   H943    1.076   .     S
C905   C907    1.386   .     A
C905   C934    1.416   .     A
C906   H944    1.077   .     S
C906   C908    1.387   .     A
C906   C933    1.416   .     A
C907   H937    1.084   .     S
C908   H938    1.084   .     S
C908   C194    1.395   1_556 S
C909   C914    1.401   .     A
C909   H945    1.083   .     S
C909   C1403   1.383   1_545 S
C910   H946    1.083   .     S
C910   C1158   1.383   .     S
C911   H947    1.083   .     S
C911   C913    1.401   .     A
C911   C1155   1.383   .     S
C912   H948    1.083   .     S
C912   C1402   1.383   1_545 S
C913   C746    1.401   1_655 S
C913   C740    1.449   1_655 S
C914   C748    1.401   1_655 S
C915   N954    1.367   .     A
C915   C917    1.416   .     A
C915   H949    1.082   .     S
C916   C918    1.416   .     A
C916   H950    1.082   .     S
C916   N953    1.367   .     A
C917   N953    1.367   .     A
C917   H951    1.082   .     S
C918   N954    1.367   .     A
C918   H952    1.082   .     S
C919   O961    1.293   .     A
C919   C921    1.465   .     S
C919   O795    1.295   1_655 S
C920   O962    1.294   .     A
C920   C922    1.468   .     S
C921   C925    1.398   .     A
C921   C927    1.395   .     A
C922   C928    1.396   .     A
C922   C926    1.397   .     A
C923   C931    1.415   .     A
C923   C925    1.397   .     A
C923   O799    1.383   1_655 S
C924   C926    1.397   .     A
C924   C932    1.413   .     A
C925   H778    1.084   1_655 S
C927   H940    1.076   .     S
C927   C929    1.404   .     A
C928   H939    1.075   .     S
C928   C930    1.404   .     A
C929   C931    1.420   .     A
C929   C933    1.426   .     A
C930   C934    1.427   .     A
C930   C932    1.420   .     A
C931   C169    1.394   1_556 S
C933   C196    1.422   1_556 S
Cu935  O958    1.964   .     S
Cu935  O955    1.964   .     S
Cu935  O962    1.941   .     S
Cu935  O959    1.954   .     S
Cu935  N953    2.011   .     S
Cu936  O957    1.964   .     S
Cu936  O956    1.964   .     S
Cu936  O961    1.941   .     S
Cu936  N954    2.011   .     S
Cu936  O960    1.954   .     S
Cu936  Cu771   2.676   1_655 S
H941   C762    1.083   1_655 S
O956   C740    1.291   1_655 S
O960   C756    1.296   1_655 S
O963   C964    1.412   .     S
C964   H965    1.115   .     S
C964   C967    1.530   .     S
H966   C800    1.115   1_655 S
C967   H969    1.111   .     S
C967   C970    1.527   .     S
C967   H230    1.112   1_556 S
C970   H971    1.111   .     S
C970   H973    1.107   .     S
C970   H972    1.110   .     S
O974   C975    1.410   .     S
O974   C760    1.382   1_655 S
C975   H977    1.115   .     S
C975   H812    1.115   1_655 S
C978   C981    1.525   .     S
C978   H979    1.112   .     S
C978   C237    1.529   1_556 S
C978   H242    1.112   1_556 S
C981   H983    1.110   .     S
C981   H984    1.110   .     S
C981   H244    1.111   1_556 S
C985   C996    1.449   .     S
C985   O1039   1.290   .     A
C985   O1119   1.291   .     S
C986   O1040   1.290   .     A
C986   C1159   1.449   1_455 S
C986   O1202   1.291   1_455 S
C987   H1025   1.076   .     S
C987   C989    1.386   .     A
C987   C1016   1.416   .     A
C988   H1026   1.077   .     S
C988   C990    1.387   .     A
C988   C1015   1.416   .     A
C989   H1019   1.084   .     S
C990   H1020   1.084   .     S
C990   C276    1.395   1_556 S
C991   C996    1.401   .     A
C991   H1027   1.083   .     S
C992   H1028   1.083   .     S
C992   C1240   1.383   .     S
C992   C1159   1.401   1_455 S
C993   H1029   1.083   .     S
C993   C995    1.401   .     A
C993   C1237   1.383   .     S
C994   H1030   1.083   .     S
C994   C1160   1.401   1_455 S
C995   C1074   1.401   .     S
C995   C1068   1.449   .     S
C996   C1076   1.401   .     S
C997   N1036   1.367   .     A
C997   C999    1.416   .     A
C997   H1031   1.082   .     S
C998   C1000   1.416   .     A
C998   H1032   1.082   .     S
C998   N1035   1.367   .     A
C999   N1035   1.367   .     A
C999   H1033   1.082   .     S
C1000  N1036   1.367   .     A
C1000  H1034   1.082   .     S
C1001  O1043   1.293   .     A
C1001  C1003   1.465   .     S
C1001  O1123   1.295   .     S
C1002  O1044   1.294   .     A
C1002  C1004   1.468   .     S
C1002  O1206   1.296   1_455 S
C1003  C1007   1.398   .     A
C1003  C1009   1.395   .     A
C1004  C1010   1.396   .     A
C1004  C1008   1.397   .     A
C1005  C1013   1.415   .     A
C1005  C1007   1.397   .     A
C1005  O1127   1.383   .     S
C1006  C1008   1.397   .     A
C1006  C1014   1.413   .     A
C1006  O1220   1.382   1_455 S
C1007  H1106   1.084   .     S
C1008  H1187   1.083   1_455 S
C1009  H1022   1.076   .     S
C1009  C1011   1.404   .     A
C1010  H1021   1.075   .     S
C1010  C1012   1.404   .     A
C1011  C1013   1.420   .     A
C1011  C1015   1.426   .     A
C1012  C1016   1.427   .     A
C1012  C1014   1.420   .     A
C1013  C251    1.394   1_556 S
C1015  C278    1.422   1_556 S
Cu1017 O1040   1.964   .     S
Cu1017 O1037   1.964   .     S
Cu1017 O1044   1.941   .     S
Cu1017 O1041   1.954   .     S
Cu1017 N1035   2.011   .     S
Cu1017 Cu1182  2.676   1_455 S
Cu1018 O1039   1.964   .     S
Cu1018 O1038   1.964   .     S
Cu1018 O1043   1.941   .     S
Cu1018 N1036   2.011   .     S
Cu1018 O1042   1.954   .     S
Cu1018 Cu1099  2.676   .     S
H1023  C1090   1.083   .     S
H1024  C1171   1.084   1_455 S
O1037  C1149   1.291   1_455 S
O1038  C1068   1.291   .     S
O1041  C1165   1.295   1_455 S
O1042  C1084   1.296   .     S
O1045  C1046   1.412   .     S
O1045  C1169   1.383   1_455 S
C1046  H1047   1.115   .     S
C1046  C1049   1.530   .     S
C1046  H1212   1.115   1_455 S
H1048  C1128   1.115   .     S
C1049  H1051   1.111   .     S
C1049  C1052   1.527   .     S
C1049  H312    1.112   1_556 S
C1052  H1053   1.111   .     S
C1052  H1055   1.107   .     S
C1052  H1054   1.110   .     S
O1056  C1057   1.410   .     S
O1056  C1088   1.382   .     S
C1057  H1059   1.115   .     S
C1057  H1140   1.115   .     S
H1058  C1221   1.115   1_455 S
C1060  C1063   1.525   .     S
C1060  H1061   1.112   .     S
C1060  C319    1.529   1_556 S
C1060  H324    1.112   1_556 S
C1063  H1065   1.110   .     S
C1063  H1066   1.110   .     S
C1063  H326    1.111   1_556 S
C1067  C1078   1.449   .     S
C1067  O1121   1.290   .     A
C1067  O1201   1.291   .     S
C1068  O1122   1.290   .     A
C1069  H1107   1.076   .     S
C1069  C1071   1.386   .     A
C1069  C1098   1.416   .     A
C1070  H1108   1.077   .     S
C1070  C1072   1.387   .     A
C1070  C1097   1.416   .     A
C1071  H1101   1.084   .     S
C1072  H1102   1.084   .     S
C1072  C358    1.395   1_556 S
C1073  C1078   1.401   .     A
C1073  H1109   1.083   .     S
C1074  H1110   1.083   .     S
C1074  C1322   1.383   .     S
C1075  H1111   1.083   .     S
C1075  C1077   1.401   .     A
C1075  C1319   1.383   .     S
C1076  H1112   1.083   .     S
C1077  C1156   1.401   .     S
C1077  C1150   1.449   .     S
C1078  C1158   1.401   .     S
C1079  N1118   1.367   .     A
C1079  C1081   1.416   .     A
C1079  H1113   1.082   .     S
C1080  C1082   1.416   .     A
C1080  H1114   1.082   .     S
C1080  N1117   1.367   .     A
C1081  N1117   1.367   .     A
C1081  H1115   1.082   .     S
C1082  N1118   1.367   .     A
C1082  H1116   1.082   .     S
C1083  O1125   1.293   .     A
C1083  C1085   1.465   .     S
C1083  O1205   1.295   .     S
C1084  O1126   1.294   .     A
C1084  C1086   1.468   .     S
C1085  C1089   1.398   .     A
C1085  C1091   1.395   .     A
C1086  C1092   1.396   .     A
C1086  C1090   1.397   .     A
C1087  C1095   1.415   .     A
C1087  C1089   1.397   .     A
C1087  O1209   1.383   .     S
C1088  C1090   1.397   .     A
C1088  C1096   1.413   .     A
C1089  H1188   1.084   .     S
C1091  H1104   1.076   .     S
C1091  C1093   1.404   .     A
C1092  H1103   1.075   .     S
C1092  C1094   1.404   .     A
C1093  C1095   1.420   .     A
C1093  C1097   1.426   .     A
C1094  C1098   1.427   .     A
C1094  C1096   1.420   .     A
C1095  C333    1.394   1_556 S
C1097  C360    1.422   1_556 S
Cu1099 O1122   1.964   .     S
Cu1099 O1119   1.964   .     S
Cu1099 O1126   1.941   .     S
Cu1099 O1123   1.954   .     S
Cu1099 N1117   2.011   .     S
Cu1100 O1121   1.964   .     S
Cu1100 O1120   1.964   .     S
Cu1100 O1125   1.941   .     S
Cu1100 N1118   2.011   .     S
Cu1100 O1124   1.954   .     S
Cu1100 Cu1181  2.676   .     S
H1105  C1172   1.083   .     S
O1120  C1150   1.291   .     S
O1124  C1166   1.296   .     S
O1127  C1128   1.412   .     S
C1128  H1129   1.115   .     S
C1128  C1131   1.530   .     S
H1130  C1210   1.115   .     S
C1131  H1133   1.111   .     S
C1131  C1134   1.527   .     S
C1131  H394    1.112   1_556 S
C1134  H1135   1.111   .     S
C1134  H1137   1.107   .     S
C1134  H1136   1.110   .     S
O1138  C1139   1.410   .     S
O1138  C1170   1.382   .     S
C1139  H1141   1.115   .     S
C1139  H1222   1.115   .     S
C1142  C1145   1.525   .     S
C1142  H1143   1.112   .     S
C1142  C401    1.529   1_556 S
C1142  H406    1.112   1_556 S
C1145  H1147   1.110   .     S
C1145  H1148   1.110   .     S
C1145  H408    1.111   1_556 S
C1149  C1160   1.449   .     S
C1149  O1203   1.290   .     A
C1149  O1037   1.291   1_655 S
C1150  O1204   1.290   .     A
C1151  H1189   1.076   .     S
C1151  C1153   1.386   .     A
C1151  C1180   1.416   .     A
C1152  H1190   1.077   .     S
C1152  C1154   1.387   .     A
C1152  C1179   1.416   .     A
C1153  H1183   1.084   .     S
C1154  H1184   1.084   .     S
C1154  C440    1.395   1_556 S
C1155  C1160   1.401   .     A
C1155  H1191   1.083   .     S
C1156  H1192   1.083   .     S
C1156  C1404   1.383   .     S
C1157  H1193   1.083   .     S
C1157  C1159   1.401   .     A
C1157  C1401   1.383   .     S
C1158  H1194   1.083   .     S
C1159  C992    1.401   1_655 S
C1159  C986    1.449   1_655 S
C1160  C994    1.401   1_655 S
C1161  N1200   1.367   .     A
C1161  C1163   1.416   .     A
C1161  H1195   1.082   .     S
C1162  C1164   1.416   .     A
C1162  H1196   1.082   .     S
C1162  N1199   1.367   .     A
C1163  N1199   1.367   .     A
C1163  H1197   1.082   .     S
C1164  N1200   1.367   .     A
C1164  H1198   1.082   .     S
C1165  O1207   1.293   .     A
C1165  C1167   1.465   .     S
C1165  O1041   1.295   1_655 S
C1166  O1208   1.294   .     A
C1166  C1168   1.468   .     S
C1167  C1171   1.398   .     A
C1167  C1173   1.395   .     A
C1168  C1174   1.396   .     A
C1168  C1172   1.397   .     A
C1169  C1177   1.415   .     A
C1169  C1171   1.397   .     A
C1169  O1045   1.383   1_655 S
C1170  C1172   1.397   .     A
C1170  C1178   1.413   .     A
C1171  H1024   1.084   1_655 S
C1173  H1186   1.076   .     S
C1173  C1175   1.404   .     A
C1174  H1185   1.075   .     S
C1174  C1176   1.404   .     A
C1175  C1177   1.420   .     A
C1175  C1179   1.426   .     A
C1176  C1180   1.427   .     A
C1176  C1178   1.420   .     A
C1177  C415    1.394   1_556 S
C1179  C442    1.422   1_556 S
Cu1181 O1204   1.964   .     S
Cu1181 O1201   1.964   .     S
Cu1181 O1208   1.941   .     S
Cu1181 O1205   1.954   .     S
Cu1181 N1199   2.011   .     S
Cu1182 O1203   1.964   .     S
Cu1182 O1202   1.964   .     S
Cu1182 O1207   1.941   .     S
Cu1182 N1200   2.011   .     S
Cu1182 O1206   1.954   .     S
Cu1182 Cu1017  2.676   1_655 S
H1187  C1008   1.083   1_655 S
O1202  C986    1.291   1_655 S
O1206  C1002   1.296   1_655 S
O1209  C1210   1.412   .     S
C1210  H1211   1.115   .     S
C1210  C1213   1.530   .     S
H1212  C1046   1.115   1_655 S
C1213  H1215   1.111   .     S
C1213  C1216   1.527   .     S
C1213  H476    1.112   1_556 S
C1216  H1217   1.111   .     S
C1216  H1219   1.107   .     S
C1216  H1218   1.110   .     S
O1220  C1221   1.410   .     S
O1220  C1006   1.382   1_655 S
C1221  H1223   1.115   .     S
C1221  H1058   1.115   1_655 S
C1224  C1227   1.525   .     S
C1224  H1225   1.112   .     S
C1224  C483    1.529   1_556 S
C1224  H488    1.112   1_556 S
C1227  H1229   1.110   .     S
C1227  H1230   1.110   .     S
C1227  H490    1.111   1_556 S
C1231  C1242   1.449   .     S
C1231  O1285   1.290   .     A
C1231  O1365   1.291   .     S
C1232  O1286   1.290   .     A
C1232  C1405   1.449   1_455 S
C1232  O1448   1.291   1_455 S
C1233  H1271   1.076   .     S
C1233  C1235   1.386   .     A
C1233  C1262   1.416   .     A
C1234  H1272   1.077   .     S
C1234  C1236   1.387   .     A
C1234  C1261   1.416   .     A
C1235  H1265   1.084   .     S
C1236  H1266   1.084   .     S
C1236  C522    1.395   1_556 S
C1237  C1242   1.401   .     A
C1237  H1273   1.083   .     S
C1238  H1274   1.083   .     S
C1238  C748    1.383   1_565 S
C1238  C1405   1.401   1_455 S
C1239  H1275   1.083   .     S
C1239  C1241   1.401   .     A
C1239  C745    1.383   1_565 S
C1240  H1276   1.083   .     S
C1240  C1406   1.401   1_455 S
C1241  C1320   1.401   .     S
C1241  C1314   1.449   .     S
C1242  C1322   1.401   .     S
C1243  N1282   1.367   .     A
C1243  C1245   1.416   .     A
C1243  H1277   1.082   .     S
C1244  C1246   1.416   .     A
C1244  H1278   1.082   .     S
C1244  N1281   1.367   .     A
C1245  N1281   1.367   .     A
C1245  H1279   1.082   .     S
C1246  N1282   1.367   .     A
C1246  H1280   1.082   .     S
C1247  O1289   1.293   .     A
C1247  C1249   1.465   .     S
C1247  O1369   1.295   .     S
C1248  O1290   1.294   .     A
C1248  C1250   1.468   .     S
C1248  O1452   1.296   1_455 S
C1249  C1253   1.398   .     A
C1249  C1255   1.395   .     A
C1250  C1256   1.396   .     A
C1250  C1254   1.397   .     A
C1251  C1259   1.415   .     A
C1251  C1253   1.397   .     A
C1251  O1373   1.383   .     S
C1252  C1254   1.397   .     A
C1252  C1260   1.413   .     A
C1252  O1466   1.382   1_455 S
C1253  H1352   1.084   .     S
C1254  H1433   1.083   1_455 S
C1255  H1268   1.076   .     S
C1255  C1257   1.404   .     A
C1256  H1267   1.075   .     S
C1256  C1258   1.404   .     A
C1257  C1259   1.420   .     A
C1257  C1261   1.426   .     A
C1258  C1262   1.427   .     A
C1258  C1260   1.420   .     A
C1259  C497    1.394   1_556 S
C1261  C524    1.422   1_556 S
Cu1263 O1286   1.964   .     S
Cu1263 O1283   1.964   .     S
Cu1263 O1290   1.941   .     S
Cu1263 O1287   1.954   .     S
Cu1263 N1281   2.011   .     S
Cu1263 Cu1428  2.676   1_455 S
Cu1264 O1285   1.964   .     S
Cu1264 O1284   1.964   .     S
Cu1264 O1289   1.941   .     S
Cu1264 N1282   2.011   .     S
Cu1264 O1288   1.954   .     S
Cu1264 Cu1345  2.676   .     S
H1269  C1336   1.083   .     S
H1270  C1417   1.084   1_455 S
O1283  C1395   1.291   1_455 S
O1284  C1314   1.291   .     S
O1287  C1411   1.295   1_455 S
O1288  C1330   1.296   .     S
O1291  C1292   1.412   .     S
O1291  C1415   1.383   1_455 S
C1292  H1293   1.115   .     S
C1292  C1295   1.530   .     S
C1292  H1458   1.115   1_455 S
H1294  C1374   1.115   .     S
C1295  H1297   1.111   .     S
C1295  C1298   1.527   .     S
C1295  H558    1.112   1_556 S
C1298  H1299   1.111   .     S
C1298  H1301   1.107   .     S
C1298  H1300   1.110   .     S
O1302  C1303   1.410   .     S
O1302  C1334   1.382   .     S
C1303  H1305   1.115   .     S
C1303  H1386   1.115   .     S
H1304  C1467   1.115   1_455 S
C1306  C1309   1.525   .     S
C1306  H1307   1.112   .     S
C1306  C565    1.529   1_556 S
C1306  H570    1.112   1_556 S
C1309  H1311   1.110   .     S
C1309  H1312   1.110   .     S
C1309  H572    1.111   1_556 S
C1313  C1324   1.449   .     S
C1313  O1367   1.290   .     A
C1313  O1447   1.291   .     S
C1314  O1368   1.290   .     A
C1315  H1353   1.076   .     S
C1315  C1317   1.386   .     A
C1315  C1344   1.416   .     A
C1316  H1354   1.077   .     S
C1316  C1318   1.387   .     A
C1316  C1343   1.416   .     A
C1317  H1347   1.084   .     S
C1318  H1348   1.084   .     S
C1318  C604    1.395   1_556 S
C1319  C1324   1.401   .     A
C1319  H1355   1.083   .     S
C1320  H1356   1.083   .     S
C1320  C830    1.383   1_565 S
C1321  H1357   1.083   .     S
C1321  C1323   1.401   .     A
C1321  C827    1.383   1_565 S
C1322  H1358   1.083   .     S
C1323  C1402   1.401   .     S
C1323  C1396   1.449   .     S
C1324  C1404   1.401   .     S
C1325  N1364   1.367   .     A
C1325  C1327   1.416   .     A
C1325  H1359   1.082   .     S
C1326  C1328   1.416   .     A
C1326  H1360   1.082   .     S
C1326  N1363   1.367   .     A
C1327  N1363   1.367   .     A
C1327  H1361   1.082   .     S
C1328  N1364   1.367   .     A
C1328  H1362   1.082   .     S
C1329  O1371   1.293   .     A
C1329  C1331   1.465   .     S
C1329  O1451   1.295   .     S
C1330  O1372   1.294   .     A
C1330  C1332   1.468   .     S
C1331  C1335   1.398   .     A
C1331  C1337   1.395   .     A
C1332  C1338   1.396   .     A
C1332  C1336   1.397   .     A
C1333  C1341   1.415   .     A
C1333  C1335   1.397   .     A
C1333  O1455   1.383   .     S
C1334  C1336   1.397   .     A
C1334  C1342   1.413   .     A
C1335  H1434   1.084   .     S
C1337  H1350   1.076   .     S
C1337  C1339   1.404   .     A
C1338  H1349   1.075   .     S
C1338  C1340   1.404   .     A
C1339  C1341   1.420   .     A
C1339  C1343   1.426   .     A
C1340  C1344   1.427   .     A
C1340  C1342   1.420   .     A
C1341  C579    1.394   1_556 S
C1343  C606    1.422   1_556 S
Cu1345 O1368   1.964   .     S
Cu1345 O1365   1.964   .     S
Cu1345 O1372   1.941   .     S
Cu1345 O1369   1.954   .     S
Cu1345 N1363   2.011   .     S
Cu1346 O1367   1.964   .     S
Cu1346 O1366   1.964   .     S
Cu1346 O1371   1.941   .     S
Cu1346 N1364   2.011   .     S
Cu1346 O1370   1.954   .     S
Cu1346 Cu1427  2.676   .     S
H1351  C1418   1.083   .     S
O1366  C1396   1.291   .     S
O1370  C1412   1.296   .     S
O1373  C1374   1.412   .     S
C1374  H1375   1.115   .     S
C1374  C1377   1.530   .     S
H1376  C1456   1.115   .     S
C1377  H1379   1.111   .     S
C1377  C1380   1.527   .     S
C1377  H640    1.112   1_556 S
C1380  H1381   1.111   .     S
C1380  H1383   1.107   .     S
C1380  H1382   1.110   .     S
O1384  C1385   1.410   .     S
O1384  C1416   1.382   .     S
C1385  H1387   1.115   .     S
C1385  H1468   1.115   .     S
C1388  C1391   1.525   .     S
C1388  H1389   1.112   .     S
C1388  C647    1.529   1_556 S
C1388  H652    1.112   1_556 S
C1391  H1393   1.110   .     S
C1391  H1394   1.110   .     S
C1391  H654    1.111   1_556 S
C1395  C1406   1.449   .     S
C1395  O1449   1.290   .     A
C1395  O1283   1.291   1_655 S
C1396  O1450   1.290   .     A
C1397  H1435   1.076   .     S
C1397  C1399   1.386   .     A
C1397  C1426   1.416   .     A
C1398  H1436   1.077   .     S
C1398  C1400   1.387   .     A
C1398  C1425   1.416   .     A
C1399  H1429   1.084   .     S
C1400  H1430   1.084   .     S
C1400  C686    1.395   1_556 S
C1401  C1406   1.401   .     A
C1401  H1437   1.083   .     S
C1402  H1438   1.083   .     S
C1402  C912    1.383   1_565 S
C1403  H1439   1.083   .     S
C1403  C1405   1.401   .     A
C1403  C909    1.383   1_565 S
C1404  H1440   1.083   .     S
C1405  C1238   1.401   1_655 S
C1405  C1232   1.449   1_655 S
C1406  C1240   1.401   1_655 S
C1407  N1446   1.367   .     A
C1407  C1409   1.416   .     A
C1407  H1441   1.082   .     S
C1408  C1410   1.416   .     A
C1408  H1442   1.082   .     S
C1408  N1445   1.367   .     A
C1409  N1445   1.367   .     A
C1409  H1443   1.082   .     S
C1410  N1446   1.367   .     A
C1410  H1444   1.082   .     S
C1411  O1453   1.293   .     A
C1411  C1413   1.465   .     S
C1411  O1287   1.295   1_655 S
C1412  O1454   1.294   .     A
C1412  C1414   1.468   .     S
C1413  C1417   1.398   .     A
C1413  C1419   1.395   .     A
C1414  C1420   1.396   .     A
C1414  C1418   1.397   .     A
C1415  C1423   1.415   .     A
C1415  C1417   1.397   .     A
C1415  O1291   1.383   1_655 S
C1416  C1418   1.397   .     A
C1416  C1424   1.413   .     A
C1417  H1270   1.084   1_655 S
C1419  H1432   1.076   .     S
C1419  C1421   1.404   .     A
C1420  H1431   1.075   .     S
C1420  C1422   1.404   .     A
C1421  C1423   1.420   .     A
C1421  C1425   1.426   .     A
C1422  C1426   1.427   .     A
C1422  C1424   1.420   .     A
C1423  C661    1.394   1_556 S
C1425  C688    1.422   1_556 S
Cu1427 O1450   1.964   .     S
Cu1427 O1447   1.964   .     S
Cu1427 O1454   1.941   .     S
Cu1427 O1451   1.954   .     S
Cu1427 N1445   2.011   .     S
Cu1428 O1449   1.964   .     S
Cu1428 O1448   1.964   .     S
Cu1428 O1453   1.941   .     S
Cu1428 N1446   2.011   .     S
Cu1428 O1452   1.954   .     S
Cu1428 Cu1263  2.676   1_655 S
H1433  C1254   1.083   1_655 S
O1448  C1232   1.291   1_655 S
O1452  C1248   1.296   1_655 S
O1455  C1456   1.412   .     S
C1456  H1457   1.115   .     S
C1456  C1459   1.530   .     S
H1458  C1292   1.115   1_655 S
C1459  H1461   1.111   .     S
C1459  C1462   1.527   .     S
C1459  H722    1.112   1_556 S
C1462  H1463   1.111   .     S
C1462  H1465   1.107   .     S
C1462  H1464   1.110   .     S
O1466  C1467   1.410   .     S
O1466  C1252   1.382   1_655 S
C1467  H1469   1.115   .     S
C1467  H1304   1.115   1_655 S
C1470  C1473   1.525   .     S
C1470  H1471   1.112   .     S
C1470  C729    1.529   1_556 S
C1470  H734    1.112   1_556 S
C1473  H1475   1.110   .     S
C1473  H1476   1.110   .     S
C1473  H736    1.111   1_556 S
