data_str_m3_o2_o10_pcu_sym.182
_audit_creation_date              2020-01-03
_audit_creation_method            'Materials Studio'
_symmetry_space_group_name_H-M    'P1'
_symmetry_Int_Tables_number       1
_symmetry_cell_setting            triclinic
loop_
_symmetry_equiv_pos_as_xyz
  x,y,z
_cell_length_a                    25.7528
_cell_length_b                    29.8652
_cell_length_c                    28.4024
_cell_angle_alpha                 89.7236
_cell_angle_beta                  98.5012
_cell_angle_gamma                 90.3295
loop_
_atom_site_label
_atom_site_type_symbol
_atom_site_fract_x
_atom_site_fract_y
_atom_site_fract_z
_atom_site_U_iso_or_equiv
_atom_site_adp_type
_atom_site_occupancy
C1     C     0.16595   0.16382   0.24999   0.00000  Uiso   1.00
C2     C     0.16600   0.33619   0.24980   0.00000  Uiso   1.00
C3     C     0.12595   0.22911   0.04749   0.00000  Uiso   1.00
C4     C     0.19179   0.28435   0.45034   0.00000  Uiso   1.00
C5     C     0.12743   0.22875   0.09720   0.00000  Uiso   1.00
C6     C     0.19224   0.28308   0.40093   0.00000  Uiso   1.00
C7     C     0.20490   0.27279   0.10730   0.00000  Uiso   1.00
C8     C     0.13914   0.21775   0.39396   0.00000  Uiso   1.00
C9     C     0.20613   0.27191   0.05769   0.00000  Uiso   1.00
C10    C     0.14032   0.21667   0.44407   0.00000  Uiso   1.00
C11    C     0.16600   0.25050   0.02659   0.00000  Uiso   1.00
C12    C     0.16604   0.25056   0.47317   0.00000  Uiso   1.00
C13    C     0.06705   0.24993   0.23758   0.00000  Uiso   1.00
C14    C     0.26629   0.25012   0.26242   0.00000  Uiso   1.00
C15    C     0.01204   0.24963   0.23086   0.00000  Uiso   1.00
C16    C     0.32129   0.25057   0.26910   0.00000  Uiso   1.00
C17    C     0.12494   0.04863   0.27996   0.00000  Uiso   1.00
C18    C     0.12825   0.45107   0.20695   0.00000  Uiso   1.00
C19    C     0.13300   0.09474   0.28213   0.00000  Uiso   1.00
C20    C     0.13603   0.40512   0.20739   0.00000  Uiso   1.00
C21    C     0.16047   0.11590   0.24924   0.00000  Uiso   1.00
C22    C     0.16058   0.38409   0.24888   0.00000  Uiso   1.00
C23    C     0.18040   0.09142   0.21423   0.00000  Uiso   1.00
C24    C     0.17765   0.40872   0.29000   0.00000  Uiso   1.00
C25    C     0.17455   0.04548   0.21314   0.00000  Uiso   1.00
C26    C     0.17167   0.45462   0.28925   0.00000  Uiso   1.00
C27    C     0.14759   0.02411   0.24626   0.00000  Uiso   1.00
C28    C     0.14759   0.47581   0.24775   0.00000  Uiso   1.00
H29    H     0.32487   0.24844   0.19454   0.00000  Uiso   1.00
H30    H     0.00850   0.25184   0.30539   0.00000  Uiso   1.00
H31    H     0.11746   0.11391   0.30904   0.00000  Uiso   1.00
H32    H     0.12214   0.38597   0.17566   0.00000  Uiso   1.00
H33    H     0.20158   0.10769   0.18860   0.00000  Uiso   1.00
H34    H     0.19661   0.39262   0.32224   0.00000  Uiso   1.00
H35    H     0.19228   0.02641   0.18737   0.00000  Uiso   1.00
H36    H     0.18710   0.47380   0.32056   0.00000  Uiso   1.00
H37    H     0.09313   0.21299   0.02585   0.00000  Uiso   1.00
H38    H     0.21125   0.31205   0.47015   0.00000  Uiso   1.00
H39    H     0.09670   0.21175   0.11257   0.00000  Uiso   1.00
H40    H     0.21273   0.30900   0.38416   0.00000  Uiso   1.00
H41    H     0.23893   0.28745   0.04410   0.00000  Uiso   1.00
H42    H     0.12200   0.18895   0.45996   0.00000  Uiso   1.00
N43    N     0.16667   0.24999   0.12623   0.00000  Uiso   1.00
N44    N     0.16667   0.25001   0.37376   0.00000  Uiso   1.00
O45    O     0.16667   0.18453   0.28974   0.00000  Uiso   1.00
O46    O     0.16666   0.31546   0.21026   0.00000  Uiso   1.00
O47    O     0.16667   0.18453   0.21026   0.00000  Uiso   1.00
O48    O     0.16666   0.31547   0.28974   0.00000  Uiso   1.00
O49    O     0.09058   0.25000   0.28044   0.00000  Uiso   1.00
O50    O     0.24275   0.25000   0.21955   0.00000  Uiso   1.00
O51    O     0.09058   0.24999   0.20096   0.00000  Uiso   1.00
O52    O     0.24275   0.25000   0.29903   0.00000  Uiso   1.00
Zn53   Zn    0.16667   0.25000   0.30307   0.00000  Uiso   1.00
Zn54   Zn    0.16667   0.24999   0.19693   0.00000  Uiso   1.00
O55    O     0.09883   0.02676   0.31273   0.00000  Uiso   1.00
C56    C     0.04535   0.03883   0.30478   0.00000  Uiso   1.00
H57    H     0.02772   0.03443   0.26683   0.00000  Uiso   1.00
H58    H     0.03986   0.07375   0.31640   0.00000  Uiso   1.00
H59    H     0.02361   0.01651   0.32644   0.00000  Uiso   1.00
O60    O     0.10485   0.47212   0.16585   0.00000  Uiso   1.00
C61    C     0.04995   0.46885   0.16388   0.00000  Uiso   1.00
H62    H     0.03101   0.48698   0.13175   0.00000  Uiso   1.00
H63    H     0.03674   0.48481   0.19540   0.00000  Uiso   1.00
H64    H     0.03643   0.43338   0.16072   0.00000  Uiso   1.00
O65    O     0.24410   0.29429   0.13750   0.00000  Uiso   1.00
C66    C     0.24091   0.34086   0.12916   0.00000  Uiso   1.00
H67    H     0.26648   0.35804   0.15855   0.00000  Uiso   1.00
H68    H     0.20028   0.35363   0.12887   0.00000  Uiso   1.00
H69    H     0.25553   0.34991   0.09545   0.00000  Uiso   1.00
O70    O     0.11350   0.18498   0.36473   0.00000  Uiso   1.00
C71    C     0.06158   0.17845   0.37394   0.00000  Uiso   1.00
H72    H     0.03821   0.16343   0.34189   0.00000  Uiso   1.00
H73    H     0.04207   0.21038   0.38120   0.00000  Uiso   1.00
H74    H     0.06086   0.15443   0.40379   0.00000  Uiso   1.00
C75    C     0.49928   0.16382   0.24999   0.00000  Uiso   1.00
C76    C     0.49933   0.33619   0.24980   0.00000  Uiso   1.00
C77    C     0.45928   0.22911   0.04749   0.00000  Uiso   1.00
C78    C     0.52513   0.28435   0.45034   0.00000  Uiso   1.00
C79    C     0.46076   0.22875   0.09720   0.00000  Uiso   1.00
C80    C     0.52558   0.28308   0.40093   0.00000  Uiso   1.00
C81    C     0.53824   0.27279   0.10730   0.00000  Uiso   1.00
C82    C     0.47248   0.21775   0.39396   0.00000  Uiso   1.00
C83    C     0.53947   0.27191   0.05769   0.00000  Uiso   1.00
C84    C     0.47366   0.21667   0.44407   0.00000  Uiso   1.00
C85    C     0.49933   0.25050   0.02659   0.00000  Uiso   1.00
C86    C     0.49938   0.25056   0.47317   0.00000  Uiso   1.00
C87    C     0.40038   0.24993   0.23758   0.00000  Uiso   1.00
C88    C     0.59962   0.25012   0.26242   0.00000  Uiso   1.00
C89    C     0.34538   0.24963   0.23086   0.00000  Uiso   1.00
C90    C     0.65463   0.25057   0.26910   0.00000  Uiso   1.00
C91    C     0.45827   0.04863   0.27996   0.00000  Uiso   1.00
C92    C     0.46158   0.45107   0.20695   0.00000  Uiso   1.00
C93    C     0.46633   0.09474   0.28213   0.00000  Uiso   1.00
C94    C     0.46936   0.40512   0.20739   0.00000  Uiso   1.00
C95    C     0.49380   0.11590   0.24924   0.00000  Uiso   1.00
C96    C     0.49391   0.38409   0.24888   0.00000  Uiso   1.00
C97    C     0.51373   0.09142   0.21423   0.00000  Uiso   1.00
C98    C     0.51098   0.40872   0.29000   0.00000  Uiso   1.00
C99    C     0.50788   0.04548   0.21314   0.00000  Uiso   1.00
C100   C     0.50500   0.45462   0.28925   0.00000  Uiso   1.00
C101   C     0.48093   0.02411   0.24626   0.00000  Uiso   1.00
C102   C     0.48093   0.47581   0.24775   0.00000  Uiso   1.00
H103   H     0.65820   0.24844   0.19454   0.00000  Uiso   1.00
H104   H     0.34183   0.25184   0.30539   0.00000  Uiso   1.00
H105   H     0.45079   0.11391   0.30904   0.00000  Uiso   1.00
H106   H     0.45547   0.38597   0.17566   0.00000  Uiso   1.00
H107   H     0.53492   0.10769   0.18860   0.00000  Uiso   1.00
H108   H     0.52995   0.39262   0.32224   0.00000  Uiso   1.00
H109   H     0.52562   0.02641   0.18737   0.00000  Uiso   1.00
H110   H     0.52043   0.47380   0.32056   0.00000  Uiso   1.00
H111   H     0.42646   0.21299   0.02585   0.00000  Uiso   1.00
H112   H     0.54459   0.31205   0.47015   0.00000  Uiso   1.00
H113   H     0.43003   0.21175   0.11257   0.00000  Uiso   1.00
H114   H     0.54607   0.30900   0.38416   0.00000  Uiso   1.00
H115   H     0.57227   0.28745   0.04410   0.00000  Uiso   1.00
H116   H     0.45533   0.18895   0.45996   0.00000  Uiso   1.00
N117   N     0.50000   0.24999   0.12623   0.00000  Uiso   1.00
N118   N     0.50000   0.25001   0.37376   0.00000  Uiso   1.00
O119   O     0.50000   0.18453   0.28974   0.00000  Uiso   1.00
O120   O     0.50000   0.31546   0.21026   0.00000  Uiso   1.00
O121   O     0.50000   0.18453   0.21026   0.00000  Uiso   1.00
O122   O     0.50000   0.31547   0.28974   0.00000  Uiso   1.00
O123   O     0.42392   0.25000   0.28044   0.00000  Uiso   1.00
O124   O     0.57608   0.25000   0.21955   0.00000  Uiso   1.00
O125   O     0.42392   0.24999   0.20096   0.00000  Uiso   1.00
O126   O     0.57608   0.25000   0.29903   0.00000  Uiso   1.00
Zn127  Zn    0.50000   0.25000   0.30307   0.00000  Uiso   1.00
Zn128  Zn    0.50000   0.24999   0.19693   0.00000  Uiso   1.00
O129   O     0.43216   0.02676   0.31273   0.00000  Uiso   1.00
C130   C     0.37868   0.03883   0.30478   0.00000  Uiso   1.00
H131   H     0.36105   0.03443   0.26683   0.00000  Uiso   1.00
H132   H     0.37320   0.07375   0.31640   0.00000  Uiso   1.00
H133   H     0.35694   0.01651   0.32644   0.00000  Uiso   1.00
O134   O     0.43818   0.47212   0.16585   0.00000  Uiso   1.00
C135   C     0.38328   0.46885   0.16388   0.00000  Uiso   1.00
H136   H     0.36434   0.48698   0.13175   0.00000  Uiso   1.00
H137   H     0.37008   0.48481   0.19540   0.00000  Uiso   1.00
H138   H     0.36976   0.43338   0.16072   0.00000  Uiso   1.00
O139   O     0.57744   0.29429   0.13750   0.00000  Uiso   1.00
C140   C     0.57424   0.34086   0.12916   0.00000  Uiso   1.00
H141   H     0.59981   0.35804   0.15855   0.00000  Uiso   1.00
H142   H     0.53361   0.35363   0.12887   0.00000  Uiso   1.00
H143   H     0.58886   0.34991   0.09545   0.00000  Uiso   1.00
O144   O     0.44684   0.18498   0.36473   0.00000  Uiso   1.00
C145   C     0.39492   0.17845   0.37394   0.00000  Uiso   1.00
H146   H     0.37155   0.16343   0.34189   0.00000  Uiso   1.00
H147   H     0.37541   0.21038   0.38120   0.00000  Uiso   1.00
H148   H     0.39419   0.15443   0.40379   0.00000  Uiso   1.00
C149   C     0.83262   0.16382   0.24999   0.00000  Uiso   1.00
C150   C     0.83266   0.33619   0.24980   0.00000  Uiso   1.00
C151   C     0.79261   0.22911   0.04749   0.00000  Uiso   1.00
C152   C     0.85846   0.28435   0.45034   0.00000  Uiso   1.00
C153   C     0.79410   0.22875   0.09720   0.00000  Uiso   1.00
C154   C     0.85891   0.28308   0.40093   0.00000  Uiso   1.00
C155   C     0.87157   0.27279   0.10730   0.00000  Uiso   1.00
C156   C     0.80581   0.21775   0.39396   0.00000  Uiso   1.00
C157   C     0.87280   0.27191   0.05769   0.00000  Uiso   1.00
C158   C     0.80699   0.21667   0.44407   0.00000  Uiso   1.00
C159   C     0.83267   0.25050   0.02659   0.00000  Uiso   1.00
C160   C     0.83271   0.25056   0.47317   0.00000  Uiso   1.00
C161   C     0.73371   0.24993   0.23758   0.00000  Uiso   1.00
C162   C     0.93296   0.25012   0.26242   0.00000  Uiso   1.00
C163   C     0.67871   0.24963   0.23086   0.00000  Uiso   1.00
C164   C     0.98796   0.25057   0.26910   0.00000  Uiso   1.00
C165   C     0.79160   0.04863   0.27996   0.00000  Uiso   1.00
C166   C     0.79491   0.45107   0.20695   0.00000  Uiso   1.00
C167   C     0.79966   0.09474   0.28213   0.00000  Uiso   1.00
C168   C     0.80270   0.40512   0.20739   0.00000  Uiso   1.00
C169   C     0.82714   0.11590   0.24924   0.00000  Uiso   1.00
C170   C     0.82724   0.38409   0.24888   0.00000  Uiso   1.00
C171   C     0.84706   0.09142   0.21423   0.00000  Uiso   1.00
C172   C     0.84432   0.40872   0.29000   0.00000  Uiso   1.00
C173   C     0.84122   0.04548   0.21314   0.00000  Uiso   1.00
C174   C     0.83834   0.45462   0.28925   0.00000  Uiso   1.00
C175   C     0.81426   0.02411   0.24626   0.00000  Uiso   1.00
C176   C     0.81426   0.47581   0.24775   0.00000  Uiso   1.00
H177   H     0.99153   0.24844   0.19454   0.00000  Uiso   1.00
H178   H     0.67516   0.25184   0.30539   0.00000  Uiso   1.00
H179   H     0.78412   0.11391   0.30904   0.00000  Uiso   1.00
H180   H     0.78881   0.38597   0.17566   0.00000  Uiso   1.00
H181   H     0.86825   0.10769   0.18860   0.00000  Uiso   1.00
H182   H     0.86328   0.39262   0.32224   0.00000  Uiso   1.00
H183   H     0.85895   0.02641   0.18737   0.00000  Uiso   1.00
H184   H     0.85377   0.47380   0.32056   0.00000  Uiso   1.00
H185   H     0.75979   0.21299   0.02585   0.00000  Uiso   1.00
H186   H     0.87792   0.31205   0.47015   0.00000  Uiso   1.00
H187   H     0.76337   0.21175   0.11257   0.00000  Uiso   1.00
H188   H     0.87940   0.30900   0.38416   0.00000  Uiso   1.00
H189   H     0.90560   0.28745   0.04410   0.00000  Uiso   1.00
H190   H     0.78867   0.18895   0.45996   0.00000  Uiso   1.00
N191   N     0.83333   0.24999   0.12623   0.00000  Uiso   1.00
N192   N     0.83333   0.25001   0.37376   0.00000  Uiso   1.00
O193   O     0.83334   0.18453   0.28974   0.00000  Uiso   1.00
O194   O     0.83333   0.31546   0.21026   0.00000  Uiso   1.00
O195   O     0.83334   0.18453   0.21026   0.00000  Uiso   1.00
O196   O     0.83333   0.31547   0.28974   0.00000  Uiso   1.00
O197   O     0.75725   0.25000   0.28044   0.00000  Uiso   1.00
O198   O     0.90942   0.25000   0.21955   0.00000  Uiso   1.00
O199   O     0.75725   0.24999   0.20096   0.00000  Uiso   1.00
O200   O     0.90942   0.25000   0.29903   0.00000  Uiso   1.00
Zn201  Zn    0.83333   0.25000   0.30307   0.00000  Uiso   1.00
Zn202  Zn    0.83333   0.24999   0.19693   0.00000  Uiso   1.00
O203   O     0.76549   0.02676   0.31273   0.00000  Uiso   1.00
C204   C     0.71202   0.03883   0.30478   0.00000  Uiso   1.00
H205   H     0.69438   0.03443   0.26683   0.00000  Uiso   1.00
H206   H     0.70653   0.07375   0.31640   0.00000  Uiso   1.00
H207   H     0.69027   0.01651   0.32644   0.00000  Uiso   1.00
O208   O     0.77152   0.47212   0.16585   0.00000  Uiso   1.00
C209   C     0.71661   0.46885   0.16388   0.00000  Uiso   1.00
H210   H     0.69767   0.48698   0.13175   0.00000  Uiso   1.00
H211   H     0.70341   0.48481   0.19540   0.00000  Uiso   1.00
H212   H     0.70309   0.43338   0.16072   0.00000  Uiso   1.00
O213   O     0.91077   0.29429   0.13750   0.00000  Uiso   1.00
C214   C     0.90757   0.34086   0.12916   0.00000  Uiso   1.00
H215   H     0.93314   0.35804   0.15855   0.00000  Uiso   1.00
H216   H     0.86694   0.35363   0.12887   0.00000  Uiso   1.00
H217   H     0.92220   0.34991   0.09545   0.00000  Uiso   1.00
O218   O     0.78017   0.18498   0.36473   0.00000  Uiso   1.00
C219   C     0.72825   0.17845   0.37394   0.00000  Uiso   1.00
H220   H     0.70488   0.16343   0.34189   0.00000  Uiso   1.00
H221   H     0.70874   0.21038   0.38120   0.00000  Uiso   1.00
H222   H     0.72752   0.15443   0.40379   0.00000  Uiso   1.00
C223   C     0.16595   0.66382   0.24999   0.00000  Uiso   1.00
C224   C     0.16600   0.83619   0.24980   0.00000  Uiso   1.00
C225   C     0.12595   0.72911   0.04749   0.00000  Uiso   1.00
C226   C     0.19179   0.78435   0.45034   0.00000  Uiso   1.00
C227   C     0.12743   0.72875   0.09720   0.00000  Uiso   1.00
C228   C     0.19224   0.78308   0.40093   0.00000  Uiso   1.00
C229   C     0.20490   0.77279   0.10730   0.00000  Uiso   1.00
C230   C     0.13914   0.71775   0.39396   0.00000  Uiso   1.00
C231   C     0.20613   0.77191   0.05769   0.00000  Uiso   1.00
C232   C     0.14032   0.71667   0.44407   0.00000  Uiso   1.00
C233   C     0.16600   0.75050   0.02659   0.00000  Uiso   1.00
C234   C     0.16604   0.75056   0.47317   0.00000  Uiso   1.00
C235   C     0.06705   0.74993   0.23758   0.00000  Uiso   1.00
C236   C     0.26629   0.75012   0.26242   0.00000  Uiso   1.00
C237   C     0.01204   0.74963   0.23086   0.00000  Uiso   1.00
C238   C     0.32129   0.75057   0.26910   0.00000  Uiso   1.00
C239   C     0.12494   0.54863   0.27996   0.00000  Uiso   1.00
C240   C     0.12825   0.95107   0.20695   0.00000  Uiso   1.00
C241   C     0.13300   0.59474   0.28213   0.00000  Uiso   1.00
C242   C     0.13603   0.90512   0.20739   0.00000  Uiso   1.00
C243   C     0.16047   0.61590   0.24924   0.00000  Uiso   1.00
C244   C     0.16058   0.88409   0.24888   0.00000  Uiso   1.00
C245   C     0.18040   0.59142   0.21423   0.00000  Uiso   1.00
C246   C     0.17765   0.90872   0.29000   0.00000  Uiso   1.00
C247   C     0.17455   0.54548   0.21314   0.00000  Uiso   1.00
C248   C     0.17167   0.95462   0.28925   0.00000  Uiso   1.00
C249   C     0.14759   0.52411   0.24626   0.00000  Uiso   1.00
C250   C     0.14759   0.97581   0.24775   0.00000  Uiso   1.00
H251   H     0.32487   0.74844   0.19454   0.00000  Uiso   1.00
H252   H     0.00850   0.75184   0.30539   0.00000  Uiso   1.00
H253   H     0.11746   0.61391   0.30904   0.00000  Uiso   1.00
H254   H     0.12214   0.88597   0.17566   0.00000  Uiso   1.00
H255   H     0.20158   0.60769   0.18860   0.00000  Uiso   1.00
H256   H     0.19661   0.89262   0.32224   0.00000  Uiso   1.00
H257   H     0.19228   0.52641   0.18737   0.00000  Uiso   1.00
H258   H     0.18710   0.97380   0.32056   0.00000  Uiso   1.00
H259   H     0.09313   0.71299   0.02585   0.00000  Uiso   1.00
H260   H     0.21125   0.81205   0.47015   0.00000  Uiso   1.00
H261   H     0.09670   0.71175   0.11257   0.00000  Uiso   1.00
H262   H     0.21273   0.80900   0.38416   0.00000  Uiso   1.00
H263   H     0.23893   0.78745   0.04410   0.00000  Uiso   1.00
H264   H     0.12200   0.68895   0.45996   0.00000  Uiso   1.00
N265   N     0.16667   0.74999   0.12623   0.00000  Uiso   1.00
N266   N     0.16667   0.75001   0.37376   0.00000  Uiso   1.00
O267   O     0.16667   0.68453   0.28974   0.00000  Uiso   1.00
O268   O     0.16666   0.81546   0.21026   0.00000  Uiso   1.00
O269   O     0.16667   0.68453   0.21026   0.00000  Uiso   1.00
O270   O     0.16666   0.81547   0.28974   0.00000  Uiso   1.00
O271   O     0.09058   0.75000   0.28044   0.00000  Uiso   1.00
O272   O     0.24275   0.75000   0.21955   0.00000  Uiso   1.00
O273   O     0.09058   0.74999   0.20096   0.00000  Uiso   1.00
O274   O     0.24275   0.75000   0.29903   0.00000  Uiso   1.00
Zn275  Zn    0.16667   0.75000   0.30307   0.00000  Uiso   1.00
Zn276  Zn    0.16667   0.74999   0.19693   0.00000  Uiso   1.00
O277   O     0.09883   0.52676   0.31273   0.00000  Uiso   1.00
C278   C     0.04535   0.53883   0.30478   0.00000  Uiso   1.00
H279   H     0.02772   0.53443   0.26683   0.00000  Uiso   1.00
H280   H     0.03986   0.57375   0.31640   0.00000  Uiso   1.00
H281   H     0.02361   0.51651   0.32644   0.00000  Uiso   1.00
O282   O     0.10485   0.97212   0.16585   0.00000  Uiso   1.00
C283   C     0.04995   0.96885   0.16388   0.00000  Uiso   1.00
H284   H     0.03101   0.98698   0.13175   0.00000  Uiso   1.00
H285   H     0.03674   0.98481   0.19540   0.00000  Uiso   1.00
H286   H     0.03643   0.93338   0.16072   0.00000  Uiso   1.00
O287   O     0.24410   0.79429   0.13750   0.00000  Uiso   1.00
C288   C     0.24091   0.84086   0.12916   0.00000  Uiso   1.00
H289   H     0.26648   0.85804   0.15855   0.00000  Uiso   1.00
H290   H     0.20028   0.85363   0.12887   0.00000  Uiso   1.00
H291   H     0.25553   0.84991   0.09545   0.00000  Uiso   1.00
O292   O     0.11350   0.68498   0.36473   0.00000  Uiso   1.00
C293   C     0.06158   0.67845   0.37394   0.00000  Uiso   1.00
H294   H     0.03821   0.66343   0.34189   0.00000  Uiso   1.00
H295   H     0.04207   0.71038   0.38120   0.00000  Uiso   1.00
H296   H     0.06086   0.65443   0.40379   0.00000  Uiso   1.00
C297   C     0.49928   0.66382   0.24999   0.00000  Uiso   1.00
C298   C     0.49933   0.83619   0.24980   0.00000  Uiso   1.00
C299   C     0.45928   0.72911   0.04749   0.00000  Uiso   1.00
C300   C     0.52513   0.78435   0.45034   0.00000  Uiso   1.00
C301   C     0.46076   0.72875   0.09720   0.00000  Uiso   1.00
C302   C     0.52558   0.78308   0.40093   0.00000  Uiso   1.00
C303   C     0.53824   0.77279   0.10730   0.00000  Uiso   1.00
C304   C     0.47248   0.71775   0.39396   0.00000  Uiso   1.00
C305   C     0.53947   0.77191   0.05769   0.00000  Uiso   1.00
C306   C     0.47366   0.71667   0.44407   0.00000  Uiso   1.00
C307   C     0.49933   0.75050   0.02659   0.00000  Uiso   1.00
C308   C     0.49938   0.75056   0.47317   0.00000  Uiso   1.00
C309   C     0.40038   0.74993   0.23758   0.00000  Uiso   1.00
C310   C     0.59962   0.75012   0.26242   0.00000  Uiso   1.00
C311   C     0.34538   0.74963   0.23086   0.00000  Uiso   1.00
C312   C     0.65463   0.75057   0.26910   0.00000  Uiso   1.00
C313   C     0.45827   0.54863   0.27996   0.00000  Uiso   1.00
C314   C     0.46158   0.95107   0.20695   0.00000  Uiso   1.00
C315   C     0.46633   0.59474   0.28213   0.00000  Uiso   1.00
C316   C     0.46936   0.90512   0.20739   0.00000  Uiso   1.00
C317   C     0.49380   0.61590   0.24924   0.00000  Uiso   1.00
C318   C     0.49391   0.88409   0.24888   0.00000  Uiso   1.00
C319   C     0.51373   0.59142   0.21423   0.00000  Uiso   1.00
C320   C     0.51098   0.90872   0.29000   0.00000  Uiso   1.00
C321   C     0.50788   0.54548   0.21314   0.00000  Uiso   1.00
C322   C     0.50500   0.95462   0.28925   0.00000  Uiso   1.00
C323   C     0.48093   0.52411   0.24626   0.00000  Uiso   1.00
C324   C     0.48093   0.97581   0.24775   0.00000  Uiso   1.00
H325   H     0.65820   0.74844   0.19454   0.00000  Uiso   1.00
H326   H     0.34183   0.75184   0.30539   0.00000  Uiso   1.00
H327   H     0.45079   0.61391   0.30904   0.00000  Uiso   1.00
H328   H     0.45547   0.88597   0.17566   0.00000  Uiso   1.00
H329   H     0.53492   0.60769   0.18860   0.00000  Uiso   1.00
H330   H     0.52995   0.89262   0.32224   0.00000  Uiso   1.00
H331   H     0.52562   0.52641   0.18737   0.00000  Uiso   1.00
H332   H     0.52043   0.97380   0.32056   0.00000  Uiso   1.00
H333   H     0.42646   0.71299   0.02585   0.00000  Uiso   1.00
H334   H     0.54459   0.81205   0.47015   0.00000  Uiso   1.00
H335   H     0.43003   0.71175   0.11257   0.00000  Uiso   1.00
H336   H     0.54607   0.80900   0.38416   0.00000  Uiso   1.00
H337   H     0.57227   0.78745   0.04410   0.00000  Uiso   1.00
H338   H     0.45533   0.68895   0.45996   0.00000  Uiso   1.00
N339   N     0.50000   0.74999   0.12623   0.00000  Uiso   1.00
N340   N     0.50000   0.75001   0.37376   0.00000  Uiso   1.00
O341   O     0.50000   0.68453   0.28974   0.00000  Uiso   1.00
O342   O     0.50000   0.81546   0.21026   0.00000  Uiso   1.00
O343   O     0.50000   0.68453   0.21026   0.00000  Uiso   1.00
O344   O     0.50000   0.81547   0.28974   0.00000  Uiso   1.00
O345   O     0.42392   0.75000   0.28044   0.00000  Uiso   1.00
O346   O     0.57608   0.75000   0.21955   0.00000  Uiso   1.00
O347   O     0.42392   0.74999   0.20096   0.00000  Uiso   1.00
O348   O     0.57608   0.75000   0.29903   0.00000  Uiso   1.00
Zn349  Zn    0.50000   0.75000   0.30307   0.00000  Uiso   1.00
Zn350  Zn    0.50000   0.74999   0.19693   0.00000  Uiso   1.00
O351   O     0.43216   0.52676   0.31273   0.00000  Uiso   1.00
C352   C     0.37868   0.53883   0.30478   0.00000  Uiso   1.00
H353   H     0.36105   0.53443   0.26683   0.00000  Uiso   1.00
H354   H     0.37320   0.57375   0.31640   0.00000  Uiso   1.00
H355   H     0.35694   0.51651   0.32644   0.00000  Uiso   1.00
O356   O     0.43818   0.97212   0.16585   0.00000  Uiso   1.00
C357   C     0.38328   0.96885   0.16388   0.00000  Uiso   1.00
H358   H     0.36434   0.98698   0.13175   0.00000  Uiso   1.00
H359   H     0.37008   0.98481   0.19540   0.00000  Uiso   1.00
H360   H     0.36976   0.93338   0.16072   0.00000  Uiso   1.00
O361   O     0.57744   0.79429   0.13750   0.00000  Uiso   1.00
C362   C     0.57424   0.84086   0.12916   0.00000  Uiso   1.00
H363   H     0.59981   0.85804   0.15855   0.00000  Uiso   1.00
H364   H     0.53361   0.85363   0.12887   0.00000  Uiso   1.00
H365   H     0.58886   0.84991   0.09545   0.00000  Uiso   1.00
O366   O     0.44684   0.68498   0.36473   0.00000  Uiso   1.00
C367   C     0.39492   0.67845   0.37394   0.00000  Uiso   1.00
H368   H     0.37155   0.66343   0.34189   0.00000  Uiso   1.00
H369   H     0.37541   0.71038   0.38120   0.00000  Uiso   1.00
H370   H     0.39419   0.65443   0.40379   0.00000  Uiso   1.00
C371   C     0.83262   0.66382   0.24999   0.00000  Uiso   1.00
C372   C     0.83266   0.83619   0.24980   0.00000  Uiso   1.00
C373   C     0.79261   0.72911   0.04749   0.00000  Uiso   1.00
C374   C     0.85846   0.78435   0.45034   0.00000  Uiso   1.00
C375   C     0.79410   0.72875   0.09720   0.00000  Uiso   1.00
C376   C     0.85891   0.78308   0.40093   0.00000  Uiso   1.00
C377   C     0.87157   0.77279   0.10730   0.00000  Uiso   1.00
C378   C     0.80581   0.71775   0.39396   0.00000  Uiso   1.00
C379   C     0.87280   0.77191   0.05769   0.00000  Uiso   1.00
C380   C     0.80699   0.71667   0.44407   0.00000  Uiso   1.00
C381   C     0.83267   0.75050   0.02659   0.00000  Uiso   1.00
C382   C     0.83271   0.75056   0.47317   0.00000  Uiso   1.00
C383   C     0.73371   0.74993   0.23758   0.00000  Uiso   1.00
C384   C     0.93296   0.75012   0.26242   0.00000  Uiso   1.00
C385   C     0.67871   0.74963   0.23086   0.00000  Uiso   1.00
C386   C     0.98796   0.75057   0.26910   0.00000  Uiso   1.00
C387   C     0.79160   0.54863   0.27996   0.00000  Uiso   1.00
C388   C     0.79491   0.95107   0.20695   0.00000  Uiso   1.00
C389   C     0.79966   0.59474   0.28213   0.00000  Uiso   1.00
C390   C     0.80270   0.90512   0.20739   0.00000  Uiso   1.00
C391   C     0.82714   0.61590   0.24924   0.00000  Uiso   1.00
C392   C     0.82724   0.88409   0.24888   0.00000  Uiso   1.00
C393   C     0.84706   0.59142   0.21423   0.00000  Uiso   1.00
C394   C     0.84432   0.90872   0.29000   0.00000  Uiso   1.00
C395   C     0.84122   0.54548   0.21314   0.00000  Uiso   1.00
C396   C     0.83834   0.95462   0.28925   0.00000  Uiso   1.00
C397   C     0.81426   0.52411   0.24626   0.00000  Uiso   1.00
C398   C     0.81426   0.97581   0.24775   0.00000  Uiso   1.00
H399   H     0.99153   0.74844   0.19454   0.00000  Uiso   1.00
H400   H     0.67516   0.75184   0.30539   0.00000  Uiso   1.00
H401   H     0.78412   0.61391   0.30904   0.00000  Uiso   1.00
H402   H     0.78881   0.88597   0.17566   0.00000  Uiso   1.00
H403   H     0.86825   0.60769   0.18860   0.00000  Uiso   1.00
H404   H     0.86328   0.89262   0.32224   0.00000  Uiso   1.00
H405   H     0.85895   0.52641   0.18737   0.00000  Uiso   1.00
H406   H     0.85377   0.97380   0.32056   0.00000  Uiso   1.00
H407   H     0.75979   0.71299   0.02585   0.00000  Uiso   1.00
H408   H     0.87792   0.81205   0.47015   0.00000  Uiso   1.00
H409   H     0.76337   0.71175   0.11257   0.00000  Uiso   1.00
H410   H     0.87940   0.80900   0.38416   0.00000  Uiso   1.00
H411   H     0.90560   0.78745   0.04410   0.00000  Uiso   1.00
H412   H     0.78867   0.68895   0.45996   0.00000  Uiso   1.00
N413   N     0.83333   0.74999   0.12623   0.00000  Uiso   1.00
N414   N     0.83333   0.75001   0.37376   0.00000  Uiso   1.00
O415   O     0.83334   0.68453   0.28974   0.00000  Uiso   1.00
O416   O     0.83333   0.81546   0.21026   0.00000  Uiso   1.00
O417   O     0.83334   0.68453   0.21026   0.00000  Uiso   1.00
O418   O     0.83333   0.81547   0.28974   0.00000  Uiso   1.00
O419   O     0.75725   0.75000   0.28044   0.00000  Uiso   1.00
O420   O     0.90942   0.75000   0.21955   0.00000  Uiso   1.00
O421   O     0.75725   0.74999   0.20096   0.00000  Uiso   1.00
O422   O     0.90942   0.75000   0.29903   0.00000  Uiso   1.00
Zn423  Zn    0.83333   0.75000   0.30307   0.00000  Uiso   1.00
Zn424  Zn    0.83333   0.74999   0.19693   0.00000  Uiso   1.00
O425   O     0.76549   0.52676   0.31273   0.00000  Uiso   1.00
C426   C     0.71202   0.53883   0.30478   0.00000  Uiso   1.00
H427   H     0.69438   0.53443   0.26683   0.00000  Uiso   1.00
H428   H     0.70653   0.57375   0.31640   0.00000  Uiso   1.00
H429   H     0.69027   0.51651   0.32644   0.00000  Uiso   1.00
O430   O     0.77152   0.97212   0.16585   0.00000  Uiso   1.00
C431   C     0.71661   0.96885   0.16388   0.00000  Uiso   1.00
H432   H     0.69767   0.98698   0.13175   0.00000  Uiso   1.00
H433   H     0.70341   0.98481   0.19540   0.00000  Uiso   1.00
H434   H     0.70309   0.93338   0.16072   0.00000  Uiso   1.00
O435   O     0.91077   0.79429   0.13750   0.00000  Uiso   1.00
C436   C     0.90757   0.84086   0.12916   0.00000  Uiso   1.00
H437   H     0.93314   0.85804   0.15855   0.00000  Uiso   1.00
H438   H     0.86694   0.85363   0.12887   0.00000  Uiso   1.00
H439   H     0.92220   0.84991   0.09545   0.00000  Uiso   1.00
O440   O     0.78017   0.68498   0.36473   0.00000  Uiso   1.00
C441   C     0.72825   0.67845   0.37394   0.00000  Uiso   1.00
H442   H     0.70488   0.66343   0.34189   0.00000  Uiso   1.00
H443   H     0.70874   0.71038   0.38120   0.00000  Uiso   1.00
H444   H     0.72752   0.65443   0.40379   0.00000  Uiso   1.00
C445   C     0.16595   0.16382   0.74999   0.00000  Uiso   1.00
C446   C     0.16600   0.33619   0.74980   0.00000  Uiso   1.00
C447   C     0.12595   0.22911   0.54749   0.00000  Uiso   1.00
C448   C     0.19179   0.28435   0.95034   0.00000  Uiso   1.00
C449   C     0.12743   0.22875   0.59720   0.00000  Uiso   1.00
C450   C     0.19224   0.28308   0.90093   0.00000  Uiso   1.00
C451   C     0.20490   0.27279   0.60730   0.00000  Uiso   1.00
C452   C     0.13914   0.21775   0.89396   0.00000  Uiso   1.00
C453   C     0.20613   0.27191   0.55769   0.00000  Uiso   1.00
C454   C     0.14032   0.21667   0.94407   0.00000  Uiso   1.00
C455   C     0.16600   0.25050   0.52659   0.00000  Uiso   1.00
C456   C     0.16604   0.25056   0.97317   0.00000  Uiso   1.00
C457   C     0.06705   0.24993   0.73758   0.00000  Uiso   1.00
C458   C     0.26629   0.25012   0.76242   0.00000  Uiso   1.00
C459   C     0.01204   0.24963   0.73086   0.00000  Uiso   1.00
C460   C     0.32129   0.25057   0.76910   0.00000  Uiso   1.00
C461   C     0.12494   0.04863   0.77996   0.00000  Uiso   1.00
C462   C     0.12825   0.45107   0.70695   0.00000  Uiso   1.00
C463   C     0.13300   0.09474   0.78213   0.00000  Uiso   1.00
C464   C     0.13603   0.40512   0.70739   0.00000  Uiso   1.00
C465   C     0.16047   0.11590   0.74924   0.00000  Uiso   1.00
C466   C     0.16058   0.38409   0.74888   0.00000  Uiso   1.00
C467   C     0.18040   0.09142   0.71423   0.00000  Uiso   1.00
C468   C     0.17765   0.40872   0.79000   0.00000  Uiso   1.00
C469   C     0.17455   0.04548   0.71314   0.00000  Uiso   1.00
C470   C     0.17167   0.45462   0.78925   0.00000  Uiso   1.00
C471   C     0.14759   0.02411   0.74626   0.00000  Uiso   1.00
C472   C     0.14759   0.47581   0.74775   0.00000  Uiso   1.00
H473   H     0.32487   0.24844   0.69454   0.00000  Uiso   1.00
H474   H     0.00850   0.25184   0.80539   0.00000  Uiso   1.00
H475   H     0.11746   0.11391   0.80904   0.00000  Uiso   1.00
H476   H     0.12214   0.38597   0.67566   0.00000  Uiso   1.00
H477   H     0.20158   0.10769   0.68860   0.00000  Uiso   1.00
H478   H     0.19661   0.39262   0.82224   0.00000  Uiso   1.00
H479   H     0.19228   0.02641   0.68737   0.00000  Uiso   1.00
H480   H     0.18710   0.47380   0.82056   0.00000  Uiso   1.00
H481   H     0.09313   0.21299   0.52585   0.00000  Uiso   1.00
H482   H     0.21125   0.31205   0.97015   0.00000  Uiso   1.00
H483   H     0.09670   0.21175   0.61257   0.00000  Uiso   1.00
H484   H     0.21273   0.30900   0.88416   0.00000  Uiso   1.00
H485   H     0.23893   0.28745   0.54410   0.00000  Uiso   1.00
H486   H     0.12200   0.18895   0.95996   0.00000  Uiso   1.00
N487   N     0.16667   0.24999   0.62623   0.00000  Uiso   1.00
N488   N     0.16667   0.25001   0.87376   0.00000  Uiso   1.00
O489   O     0.16667   0.18453   0.78974   0.00000  Uiso   1.00
O490   O     0.16666   0.31546   0.71026   0.00000  Uiso   1.00
O491   O     0.16667   0.18453   0.71026   0.00000  Uiso   1.00
O492   O     0.16666   0.31547   0.78974   0.00000  Uiso   1.00
O493   O     0.09058   0.25000   0.78044   0.00000  Uiso   1.00
O494   O     0.24275   0.25000   0.71955   0.00000  Uiso   1.00
O495   O     0.09058   0.24999   0.70096   0.00000  Uiso   1.00
O496   O     0.24275   0.25000   0.79903   0.00000  Uiso   1.00
Zn497  Zn    0.16667   0.25000   0.80307   0.00000  Uiso   1.00
Zn498  Zn    0.16667   0.24999   0.69693   0.00000  Uiso   1.00
O499   O     0.09883   0.02676   0.81273   0.00000  Uiso   1.00
C500   C     0.04535   0.03883   0.80478   0.00000  Uiso   1.00
H501   H     0.02772   0.03443   0.76683   0.00000  Uiso   1.00
H502   H     0.03986   0.07375   0.81640   0.00000  Uiso   1.00
H503   H     0.02361   0.01651   0.82644   0.00000  Uiso   1.00
O504   O     0.10485   0.47212   0.66585   0.00000  Uiso   1.00
C505   C     0.04995   0.46885   0.66388   0.00000  Uiso   1.00
H506   H     0.03101   0.48698   0.63175   0.00000  Uiso   1.00
H507   H     0.03674   0.48481   0.69540   0.00000  Uiso   1.00
H508   H     0.03643   0.43338   0.66072   0.00000  Uiso   1.00
O509   O     0.24410   0.29429   0.63750   0.00000  Uiso   1.00
C510   C     0.24091   0.34086   0.62916   0.00000  Uiso   1.00
H511   H     0.26648   0.35804   0.65855   0.00000  Uiso   1.00
H512   H     0.20028   0.35363   0.62887   0.00000  Uiso   1.00
H513   H     0.25553   0.34991   0.59545   0.00000  Uiso   1.00
O514   O     0.11350   0.18498   0.86473   0.00000  Uiso   1.00
C515   C     0.06158   0.17845   0.87394   0.00000  Uiso   1.00
H516   H     0.03821   0.16343   0.84189   0.00000  Uiso   1.00
H517   H     0.04207   0.21038   0.88120   0.00000  Uiso   1.00
H518   H     0.06086   0.15443   0.90379   0.00000  Uiso   1.00
C519   C     0.49928   0.16382   0.74999   0.00000  Uiso   1.00
C520   C     0.49933   0.33619   0.74980   0.00000  Uiso   1.00
C521   C     0.45928   0.22911   0.54749   0.00000  Uiso   1.00
C522   C     0.52513   0.28435   0.95034   0.00000  Uiso   1.00
C523   C     0.46076   0.22875   0.59720   0.00000  Uiso   1.00
C524   C     0.52558   0.28308   0.90093   0.00000  Uiso   1.00
C525   C     0.53824   0.27279   0.60730   0.00000  Uiso   1.00
C526   C     0.47248   0.21775   0.89396   0.00000  Uiso   1.00
C527   C     0.53947   0.27191   0.55769   0.00000  Uiso   1.00
C528   C     0.47366   0.21667   0.94407   0.00000  Uiso   1.00
C529   C     0.49933   0.25050   0.52659   0.00000  Uiso   1.00
C530   C     0.49938   0.25056   0.97317   0.00000  Uiso   1.00
C531   C     0.40038   0.24993   0.73758   0.00000  Uiso   1.00
C532   C     0.59962   0.25012   0.76242   0.00000  Uiso   1.00
C533   C     0.34538   0.24963   0.73086   0.00000  Uiso   1.00
C534   C     0.65463   0.25057   0.76910   0.00000  Uiso   1.00
C535   C     0.45827   0.04863   0.77996   0.00000  Uiso   1.00
C536   C     0.46158   0.45107   0.70695   0.00000  Uiso   1.00
C537   C     0.46633   0.09474   0.78213   0.00000  Uiso   1.00
C538   C     0.46936   0.40512   0.70739   0.00000  Uiso   1.00
C539   C     0.49380   0.11590   0.74924   0.00000  Uiso   1.00
C540   C     0.49391   0.38409   0.74888   0.00000  Uiso   1.00
C541   C     0.51373   0.09142   0.71423   0.00000  Uiso   1.00
C542   C     0.51098   0.40872   0.79000   0.00000  Uiso   1.00
C543   C     0.50788   0.04548   0.71314   0.00000  Uiso   1.00
C544   C     0.50500   0.45462   0.78925   0.00000  Uiso   1.00
C545   C     0.48093   0.02411   0.74626   0.00000  Uiso   1.00
C546   C     0.48093   0.47581   0.74775   0.00000  Uiso   1.00
H547   H     0.65820   0.24844   0.69454   0.00000  Uiso   1.00
H548   H     0.34183   0.25184   0.80539   0.00000  Uiso   1.00
H549   H     0.45079   0.11391   0.80904   0.00000  Uiso   1.00
H550   H     0.45547   0.38597   0.67566   0.00000  Uiso   1.00
H551   H     0.53492   0.10769   0.68860   0.00000  Uiso   1.00
H552   H     0.52995   0.39262   0.82224   0.00000  Uiso   1.00
H553   H     0.52562   0.02641   0.68737   0.00000  Uiso   1.00
H554   H     0.52043   0.47380   0.82056   0.00000  Uiso   1.00
H555   H     0.42646   0.21299   0.52585   0.00000  Uiso   1.00
H556   H     0.54459   0.31205   0.97015   0.00000  Uiso   1.00
H557   H     0.43003   0.21175   0.61257   0.00000  Uiso   1.00
H558   H     0.54607   0.30900   0.88416   0.00000  Uiso   1.00
H559   H     0.57227   0.28745   0.54410   0.00000  Uiso   1.00
H560   H     0.45533   0.18895   0.95996   0.00000  Uiso   1.00
N561   N     0.50000   0.24999   0.62623   0.00000  Uiso   1.00
N562   N     0.50000   0.25001   0.87376   0.00000  Uiso   1.00
O563   O     0.50000   0.18453   0.78974   0.00000  Uiso   1.00
O564   O     0.50000   0.31546   0.71026   0.00000  Uiso   1.00
O565   O     0.50000   0.18453   0.71026   0.00000  Uiso   1.00
O566   O     0.50000   0.31547   0.78974   0.00000  Uiso   1.00
O567   O     0.42392   0.25000   0.78044   0.00000  Uiso   1.00
O568   O     0.57608   0.25000   0.71955   0.00000  Uiso   1.00
O569   O     0.42392   0.24999   0.70096   0.00000  Uiso   1.00
O570   O     0.57608   0.25000   0.79903   0.00000  Uiso   1.00
Zn571  Zn    0.50000   0.25000   0.80307   0.00000  Uiso   1.00
Zn572  Zn    0.50000   0.24999   0.69693   0.00000  Uiso   1.00
O573   O     0.43216   0.02676   0.81273   0.00000  Uiso   1.00
C574   C     0.37868   0.03883   0.80478   0.00000  Uiso   1.00
H575   H     0.36105   0.03443   0.76683   0.00000  Uiso   1.00
H576   H     0.37320   0.07375   0.81640   0.00000  Uiso   1.00
H577   H     0.35694   0.01651   0.82644   0.00000  Uiso   1.00
O578   O     0.43818   0.47212   0.66585   0.00000  Uiso   1.00
C579   C     0.38328   0.46885   0.66388   0.00000  Uiso   1.00
H580   H     0.36434   0.48698   0.63175   0.00000  Uiso   1.00
H581   H     0.37008   0.48481   0.69540   0.00000  Uiso   1.00
H582   H     0.36976   0.43338   0.66072   0.00000  Uiso   1.00
O583   O     0.57744   0.29429   0.63750   0.00000  Uiso   1.00
C584   C     0.57424   0.34086   0.62916   0.00000  Uiso   1.00
H585   H     0.59981   0.35804   0.65855   0.00000  Uiso   1.00
H586   H     0.53361   0.35363   0.62887   0.00000  Uiso   1.00
H587   H     0.58886   0.34991   0.59545   0.00000  Uiso   1.00
O588   O     0.44684   0.18498   0.86473   0.00000  Uiso   1.00
C589   C     0.39492   0.17845   0.87394   0.00000  Uiso   1.00
H590   H     0.37155   0.16343   0.84189   0.00000  Uiso   1.00
H591   H     0.37541   0.21038   0.88120   0.00000  Uiso   1.00
H592   H     0.39419   0.15443   0.90379   0.00000  Uiso   1.00
C593   C     0.83262   0.16382   0.74999   0.00000  Uiso   1.00
C594   C     0.83266   0.33619   0.74980   0.00000  Uiso   1.00
C595   C     0.79261   0.22911   0.54749   0.00000  Uiso   1.00
C596   C     0.85846   0.28435   0.95034   0.00000  Uiso   1.00
C597   C     0.79410   0.22875   0.59720   0.00000  Uiso   1.00
C598   C     0.85891   0.28308   0.90093   0.00000  Uiso   1.00
C599   C     0.87157   0.27279   0.60730   0.00000  Uiso   1.00
C600   C     0.80581   0.21775   0.89396   0.00000  Uiso   1.00
C601   C     0.87280   0.27191   0.55769   0.00000  Uiso   1.00
C602   C     0.80699   0.21667   0.94407   0.00000  Uiso   1.00
C603   C     0.83267   0.25050   0.52659   0.00000  Uiso   1.00
C604   C     0.83271   0.25056   0.97317   0.00000  Uiso   1.00
C605   C     0.73371   0.24993   0.73758   0.00000  Uiso   1.00
C606   C     0.93296   0.25012   0.76242   0.00000  Uiso   1.00
C607   C     0.67871   0.24963   0.73086   0.00000  Uiso   1.00
C608   C     0.98796   0.25057   0.76910   0.00000  Uiso   1.00
C609   C     0.79160   0.04863   0.77996   0.00000  Uiso   1.00
C610   C     0.79491   0.45107   0.70695   0.00000  Uiso   1.00
C611   C     0.79966   0.09474   0.78213   0.00000  Uiso   1.00
C612   C     0.80270   0.40512   0.70739   0.00000  Uiso   1.00
C613   C     0.82714   0.11590   0.74924   0.00000  Uiso   1.00
C614   C     0.82724   0.38409   0.74888   0.00000  Uiso   1.00
C615   C     0.84706   0.09142   0.71423   0.00000  Uiso   1.00
C616   C     0.84432   0.40872   0.79000   0.00000  Uiso   1.00
C617   C     0.84122   0.04548   0.71314   0.00000  Uiso   1.00
C618   C     0.83834   0.45462   0.78925   0.00000  Uiso   1.00
C619   C     0.81426   0.02411   0.74626   0.00000  Uiso   1.00
C620   C     0.81426   0.47581   0.74775   0.00000  Uiso   1.00
H621   H     0.99153   0.24844   0.69454   0.00000  Uiso   1.00
H622   H     0.67516   0.25184   0.80539   0.00000  Uiso   1.00
H623   H     0.78412   0.11391   0.80904   0.00000  Uiso   1.00
H624   H     0.78881   0.38597   0.67566   0.00000  Uiso   1.00
H625   H     0.86825   0.10769   0.68860   0.00000  Uiso   1.00
H626   H     0.86328   0.39262   0.82224   0.00000  Uiso   1.00
H627   H     0.85895   0.02641   0.68737   0.00000  Uiso   1.00
H628   H     0.85377   0.47380   0.82056   0.00000  Uiso   1.00
H629   H     0.75979   0.21299   0.52585   0.00000  Uiso   1.00
H630   H     0.87792   0.31205   0.97015   0.00000  Uiso   1.00
H631   H     0.76337   0.21175   0.61257   0.00000  Uiso   1.00
H632   H     0.87940   0.30900   0.88416   0.00000  Uiso   1.00
H633   H     0.90560   0.28745   0.54410   0.00000  Uiso   1.00
H634   H     0.78867   0.18895   0.95996   0.00000  Uiso   1.00
N635   N     0.83333   0.24999   0.62623   0.00000  Uiso   1.00
N636   N     0.83333   0.25001   0.87376   0.00000  Uiso   1.00
O637   O     0.83334   0.18453   0.78974   0.00000  Uiso   1.00
O638   O     0.83333   0.31546   0.71026   0.00000  Uiso   1.00
O639   O     0.83334   0.18453   0.71026   0.00000  Uiso   1.00
O640   O     0.83333   0.31547   0.78974   0.00000  Uiso   1.00
O641   O     0.75725   0.25000   0.78044   0.00000  Uiso   1.00
O642   O     0.90942   0.25000   0.71955   0.00000  Uiso   1.00
O643   O     0.75725   0.24999   0.70096   0.00000  Uiso   1.00
O644   O     0.90942   0.25000   0.79903   0.00000  Uiso   1.00
Zn645  Zn    0.83333   0.25000   0.80307   0.00000  Uiso   1.00
Zn646  Zn    0.83333   0.24999   0.69693   0.00000  Uiso   1.00
O647   O     0.76549   0.02676   0.81273   0.00000  Uiso   1.00
C648   C     0.71202   0.03883   0.80478   0.00000  Uiso   1.00
H649   H     0.69438   0.03443   0.76683   0.00000  Uiso   1.00
H650   H     0.70653   0.07375   0.81640   0.00000  Uiso   1.00
H651   H     0.69027   0.01651   0.82644   0.00000  Uiso   1.00
O652   O     0.77152   0.47212   0.66585   0.00000  Uiso   1.00
C653   C     0.71661   0.46885   0.66388   0.00000  Uiso   1.00
H654   H     0.69767   0.48698   0.63175   0.00000  Uiso   1.00
H655   H     0.70341   0.48481   0.69540   0.00000  Uiso   1.00
H656   H     0.70309   0.43338   0.66072   0.00000  Uiso   1.00
O657   O     0.91077   0.29429   0.63750   0.00000  Uiso   1.00
C658   C     0.90757   0.34086   0.62916   0.00000  Uiso   1.00
H659   H     0.93314   0.35804   0.65855   0.00000  Uiso   1.00
H660   H     0.86694   0.35363   0.62887   0.00000  Uiso   1.00
H661   H     0.92220   0.34991   0.59545   0.00000  Uiso   1.00
O662   O     0.78017   0.18498   0.86473   0.00000  Uiso   1.00
C663   C     0.72825   0.17845   0.87394   0.00000  Uiso   1.00
H664   H     0.70488   0.16343   0.84189   0.00000  Uiso   1.00
H665   H     0.70874   0.21038   0.88120   0.00000  Uiso   1.00
H666   H     0.72752   0.15443   0.90379   0.00000  Uiso   1.00
C667   C     0.16595   0.66382   0.74999   0.00000  Uiso   1.00
C668   C     0.16600   0.83619   0.74980   0.00000  Uiso   1.00
C669   C     0.12595   0.72911   0.54749   0.00000  Uiso   1.00
C670   C     0.19179   0.78435   0.95034   0.00000  Uiso   1.00
C671   C     0.12743   0.72875   0.59720   0.00000  Uiso   1.00
C672   C     0.19224   0.78308   0.90093   0.00000  Uiso   1.00
C673   C     0.20490   0.77279   0.60730   0.00000  Uiso   1.00
C674   C     0.13914   0.71775   0.89396   0.00000  Uiso   1.00
C675   C     0.20613   0.77191   0.55769   0.00000  Uiso   1.00
C676   C     0.14032   0.71667   0.94407   0.00000  Uiso   1.00
C677   C     0.16600   0.75050   0.52659   0.00000  Uiso   1.00
C678   C     0.16604   0.75056   0.97317   0.00000  Uiso   1.00
C679   C     0.06705   0.74993   0.73758   0.00000  Uiso   1.00
C680   C     0.26629   0.75012   0.76242   0.00000  Uiso   1.00
C681   C     0.01204   0.74963   0.73086   0.00000  Uiso   1.00
C682   C     0.32129   0.75057   0.76910   0.00000  Uiso   1.00
C683   C     0.12494   0.54863   0.77996   0.00000  Uiso   1.00
C684   C     0.12825   0.95107   0.70695   0.00000  Uiso   1.00
C685   C     0.13300   0.59474   0.78213   0.00000  Uiso   1.00
C686   C     0.13603   0.90512   0.70739   0.00000  Uiso   1.00
C687   C     0.16047   0.61590   0.74924   0.00000  Uiso   1.00
C688   C     0.16058   0.88409   0.74888   0.00000  Uiso   1.00
C689   C     0.18040   0.59142   0.71423   0.00000  Uiso   1.00
C690   C     0.17765   0.90872   0.79000   0.00000  Uiso   1.00
C691   C     0.17455   0.54548   0.71314   0.00000  Uiso   1.00
C692   C     0.17167   0.95462   0.78925   0.00000  Uiso   1.00
C693   C     0.14759   0.52411   0.74626   0.00000  Uiso   1.00
C694   C     0.14759   0.97581   0.74775   0.00000  Uiso   1.00
H695   H     0.32487   0.74844   0.69454   0.00000  Uiso   1.00
H696   H     0.00850   0.75184   0.80539   0.00000  Uiso   1.00
H697   H     0.11746   0.61391   0.80904   0.00000  Uiso   1.00
H698   H     0.12214   0.88597   0.67566   0.00000  Uiso   1.00
H699   H     0.20158   0.60769   0.68860   0.00000  Uiso   1.00
H700   H     0.19661   0.89262   0.82224   0.00000  Uiso   1.00
H701   H     0.19228   0.52641   0.68737   0.00000  Uiso   1.00
H702   H     0.18710   0.97380   0.82056   0.00000  Uiso   1.00
H703   H     0.09313   0.71299   0.52585   0.00000  Uiso   1.00
H704   H     0.21125   0.81205   0.97015   0.00000  Uiso   1.00
H705   H     0.09670   0.71175   0.61257   0.00000  Uiso   1.00
H706   H     0.21273   0.80900   0.88416   0.00000  Uiso   1.00
H707   H     0.23893   0.78745   0.54410   0.00000  Uiso   1.00
H708   H     0.12200   0.68895   0.95996   0.00000  Uiso   1.00
N709   N     0.16667   0.74999   0.62623   0.00000  Uiso   1.00
N710   N     0.16667   0.75001   0.87376   0.00000  Uiso   1.00
O711   O     0.16667   0.68453   0.78974   0.00000  Uiso   1.00
O712   O     0.16666   0.81546   0.71026   0.00000  Uiso   1.00
O713   O     0.16667   0.68453   0.71026   0.00000  Uiso   1.00
O714   O     0.16666   0.81547   0.78974   0.00000  Uiso   1.00
O715   O     0.09058   0.75000   0.78044   0.00000  Uiso   1.00
O716   O     0.24275   0.75000   0.71955   0.00000  Uiso   1.00
O717   O     0.09058   0.74999   0.70096   0.00000  Uiso   1.00
O718   O     0.24275   0.75000   0.79903   0.00000  Uiso   1.00
Zn719  Zn    0.16667   0.75000   0.80307   0.00000  Uiso   1.00
Zn720  Zn    0.16667   0.74999   0.69693   0.00000  Uiso   1.00
O721   O     0.09883   0.52676   0.81273   0.00000  Uiso   1.00
C722   C     0.04535   0.53883   0.80478   0.00000  Uiso   1.00
H723   H     0.02772   0.53443   0.76683   0.00000  Uiso   1.00
H724   H     0.03986   0.57375   0.81640   0.00000  Uiso   1.00
H725   H     0.02361   0.51651   0.82644   0.00000  Uiso   1.00
O726   O     0.10485   0.97212   0.66585   0.00000  Uiso   1.00
C727   C     0.04995   0.96885   0.66388   0.00000  Uiso   1.00
H728   H     0.03101   0.98698   0.63175   0.00000  Uiso   1.00
H729   H     0.03674   0.98481   0.69540   0.00000  Uiso   1.00
H730   H     0.03643   0.93338   0.66072   0.00000  Uiso   1.00
O731   O     0.24410   0.79429   0.63750   0.00000  Uiso   1.00
C732   C     0.24091   0.84086   0.62916   0.00000  Uiso   1.00
H733   H     0.26648   0.85804   0.65855   0.00000  Uiso   1.00
H734   H     0.20028   0.85363   0.62887   0.00000  Uiso   1.00
H735   H     0.25553   0.84991   0.59545   0.00000  Uiso   1.00
O736   O     0.11350   0.68498   0.86473   0.00000  Uiso   1.00
C737   C     0.06158   0.67845   0.87394   0.00000  Uiso   1.00
H738   H     0.03821   0.66343   0.84189   0.00000  Uiso   1.00
H739   H     0.04207   0.71038   0.88120   0.00000  Uiso   1.00
H740   H     0.06086   0.65443   0.90379   0.00000  Uiso   1.00
C741   C     0.49928   0.66382   0.74999   0.00000  Uiso   1.00
C742   C     0.49933   0.83619   0.74980   0.00000  Uiso   1.00
C743   C     0.45928   0.72911   0.54749   0.00000  Uiso   1.00
C744   C     0.52513   0.78435   0.95034   0.00000  Uiso   1.00
C745   C     0.46076   0.72875   0.59720   0.00000  Uiso   1.00
C746   C     0.52558   0.78308   0.90093   0.00000  Uiso   1.00
C747   C     0.53824   0.77279   0.60730   0.00000  Uiso   1.00
C748   C     0.47248   0.71775   0.89396   0.00000  Uiso   1.00
C749   C     0.53947   0.77191   0.55769   0.00000  Uiso   1.00
C750   C     0.47366   0.71667   0.94407   0.00000  Uiso   1.00
C751   C     0.49933   0.75050   0.52659   0.00000  Uiso   1.00
C752   C     0.49938   0.75056   0.97317   0.00000  Uiso   1.00
C753   C     0.40038   0.74993   0.73758   0.00000  Uiso   1.00
C754   C     0.59962   0.75012   0.76242   0.00000  Uiso   1.00
C755   C     0.34538   0.74963   0.73086   0.00000  Uiso   1.00
C756   C     0.65463   0.75057   0.76910   0.00000  Uiso   1.00
C757   C     0.45827   0.54863   0.77996   0.00000  Uiso   1.00
C758   C     0.46158   0.95107   0.70695   0.00000  Uiso   1.00
C759   C     0.46633   0.59474   0.78213   0.00000  Uiso   1.00
C760   C     0.46936   0.90512   0.70739   0.00000  Uiso   1.00
C761   C     0.49380   0.61590   0.74924   0.00000  Uiso   1.00
C762   C     0.49391   0.88409   0.74888   0.00000  Uiso   1.00
C763   C     0.51373   0.59142   0.71423   0.00000  Uiso   1.00
C764   C     0.51098   0.90872   0.79000   0.00000  Uiso   1.00
C765   C     0.50788   0.54548   0.71314   0.00000  Uiso   1.00
C766   C     0.50500   0.95462   0.78925   0.00000  Uiso   1.00
C767   C     0.48093   0.52411   0.74626   0.00000  Uiso   1.00
C768   C     0.48093   0.97581   0.74775   0.00000  Uiso   1.00
H769   H     0.65820   0.74844   0.69454   0.00000  Uiso   1.00
H770   H     0.34183   0.75184   0.80539   0.00000  Uiso   1.00
H771   H     0.45079   0.61391   0.80904   0.00000  Uiso   1.00
H772   H     0.45547   0.88597   0.67566   0.00000  Uiso   1.00
H773   H     0.53492   0.60769   0.68860   0.00000  Uiso   1.00
H774   H     0.52995   0.89262   0.82224   0.00000  Uiso   1.00
H775   H     0.52562   0.52641   0.68737   0.00000  Uiso   1.00
H776   H     0.52043   0.97380   0.82056   0.00000  Uiso   1.00
H777   H     0.42646   0.71299   0.52585   0.00000  Uiso   1.00
H778   H     0.54459   0.81205   0.97015   0.00000  Uiso   1.00
H779   H     0.43003   0.71175   0.61257   0.00000  Uiso   1.00
H780   H     0.54607   0.80900   0.88416   0.00000  Uiso   1.00
H781   H     0.57227   0.78745   0.54410   0.00000  Uiso   1.00
H782   H     0.45533   0.68895   0.95996   0.00000  Uiso   1.00
N783   N     0.50000   0.74999   0.62623   0.00000  Uiso   1.00
N784   N     0.50000   0.75001   0.87376   0.00000  Uiso   1.00
O785   O     0.50000   0.68453   0.78974   0.00000  Uiso   1.00
O786   O     0.50000   0.81546   0.71026   0.00000  Uiso   1.00
O787   O     0.50000   0.68453   0.71026   0.00000  Uiso   1.00
O788   O     0.50000   0.81547   0.78974   0.00000  Uiso   1.00
O789   O     0.42392   0.75000   0.78044   0.00000  Uiso   1.00
O790   O     0.57608   0.75000   0.71955   0.00000  Uiso   1.00
O791   O     0.42392   0.74999   0.70096   0.00000  Uiso   1.00
O792   O     0.57608   0.75000   0.79903   0.00000  Uiso   1.00
Zn793  Zn    0.50000   0.75000   0.80307   0.00000  Uiso   1.00
Zn794  Zn    0.50000   0.74999   0.69693   0.00000  Uiso   1.00
O795   O     0.43216   0.52676   0.81273   0.00000  Uiso   1.00
C796   C     0.37868   0.53883   0.80478   0.00000  Uiso   1.00
H797   H     0.36105   0.53443   0.76683   0.00000  Uiso   1.00
H798   H     0.37320   0.57375   0.81640   0.00000  Uiso   1.00
H799   H     0.35694   0.51651   0.82644   0.00000  Uiso   1.00
O800   O     0.43818   0.97212   0.66585   0.00000  Uiso   1.00
C801   C     0.38328   0.96885   0.66388   0.00000  Uiso   1.00
H802   H     0.36434   0.98698   0.63175   0.00000  Uiso   1.00
H803   H     0.37008   0.98481   0.69540   0.00000  Uiso   1.00
H804   H     0.36976   0.93338   0.66072   0.00000  Uiso   1.00
O805   O     0.57744   0.79429   0.63750   0.00000  Uiso   1.00
C806   C     0.57424   0.84086   0.62916   0.00000  Uiso   1.00
H807   H     0.59981   0.85804   0.65855   0.00000  Uiso   1.00
H808   H     0.53361   0.85363   0.62887   0.00000  Uiso   1.00
H809   H     0.58886   0.84991   0.59545   0.00000  Uiso   1.00
O810   O     0.44684   0.68498   0.86473   0.00000  Uiso   1.00
C811   C     0.39492   0.67845   0.87394   0.00000  Uiso   1.00
H812   H     0.37155   0.66343   0.84189   0.00000  Uiso   1.00
H813   H     0.37541   0.71038   0.88120   0.00000  Uiso   1.00
H814   H     0.39419   0.65443   0.90379   0.00000  Uiso   1.00
C815   C     0.83262   0.66382   0.74999   0.00000  Uiso   1.00
C816   C     0.83266   0.83619   0.74980   0.00000  Uiso   1.00
C817   C     0.79261   0.72911   0.54749   0.00000  Uiso   1.00
C818   C     0.85846   0.78435   0.95034   0.00000  Uiso   1.00
C819   C     0.79410   0.72875   0.59720   0.00000  Uiso   1.00
C820   C     0.85891   0.78308   0.90093   0.00000  Uiso   1.00
C821   C     0.87157   0.77279   0.60730   0.00000  Uiso   1.00
C822   C     0.80581   0.71775   0.89396   0.00000  Uiso   1.00
C823   C     0.87280   0.77191   0.55769   0.00000  Uiso   1.00
C824   C     0.80699   0.71667   0.94407   0.00000  Uiso   1.00
C825   C     0.83267   0.75050   0.52659   0.00000  Uiso   1.00
C826   C     0.83271   0.75056   0.97317   0.00000  Uiso   1.00
C827   C     0.73371   0.74993   0.73758   0.00000  Uiso   1.00
C828   C     0.93296   0.75012   0.76242   0.00000  Uiso   1.00
C829   C     0.67871   0.74963   0.73086   0.00000  Uiso   1.00
C830   C     0.98796   0.75057   0.76910   0.00000  Uiso   1.00
C831   C     0.79160   0.54863   0.77996   0.00000  Uiso   1.00
C832   C     0.79491   0.95107   0.70695   0.00000  Uiso   1.00
C833   C     0.79966   0.59474   0.78213   0.00000  Uiso   1.00
C834   C     0.80270   0.90512   0.70739   0.00000  Uiso   1.00
C835   C     0.82714   0.61590   0.74924   0.00000  Uiso   1.00
C836   C     0.82724   0.88409   0.74888   0.00000  Uiso   1.00
C837   C     0.84706   0.59142   0.71423   0.00000  Uiso   1.00
C838   C     0.84432   0.90872   0.79000   0.00000  Uiso   1.00
C839   C     0.84122   0.54548   0.71314   0.00000  Uiso   1.00
C840   C     0.83834   0.95462   0.78925   0.00000  Uiso   1.00
C841   C     0.81426   0.52411   0.74626   0.00000  Uiso   1.00
C842   C     0.81426   0.97581   0.74775   0.00000  Uiso   1.00
H843   H     0.99153   0.74844   0.69454   0.00000  Uiso   1.00
H844   H     0.67516   0.75184   0.80539   0.00000  Uiso   1.00
H845   H     0.78412   0.61391   0.80904   0.00000  Uiso   1.00
H846   H     0.78881   0.88597   0.67566   0.00000  Uiso   1.00
H847   H     0.86825   0.60769   0.68860   0.00000  Uiso   1.00
H848   H     0.86328   0.89262   0.82224   0.00000  Uiso   1.00
H849   H     0.85895   0.52641   0.68737   0.00000  Uiso   1.00
H850   H     0.85377   0.97380   0.82056   0.00000  Uiso   1.00
H851   H     0.75979   0.71299   0.52585   0.00000  Uiso   1.00
H852   H     0.87792   0.81205   0.97015   0.00000  Uiso   1.00
H853   H     0.76337   0.71175   0.61257   0.00000  Uiso   1.00
H854   H     0.87940   0.80900   0.88416   0.00000  Uiso   1.00
H855   H     0.90560   0.78745   0.54410   0.00000  Uiso   1.00
H856   H     0.78867   0.68895   0.95996   0.00000  Uiso   1.00
N857   N     0.83333   0.74999   0.62623   0.00000  Uiso   1.00
N858   N     0.83333   0.75001   0.87376   0.00000  Uiso   1.00
O859   O     0.83334   0.68453   0.78974   0.00000  Uiso   1.00
O860   O     0.83333   0.81546   0.71026   0.00000  Uiso   1.00
O861   O     0.83334   0.68453   0.71026   0.00000  Uiso   1.00
O862   O     0.83333   0.81547   0.78974   0.00000  Uiso   1.00
O863   O     0.75725   0.75000   0.78044   0.00000  Uiso   1.00
O864   O     0.90942   0.75000   0.71955   0.00000  Uiso   1.00
O865   O     0.75725   0.74999   0.70096   0.00000  Uiso   1.00
O866   O     0.90942   0.75000   0.79903   0.00000  Uiso   1.00
Zn867  Zn    0.83333   0.75000   0.80307   0.00000  Uiso   1.00
Zn868  Zn    0.83333   0.74999   0.69693   0.00000  Uiso   1.00
O869   O     0.76549   0.52676   0.81273   0.00000  Uiso   1.00
C870   C     0.71202   0.53883   0.80478   0.00000  Uiso   1.00
H871   H     0.69438   0.53443   0.76683   0.00000  Uiso   1.00
H872   H     0.70653   0.57375   0.81640   0.00000  Uiso   1.00
H873   H     0.69027   0.51651   0.82644   0.00000  Uiso   1.00
O874   O     0.77152   0.97212   0.66585   0.00000  Uiso   1.00
C875   C     0.71661   0.96885   0.66388   0.00000  Uiso   1.00
H876   H     0.69767   0.98698   0.63175   0.00000  Uiso   1.00
H877   H     0.70341   0.98481   0.69540   0.00000  Uiso   1.00
H878   H     0.70309   0.93338   0.66072   0.00000  Uiso   1.00
O879   O     0.91077   0.79429   0.63750   0.00000  Uiso   1.00
C880   C     0.90757   0.84086   0.62916   0.00000  Uiso   1.00
H881   H     0.93314   0.85804   0.65855   0.00000  Uiso   1.00
H882   H     0.86694   0.85363   0.62887   0.00000  Uiso   1.00
H883   H     0.92220   0.84991   0.59545   0.00000  Uiso   1.00
O884   O     0.78017   0.68498   0.86473   0.00000  Uiso   1.00
C885   C     0.72825   0.67845   0.87394   0.00000  Uiso   1.00
H886   H     0.70488   0.66343   0.84189   0.00000  Uiso   1.00
H887   H     0.70874   0.71038   0.88120   0.00000  Uiso   1.00
H888   H     0.72752   0.65443   0.90379   0.00000  Uiso   1.00
loop_
_geom_bond_atom_site_label_1
_geom_bond_atom_site_label_2
_geom_bond_distance
_geom_bond_site_symmetry_2
_ccdc_geom_bond_type
C1     C21     1.437   .     S
C1     O45     1.288   .     A
C1     O47     1.287   .     A
C2     O48     1.287   .     A
C2     C22     1.438   .     S
C2     O46     1.287   .     A
C3     C5      1.407   .     A
C3     H37     1.081   .     S
C3     C11     1.412   .     A
C4     C12     1.411   .     A
C4     C6      1.406   .     A
C4     H38     1.081   .     S
C5     N43     1.362   .     A
C5     H39     1.082   .     S
C6     N44     1.362   .     A
C6     H40     1.082   .     S
C7     N43     1.367   .     A
C7     O65     1.382   .     S
C7     C9      1.414   .     A
C8     C10     1.419   .     A
C8     O70     1.386   .     S
C8     N44     1.366   .     A
C9     H41     1.081   .     S
C9     C11     1.409   .     A
C10    H42     1.080   .     S
C10    C12     1.409   .     A
C11    C456    1.518   1_554 S
C12    C455    1.518   .     S
C13    C15     1.401   .     S
C13    O49     1.277   .     A
C13    O51     1.279   .     A
C14    C16     1.401   .     S
C14    O50     1.277   .     A
C14    O52     1.279   .     A
C15    C164    1.329   1_455 S
C15    H177    1.088   1_455 S
C16    C89     1.329   .     S
C16    H104    1.087   .     S
C17    O55     1.385   .     S
C17    C27     1.404   .     A
C17    C19     1.392   .     A
C18    O60     1.382   .     S
C18    C28     1.404   .     A
C18    C20     1.388   .     A
C19    H31     1.082   .     S
C19    C21     1.399   .     A
C20    H32     1.084   .     S
C20    C22     1.400   .     A
C21    C23     1.396   .     A
C22    C24     1.397   .     A
C23    C25     1.379   .     A
C23    H33     1.084   .     S
C24    C26     1.380   .     A
C24    H34     1.084   .     S
C25    H35     1.084   .     S
C25    C27     1.399   .     A
C26    C28     1.398   .     A
C26    H36     1.084   .     S
C27    C250    1.443   1_545 S
C28    C249    1.443   .     S
H29    C89     1.088   .     S
H30    C164    1.087   1_455 S
N43    Zn54    2.008   .     S
N44    Zn53    2.008   .     S
O45    Zn53    1.993   .     S
O46    Zn54    1.993   .     S
O47    Zn54    1.990   .     S
O48    Zn53    1.990   .     S
O49    Zn53    1.970   .     S
O50    Zn54    1.970   .     S
O51    Zn54    1.980   .     S
O52    Zn53    1.980   .     S
O55    C56     1.411   .     S
C56    H59     1.109   .     S
C56    H58     1.111   .     S
C56    H57     1.114   .     S
O60    C61     1.409   .     S
C61    H64     1.113   .     S
C61    H62     1.109   .     S
C61    H63     1.113   .     S
O65    C66     1.411   .     S
C66    H68     1.114   .     S
C66    H67     1.109   .     S
C66    H69     1.111   .     S
O70    C71     1.412   .     S
C71    H72     1.110   .     S
C71    H74     1.110   .     S
C71    H73     1.115   .     S
C75    C95     1.437   .     S
C75    O119    1.288   .     A
C75    O121    1.287   .     A
C76    O122    1.287   .     A
C76    C96     1.438   .     S
C76    O120    1.287   .     A
C77    C79     1.407   .     A
C77    H111    1.081   .     S
C77    C85     1.412   .     A
C78    C86     1.411   .     A
C78    C80     1.406   .     A
C78    H112    1.081   .     S
C79    N117    1.362   .     A
C79    H113    1.082   .     S
C80    N118    1.362   .     A
C80    H114    1.082   .     S
C81    N117    1.367   .     A
C81    O139    1.382   .     S
C81    C83     1.414   .     A
C82    C84     1.419   .     A
C82    O144    1.386   .     S
C82    N118    1.366   .     A
C83    H115    1.081   .     S
C83    C85     1.409   .     A
C84    H116    1.080   .     S
C84    C86     1.409   .     A
C85    C530    1.518   1_554 S
C86    C529    1.518   .     S
C87    C89     1.401   .     S
C87    O123    1.277   .     A
C87    O125    1.279   .     A
C88    C90     1.401   .     S
C88    O124    1.277   .     A
C88    O126    1.279   .     A
C90    C163    1.329   .     S
C90    H178    1.087   .     S
C91    O129    1.385   .     S
C91    C101    1.404   .     A
C91    C93     1.392   .     A
C92    O134    1.382   .     S
C92    C102    1.404   .     A
C92    C94     1.388   .     A
C93    H105    1.082   .     S
C93    C95     1.399   .     A
C94    H106    1.084   .     S
C94    C96     1.400   .     A
C95    C97     1.396   .     A
C96    C98     1.397   .     A
C97    C99     1.379   .     A
C97    H107    1.084   .     S
C98    C100    1.380   .     A
C98    H108    1.084   .     S
C99    H109    1.084   .     S
C99    C101    1.399   .     A
C100   C102    1.398   .     A
C100   H110    1.084   .     S
C101   C324    1.443   1_545 S
C102   C323    1.443   .     S
H103   C163    1.088   .     S
N117   Zn128   2.008   .     S
N118   Zn127   2.008   .     S
O119   Zn127   1.993   .     S
O120   Zn128   1.993   .     S
O121   Zn128   1.990   .     S
O122   Zn127   1.990   .     S
O123   Zn127   1.970   .     S
O124   Zn128   1.970   .     S
O125   Zn128   1.980   .     S
O126   Zn127   1.980   .     S
O129   C130    1.411   .     S
C130   H133    1.109   .     S
C130   H132    1.111   .     S
C130   H131    1.114   .     S
O134   C135    1.409   .     S
C135   H138    1.113   .     S
C135   H136    1.109   .     S
C135   H137    1.113   .     S
O139   C140    1.411   .     S
C140   H142    1.114   .     S
C140   H141    1.109   .     S
C140   H143    1.111   .     S
O144   C145    1.412   .     S
C145   H146    1.110   .     S
C145   H148    1.110   .     S
C145   H147    1.115   .     S
C149   C169    1.437   .     S
C149   O193    1.288   .     A
C149   O195    1.287   .     A
C150   O196    1.287   .     A
C150   C170    1.438   .     S
C150   O194    1.287   .     A
C151   C153    1.407   .     A
C151   H185    1.081   .     S
C151   C159    1.412   .     A
C152   C160    1.411   .     A
C152   C154    1.406   .     A
C152   H186    1.081   .     S
C153   N191    1.362   .     A
C153   H187    1.082   .     S
C154   N192    1.362   .     A
C154   H188    1.082   .     S
C155   N191    1.367   .     A
C155   O213    1.382   .     S
C155   C157    1.414   .     A
C156   C158    1.419   .     A
C156   O218    1.386   .     S
C156   N192    1.366   .     A
C157   H189    1.081   .     S
C157   C159    1.409   .     A
C158   H190    1.080   .     S
C158   C160    1.409   .     A
C159   C604    1.518   1_554 S
C160   C603    1.518   .     S
C161   C163    1.401   .     S
C161   O197    1.277   .     A
C161   O199    1.279   .     A
C162   C164    1.401   .     S
C162   O198    1.277   .     A
C162   O200    1.279   .     A
C164   C15     1.329   1_655 S
C164   H30     1.087   1_655 S
C165   O203    1.385   .     S
C165   C175    1.404   .     A
C165   C167    1.392   .     A
C166   O208    1.382   .     S
C166   C176    1.404   .     A
C166   C168    1.388   .     A
C167   H179    1.082   .     S
C167   C169    1.399   .     A
C168   H180    1.084   .     S
C168   C170    1.400   .     A
C169   C171    1.396   .     A
C170   C172    1.397   .     A
C171   C173    1.379   .     A
C171   H181    1.084   .     S
C172   C174    1.380   .     A
C172   H182    1.084   .     S
C173   H183    1.084   .     S
C173   C175    1.399   .     A
C174   C176    1.398   .     A
C174   H184    1.084   .     S
C175   C398    1.443   1_545 S
C176   C397    1.443   .     S
H177   C15     1.088   1_655 S
N191   Zn202   2.008   .     S
N192   Zn201   2.008   .     S
O193   Zn201   1.993   .     S
O194   Zn202   1.993   .     S
O195   Zn202   1.990   .     S
O196   Zn201   1.990   .     S
O197   Zn201   1.970   .     S
O198   Zn202   1.970   .     S
O199   Zn202   1.980   .     S
O200   Zn201   1.980   .     S
O203   C204    1.411   .     S
C204   H207    1.109   .     S
C204   H206    1.111   .     S
C204   H205    1.114   .     S
O208   C209    1.409   .     S
C209   H212    1.113   .     S
C209   H210    1.109   .     S
C209   H211    1.113   .     S
O213   C214    1.411   .     S
C214   H216    1.114   .     S
C214   H215    1.109   .     S
C214   H217    1.111   .     S
O218   C219    1.412   .     S
C219   H220    1.110   .     S
C219   H222    1.110   .     S
C219   H221    1.115   .     S
C223   C243    1.437   .     S
C223   O267    1.288   .     A
C223   O269    1.287   .     A
C224   O270    1.287   .     A
C224   C244    1.438   .     S
C224   O268    1.287   .     A
C225   C227    1.407   .     A
C225   H259    1.081   .     S
C225   C233    1.412   .     A
C226   C234    1.411   .     A
C226   C228    1.406   .     A
C226   H260    1.081   .     S
C227   N265    1.362   .     A
C227   H261    1.082   .     S
C228   N266    1.362   .     A
C228   H262    1.082   .     S
C229   N265    1.367   .     A
C229   O287    1.382   .     S
C229   C231    1.414   .     A
C230   C232    1.419   .     A
C230   O292    1.386   .     S
C230   N266    1.366   .     A
C231   H263    1.081   .     S
C231   C233    1.409   .     A
C232   H264    1.080   .     S
C232   C234    1.409   .     A
C233   C678    1.518   1_554 S
C234   C677    1.518   .     S
C235   C237    1.401   .     S
C235   O271    1.277   .     A
C235   O273    1.279   .     A
C236   C238    1.401   .     S
C236   O272    1.277   .     A
C236   O274    1.279   .     A
C237   C386    1.329   1_455 S
C237   H399    1.088   1_455 S
C238   C311    1.329   .     S
C238   H326    1.087   .     S
C239   O277    1.385   .     S
C239   C249    1.404   .     A
C239   C241    1.392   .     A
C240   O282    1.382   .     S
C240   C250    1.404   .     A
C240   C242    1.388   .     A
C241   H253    1.082   .     S
C241   C243    1.399   .     A
C242   H254    1.084   .     S
C242   C244    1.400   .     A
C243   C245    1.396   .     A
C244   C246    1.397   .     A
C245   C247    1.379   .     A
C245   H255    1.084   .     S
C246   C248    1.380   .     A
C246   H256    1.084   .     S
C247   H257    1.084   .     S
C247   C249    1.399   .     A
C248   C250    1.398   .     A
C248   H258    1.084   .     S
C250   C27     1.443   1_565 S
H251   C311    1.088   .     S
H252   C386    1.087   1_455 S
N265   Zn276   2.008   .     S
N266   Zn275   2.008   .     S
O267   Zn275   1.993   .     S
O268   Zn276   1.993   .     S
O269   Zn276   1.990   .     S
O270   Zn275   1.990   .     S
O271   Zn275   1.970   .     S
O272   Zn276   1.970   .     S
O273   Zn276   1.980   .     S
O274   Zn275   1.980   .     S
O277   C278    1.411   .     S
C278   H281    1.109   .     S
C278   H280    1.111   .     S
C278   H279    1.114   .     S
O282   C283    1.409   .     S
C283   H286    1.113   .     S
C283   H284    1.109   .     S
C283   H285    1.113   .     S
O287   C288    1.411   .     S
C288   H290    1.114   .     S
C288   H289    1.109   .     S
C288   H291    1.111   .     S
O292   C293    1.412   .     S
C293   H294    1.110   .     S
C293   H296    1.110   .     S
C293   H295    1.115   .     S
C297   C317    1.437   .     S
C297   O341    1.288   .     A
C297   O343    1.287   .     A
C298   O344    1.287   .     A
C298   C318    1.438   .     S
C298   O342    1.287   .     A
C299   C301    1.407   .     A
C299   H333    1.081   .     S
C299   C307    1.412   .     A
C300   C308    1.411   .     A
C300   C302    1.406   .     A
C300   H334    1.081   .     S
C301   N339    1.362   .     A
C301   H335    1.082   .     S
C302   N340    1.362   .     A
C302   H336    1.082   .     S
C303   N339    1.367   .     A
C303   O361    1.382   .     S
C303   C305    1.414   .     A
C304   C306    1.419   .     A
C304   O366    1.386   .     S
C304   N340    1.366   .     A
C305   H337    1.081   .     S
C305   C307    1.409   .     A
C306   H338    1.080   .     S
C306   C308    1.409   .     A
C307   C752    1.518   1_554 S
C308   C751    1.518   .     S
C309   C311    1.401   .     S
C309   O345    1.277   .     A
C309   O347    1.279   .     A
C310   C312    1.401   .     S
C310   O346    1.277   .     A
C310   O348    1.279   .     A
C312   C385    1.329   .     S
C312   H400    1.087   .     S
C313   O351    1.385   .     S
C313   C323    1.404   .     A
C313   C315    1.392   .     A
C314   O356    1.382   .     S
C314   C324    1.404   .     A
C314   C316    1.388   .     A
C315   H327    1.082   .     S
C315   C317    1.399   .     A
C316   H328    1.084   .     S
C316   C318    1.400   .     A
C317   C319    1.396   .     A
C318   C320    1.397   .     A
C319   C321    1.379   .     A
C319   H329    1.084   .     S
C320   C322    1.380   .     A
C320   H330    1.084   .     S
C321   H331    1.084   .     S
C321   C323    1.399   .     A
C322   C324    1.398   .     A
C322   H332    1.084   .     S
C324   C101    1.443   1_565 S
H325   C385    1.088   .     S
N339   Zn350   2.008   .     S
N340   Zn349   2.008   .     S
O341   Zn349   1.993   .     S
O342   Zn350   1.993   .     S
O343   Zn350   1.990   .     S
O344   Zn349   1.990   .     S
O345   Zn349   1.970   .     S
O346   Zn350   1.970   .     S
O347   Zn350   1.980   .     S
O348   Zn349   1.980   .     S
O351   C352    1.411   .     S
C352   H355    1.109   .     S
C352   H354    1.111   .     S
C352   H353    1.114   .     S
O356   C357    1.409   .     S
C357   H360    1.113   .     S
C357   H358    1.109   .     S
C357   H359    1.113   .     S
O361   C362    1.411   .     S
C362   H364    1.114   .     S
C362   H363    1.109   .     S
C362   H365    1.111   .     S
O366   C367    1.412   .     S
C367   H368    1.110   .     S
C367   H370    1.110   .     S
C367   H369    1.115   .     S
C371   C391    1.437   .     S
C371   O415    1.288   .     A
C371   O417    1.287   .     A
C372   O418    1.287   .     A
C372   C392    1.438   .     S
C372   O416    1.287   .     A
C373   C375    1.407   .     A
C373   H407    1.081   .     S
C373   C381    1.412   .     A
C374   C382    1.411   .     A
C374   C376    1.406   .     A
C374   H408    1.081   .     S
C375   N413    1.362   .     A
C375   H409    1.082   .     S
C376   N414    1.362   .     A
C376   H410    1.082   .     S
C377   N413    1.367   .     A
C377   O435    1.382   .     S
C377   C379    1.414   .     A
C378   C380    1.419   .     A
C378   O440    1.386   .     S
C378   N414    1.366   .     A
C379   H411    1.081   .     S
C379   C381    1.409   .     A
C380   H412    1.080   .     S
C380   C382    1.409   .     A
C381   C826    1.518   1_554 S
C382   C825    1.518   .     S
C383   C385    1.401   .     S
C383   O419    1.277   .     A
C383   O421    1.279   .     A
C384   C386    1.401   .     S
C384   O420    1.277   .     A
C384   O422    1.279   .     A
C386   C237    1.329   1_655 S
C386   H252    1.087   1_655 S
C387   O425    1.385   .     S
C387   C397    1.404   .     A
C387   C389    1.392   .     A
C388   O430    1.382   .     S
C388   C398    1.404   .     A
C388   C390    1.388   .     A
C389   H401    1.082   .     S
C389   C391    1.399   .     A
C390   H402    1.084   .     S
C390   C392    1.400   .     A
C391   C393    1.396   .     A
C392   C394    1.397   .     A
C393   C395    1.379   .     A
C393   H403    1.084   .     S
C394   C396    1.380   .     A
C394   H404    1.084   .     S
C395   H405    1.084   .     S
C395   C397    1.399   .     A
C396   C398    1.398   .     A
C396   H406    1.084   .     S
C398   C175    1.443   1_565 S
H399   C237    1.088   1_655 S
N413   Zn424   2.008   .     S
N414   Zn423   2.008   .     S
O415   Zn423   1.993   .     S
O416   Zn424   1.993   .     S
O417   Zn424   1.990   .     S
O418   Zn423   1.990   .     S
O419   Zn423   1.970   .     S
O420   Zn424   1.970   .     S
O421   Zn424   1.980   .     S
O422   Zn423   1.980   .     S
O425   C426    1.411   .     S
C426   H429    1.109   .     S
C426   H428    1.111   .     S
C426   H427    1.114   .     S
O430   C431    1.409   .     S
C431   H434    1.113   .     S
C431   H432    1.109   .     S
C431   H433    1.113   .     S
O435   C436    1.411   .     S
C436   H438    1.114   .     S
C436   H437    1.109   .     S
C436   H439    1.111   .     S
O440   C441    1.412   .     S
C441   H442    1.110   .     S
C441   H444    1.110   .     S
C441   H443    1.115   .     S
C445   C465    1.437   .     S
C445   O489    1.288   .     A
C445   O491    1.287   .     A
C446   O492    1.287   .     A
C446   C466    1.438   .     S
C446   O490    1.287   .     A
C447   C449    1.407   .     A
C447   H481    1.081   .     S
C447   C455    1.412   .     A
C448   C456    1.411   .     A
C448   C450    1.406   .     A
C448   H482    1.081   .     S
C449   N487    1.362   .     A
C449   H483    1.082   .     S
C450   N488    1.362   .     A
C450   H484    1.082   .     S
C451   N487    1.367   .     A
C451   O509    1.382   .     S
C451   C453    1.414   .     A
C452   C454    1.419   .     A
C452   O514    1.386   .     S
C452   N488    1.366   .     A
C453   H485    1.081   .     S
C453   C455    1.409   .     A
C454   H486    1.080   .     S
C454   C456    1.409   .     A
C456   C11     1.518   1_556 S
C457   C459    1.401   .     S
C457   O493    1.277   .     A
C457   O495    1.279   .     A
C458   C460    1.401   .     S
C458   O494    1.277   .     A
C458   O496    1.279   .     A
C459   C608    1.329   1_455 S
C459   H621    1.088   1_455 S
C460   C533    1.329   .     S
C460   H548    1.087   .     S
C461   O499    1.385   .     S
C461   C471    1.404   .     A
C461   C463    1.392   .     A
C462   O504    1.382   .     S
C462   C472    1.404   .     A
C462   C464    1.388   .     A
C463   H475    1.082   .     S
C463   C465    1.399   .     A
C464   H476    1.084   .     S
C464   C466    1.400   .     A
C465   C467    1.396   .     A
C466   C468    1.397   .     A
C467   C469    1.379   .     A
C467   H477    1.084   .     S
C468   C470    1.380   .     A
C468   H478    1.084   .     S
C469   H479    1.084   .     S
C469   C471    1.399   .     A
C470   C472    1.398   .     A
C470   H480    1.084   .     S
C471   C694    1.443   1_545 S
C472   C693    1.443   .     S
H473   C533    1.088   .     S
H474   C608    1.087   1_455 S
N487   Zn498   2.008   .     S
N488   Zn497   2.008   .     S
O489   Zn497   1.993   .     S
O490   Zn498   1.993   .     S
O491   Zn498   1.990   .     S
O492   Zn497   1.990   .     S
O493   Zn497   1.970   .     S
O494   Zn498   1.970   .     S
O495   Zn498   1.980   .     S
O496   Zn497   1.980   .     S
O499   C500    1.411   .     S
C500   H503    1.109   .     S
C500   H502    1.111   .     S
C500   H501    1.114   .     S
O504   C505    1.409   .     S
C505   H508    1.113   .     S
C505   H506    1.109   .     S
C505   H507    1.113   .     S
O509   C510    1.411   .     S
C510   H512    1.114   .     S
C510   H511    1.109   .     S
C510   H513    1.111   .     S
O514   C515    1.412   .     S
C515   H516    1.110   .     S
C515   H518    1.110   .     S
C515   H517    1.115   .     S
C519   C539    1.437   .     S
C519   O563    1.288   .     A
C519   O565    1.287   .     A
C520   O566    1.287   .     A
C520   C540    1.438   .     S
C520   O564    1.287   .     A
C521   C523    1.407   .     A
C521   H555    1.081   .     S
C521   C529    1.412   .     A
C522   C530    1.411   .     A
C522   C524    1.406   .     A
C522   H556    1.081   .     S
C523   N561    1.362   .     A
C523   H557    1.082   .     S
C524   N562    1.362   .     A
C524   H558    1.082   .     S
C525   N561    1.367   .     A
C525   O583    1.382   .     S
C525   C527    1.414   .     A
C526   C528    1.419   .     A
C526   O588    1.386   .     S
C526   N562    1.366   .     A
C527   H559    1.081   .     S
C527   C529    1.409   .     A
C528   H560    1.080   .     S
C528   C530    1.409   .     A
C530   C85     1.518   1_556 S
C531   C533    1.401   .     S
C531   O567    1.277   .     A
C531   O569    1.279   .     A
C532   C534    1.401   .     S
C532   O568    1.277   .     A
C532   O570    1.279   .     A
C534   C607    1.329   .     S
C534   H622    1.087   .     S
C535   O573    1.385   .     S
C535   C545    1.404   .     A
C535   C537    1.392   .     A
C536   O578    1.382   .     S
C536   C546    1.404   .     A
C536   C538    1.388   .     A
C537   H549    1.082   .     S
C537   C539    1.399   .     A
C538   H550    1.084   .     S
C538   C540    1.400   .     A
C539   C541    1.396   .     A
C540   C542    1.397   .     A
C541   C543    1.379   .     A
C541   H551    1.084   .     S
C542   C544    1.380   .     A
C542   H552    1.084   .     S
C543   H553    1.084   .     S
C543   C545    1.399   .     A
C544   C546    1.398   .     A
C544   H554    1.084   .     S
C545   C768    1.443   1_545 S
C546   C767    1.443   .     S
H547   C607    1.088   .     S
N561   Zn572   2.008   .     S
N562   Zn571   2.008   .     S
O563   Zn571   1.993   .     S
O564   Zn572   1.993   .     S
O565   Zn572   1.990   .     S
O566   Zn571   1.990   .     S
O567   Zn571   1.970   .     S
O568   Zn572   1.970   .     S
O569   Zn572   1.980   .     S
O570   Zn571   1.980   .     S
O573   C574    1.411   .     S
C574   H577    1.109   .     S
C574   H576    1.111   .     S
C574   H575    1.114   .     S
O578   C579    1.409   .     S
C579   H582    1.113   .     S
C579   H580    1.109   .     S
C579   H581    1.113   .     S
O583   C584    1.411   .     S
C584   H586    1.114   .     S
C584   H585    1.109   .     S
C584   H587    1.111   .     S
O588   C589    1.412   .     S
C589   H590    1.110   .     S
C589   H592    1.110   .     S
C589   H591    1.115   .     S
C593   C613    1.437   .     S
C593   O637    1.288   .     A
C593   O639    1.287   .     A
C594   O640    1.287   .     A
C594   C614    1.438   .     S
C594   O638    1.287   .     A
C595   C597    1.407   .     A
C595   H629    1.081   .     S
C595   C603    1.412   .     A
C596   C604    1.411   .     A
C596   C598    1.406   .     A
C596   H630    1.081   .     S
C597   N635    1.362   .     A
C597   H631    1.082   .     S
C598   N636    1.362   .     A
C598   H632    1.082   .     S
C599   N635    1.367   .     A
C599   O657    1.382   .     S
C599   C601    1.414   .     A
C600   C602    1.419   .     A
C600   O662    1.386   .     S
C600   N636    1.366   .     A
C601   H633    1.081   .     S
C601   C603    1.409   .     A
C602   H634    1.080   .     S
C602   C604    1.409   .     A
C604   C159    1.518   1_556 S
C605   C607    1.401   .     S
C605   O641    1.277   .     A
C605   O643    1.279   .     A
C606   C608    1.401   .     S
C606   O642    1.277   .     A
C606   O644    1.279   .     A
C608   C459    1.329   1_655 S
C608   H474    1.087   1_655 S
C609   O647    1.385   .     S
C609   C619    1.404   .     A
C609   C611    1.392   .     A
C610   O652    1.382   .     S
C610   C620    1.404   .     A
C610   C612    1.388   .     A
C611   H623    1.082   .     S
C611   C613    1.399   .     A
C612   H624    1.084   .     S
C612   C614    1.400   .     A
C613   C615    1.396   .     A
C614   C616    1.397   .     A
C615   C617    1.379   .     A
C615   H625    1.084   .     S
C616   C618    1.380   .     A
C616   H626    1.084   .     S
C617   H627    1.084   .     S
C617   C619    1.399   .     A
C618   C620    1.398   .     A
C618   H628    1.084   .     S
C619   C842    1.443   1_545 S
C620   C841    1.443   .     S
H621   C459    1.088   1_655 S
N635   Zn646   2.008   .     S
N636   Zn645   2.008   .     S
O637   Zn645   1.993   .     S
O638   Zn646   1.993   .     S
O639   Zn646   1.990   .     S
O640   Zn645   1.990   .     S
O641   Zn645   1.970   .     S
O642   Zn646   1.970   .     S
O643   Zn646   1.980   .     S
O644   Zn645   1.980   .     S
O647   C648    1.411   .     S
C648   H651    1.109   .     S
C648   H650    1.111   .     S
C648   H649    1.114   .     S
O652   C653    1.409   .     S
C653   H656    1.113   .     S
C653   H654    1.109   .     S
C653   H655    1.113   .     S
O657   C658    1.411   .     S
C658   H660    1.114   .     S
C658   H659    1.109   .     S
C658   H661    1.111   .     S
O662   C663    1.412   .     S
C663   H664    1.110   .     S
C663   H666    1.110   .     S
C663   H665    1.115   .     S
C667   C687    1.437   .     S
C667   O711    1.288   .     A
C667   O713    1.287   .     A
C668   O714    1.287   .     A
C668   C688    1.438   .     S
C668   O712    1.287   .     A
C669   C671    1.407   .     A
C669   H703    1.081   .     S
C669   C677    1.412   .     A
C670   C678    1.411   .     A
C670   C672    1.406   .     A
C670   H704    1.081   .     S
C671   N709    1.362   .     A
C671   H705    1.082   .     S
C672   N710    1.362   .     A
C672   H706    1.082   .     S
C673   N709    1.367   .     A
C673   O731    1.382   .     S
C673   C675    1.414   .     A
C674   C676    1.419   .     A
C674   O736    1.386   .     S
C674   N710    1.366   .     A
C675   H707    1.081   .     S
C675   C677    1.409   .     A
C676   H708    1.080   .     S
C676   C678    1.409   .     A
C678   C233    1.518   1_556 S
C679   C681    1.401   .     S
C679   O715    1.277   .     A
C679   O717    1.279   .     A
C680   C682    1.401   .     S
C680   O716    1.277   .     A
C680   O718    1.279   .     A
C681   C830    1.329   1_455 S
C681   H843    1.088   1_455 S
C682   C755    1.329   .     S
C682   H770    1.087   .     S
C683   O721    1.385   .     S
C683   C693    1.404   .     A
C683   C685    1.392   .     A
C684   O726    1.382   .     S
C684   C694    1.404   .     A
C684   C686    1.388   .     A
C685   H697    1.082   .     S
C685   C687    1.399   .     A
C686   H698    1.084   .     S
C686   C688    1.400   .     A
C687   C689    1.396   .     A
C688   C690    1.397   .     A
C689   C691    1.379   .     A
C689   H699    1.084   .     S
C690   C692    1.380   .     A
C690   H700    1.084   .     S
C691   H701    1.084   .     S
C691   C693    1.399   .     A
C692   C694    1.398   .     A
C692   H702    1.084   .     S
C694   C471    1.443   1_565 S
H695   C755    1.088   .     S
H696   C830    1.087   1_455 S
N709   Zn720   2.008   .     S
N710   Zn719   2.008   .     S
O711   Zn719   1.993   .     S
O712   Zn720   1.993   .     S
O713   Zn720   1.990   .     S
O714   Zn719   1.990   .     S
O715   Zn719   1.970   .     S
O716   Zn720   1.970   .     S
O717   Zn720   1.980   .     S
O718   Zn719   1.980   .     S
O721   C722    1.411   .     S
C722   H725    1.109   .     S
C722   H724    1.111   .     S
C722   H723    1.114   .     S
O726   C727    1.409   .     S
C727   H730    1.113   .     S
C727   H728    1.109   .     S
C727   H729    1.113   .     S
O731   C732    1.411   .     S
C732   H734    1.114   .     S
C732   H733    1.109   .     S
C732   H735    1.111   .     S
O736   C737    1.412   .     S
C737   H738    1.110   .     S
C737   H740    1.110   .     S
C737   H739    1.115   .     S
C741   C761    1.437   .     S
C741   O785    1.288   .     A
C741   O787    1.287   .     A
C742   O788    1.287   .     A
C742   C762    1.438   .     S
C742   O786    1.287   .     A
C743   C745    1.407   .     A
C743   H777    1.081   .     S
C743   C751    1.412   .     A
C744   C752    1.411   .     A
C744   C746    1.406   .     A
C744   H778    1.081   .     S
C745   N783    1.362   .     A
C745   H779    1.082   .     S
C746   N784    1.362   .     A
C746   H780    1.082   .     S
C747   N783    1.367   .     A
C747   O805    1.382   .     S
C747   C749    1.414   .     A
C748   C750    1.419   .     A
C748   O810    1.386   .     S
C748   N784    1.366   .     A
C749   H781    1.081   .     S
C749   C751    1.409   .     A
C750   H782    1.080   .     S
C750   C752    1.409   .     A
C752   C307    1.518   1_556 S
C753   C755    1.401   .     S
C753   O789    1.277   .     A
C753   O791    1.279   .     A
C754   C756    1.401   .     S
C754   O790    1.277   .     A
C754   O792    1.279   .     A
C756   C829    1.329   .     S
C756   H844    1.087   .     S
C757   O795    1.385   .     S
C757   C767    1.404   .     A
C757   C759    1.392   .     A
C758   O800    1.382   .     S
C758   C768    1.404   .     A
C758   C760    1.388   .     A
C759   H771    1.082   .     S
C759   C761    1.399   .     A
C760   H772    1.084   .     S
C760   C762    1.400   .     A
C761   C763    1.396   .     A
C762   C764    1.397   .     A
C763   C765    1.379   .     A
C763   H773    1.084   .     S
C764   C766    1.380   .     A
C764   H774    1.084   .     S
C765   H775    1.084   .     S
C765   C767    1.399   .     A
C766   C768    1.398   .     A
C766   H776    1.084   .     S
C768   C545    1.443   1_565 S
H769   C829    1.088   .     S
N783   Zn794   2.008   .     S
N784   Zn793   2.008   .     S
O785   Zn793   1.993   .     S
O786   Zn794   1.993   .     S
O787   Zn794   1.990   .     S
O788   Zn793   1.990   .     S
O789   Zn793   1.970   .     S
O790   Zn794   1.970   .     S
O791   Zn794   1.980   .     S
O792   Zn793   1.980   .     S
O795   C796    1.411   .     S
C796   H799    1.109   .     S
C796   H798    1.111   .     S
C796   H797    1.114   .     S
O800   C801    1.409   .     S
C801   H804    1.113   .     S
C801   H802    1.109   .     S
C801   H803    1.113   .     S
O805   C806    1.411   .     S
C806   H808    1.114   .     S
C806   H807    1.109   .     S
C806   H809    1.111   .     S
O810   C811    1.412   .     S
C811   H812    1.110   .     S
C811   H814    1.110   .     S
C811   H813    1.115   .     S
C815   C835    1.437   .     S
C815   O859    1.288   .     A
C815   O861    1.287   .     A
C816   O862    1.287   .     A
C816   C836    1.438   .     S
C816   O860    1.287   .     A
C817   C819    1.407   .     A
C817   H851    1.081   .     S
C817   C825    1.412   .     A
C818   C826    1.411   .     A
C818   C820    1.406   .     A
C818   H852    1.081   .     S
C819   N857    1.362   .     A
C819   H853    1.082   .     S
C820   N858    1.362   .     A
C820   H854    1.082   .     S
C821   N857    1.367   .     A
C821   O879    1.382   .     S
C821   C823    1.414   .     A
C822   C824    1.419   .     A
C822   O884    1.386   .     S
C822   N858    1.366   .     A
C823   H855    1.081   .     S
C823   C825    1.409   .     A
C824   H856    1.080   .     S
C824   C826    1.409   .     A
C826   C381    1.518   1_556 S
C827   C829    1.401   .     S
C827   O863    1.277   .     A
C827   O865    1.279   .     A
C828   C830    1.401   .     S
C828   O864    1.277   .     A
C828   O866    1.279   .     A
C830   C681    1.329   1_655 S
C830   H696    1.087   1_655 S
C831   O869    1.385   .     S
C831   C841    1.404   .     A
C831   C833    1.392   .     A
C832   O874    1.382   .     S
C832   C842    1.404   .     A
C832   C834    1.388   .     A
C833   H845    1.082   .     S
C833   C835    1.399   .     A
C834   H846    1.084   .     S
C834   C836    1.400   .     A
C835   C837    1.396   .     A
C836   C838    1.397   .     A
C837   C839    1.379   .     A
C837   H847    1.084   .     S
C838   C840    1.380   .     A
C838   H848    1.084   .     S
C839   H849    1.084   .     S
C839   C841    1.399   .     A
C840   C842    1.398   .     A
C840   H850    1.084   .     S
C842   C619    1.443   1_565 S
H843   C681    1.088   1_655 S
N857   Zn868   2.008   .     S
N858   Zn867   2.008   .     S
O859   Zn867   1.993   .     S
O860   Zn868   1.993   .     S
O861   Zn868   1.990   .     S
O862   Zn867   1.990   .     S
O863   Zn867   1.970   .     S
O864   Zn868   1.970   .     S
O865   Zn868   1.980   .     S
O866   Zn867   1.980   .     S
O869   C870    1.411   .     S
C870   H873    1.109   .     S
C870   H872    1.111   .     S
C870   H871    1.114   .     S
O874   C875    1.409   .     S
C875   H878    1.113   .     S
C875   H876    1.109   .     S
C875   H877    1.113   .     S
O879   C880    1.411   .     S
C880   H882    1.114   .     S
C880   H881    1.109   .     S
C880   H883    1.111   .     S
O884   C885    1.412   .     S
C885   H886    1.110   .     S
C885   H888    1.110   .     S
C885   H887    1.115   .     S
