data_str_m1_o10_o18_pcu_sym.111
_audit_creation_date              2020-01-03
_audit_creation_method            'Materials Studio'
_symmetry_space_group_name_H-M    'P1'
_symmetry_Int_Tables_number       1
_symmetry_cell_setting            triclinic
loop_
_symmetry_equiv_pos_as_xyz
  x,y,z
_cell_length_a                    32.7519
_cell_length_b                    32.4731
_cell_length_c                    35.7412
_cell_angle_alpha                 97.9772
_cell_angle_beta                  73.2358
_cell_angle_gamma                 98.3892
loop_
_atom_site_label
_atom_site_type_symbol
_atom_site_fract_x
_atom_site_fract_y
_atom_site_fract_z
_atom_site_U_iso_or_equiv
_atom_site_adp_type
_atom_site_occupancy
C1     C     0.05299   0.16047   0.25803   0.00000  Uiso   1.00
C2     C     0.20042   0.13167   0.45974   0.00000  Uiso   1.00
C3     C     0.22456   0.11612   0.47955   0.00000  Uiso   1.00
C4     C     0.28087   0.17337   0.24154   0.00000  Uiso   1.00
C5     C     0.21501   0.12298   0.02030   0.00000  Uiso   1.00
C6     C     0.17835   0.14307   0.04200   0.00000  Uiso   1.00
C7     C     0.24171   0.10970   0.03961   0.00000  Uiso   1.00
C8     C     0.23301   0.11692   0.08026   0.00000  Uiso   1.00
C9     C     0.16999   0.14948   0.08317   0.00000  Uiso   1.00
C10    C     0.32633   0.17540   0.23910   0.00000  Uiso   1.00
C11    C     0.00761   0.15650   0.26336   0.00000  Uiso   1.00
C12    C     0.09139   0.20149   0.41980   0.00000  Uiso   1.00
C13    C     0.18086   0.32218   0.23822   0.00000  Uiso   1.00
C14    C     0.15175   0.01210   0.26220   0.00000  Uiso   1.00
C15    C     0.15597   0.05615   0.25894   0.00000  Uiso   1.00
C16    C     0.17685   0.27763   0.24139   0.00000  Uiso   1.00
C17    C     0.18826   0.14520   0.14418   0.00000  Uiso   1.00
C18    C     0.14559   0.18774   0.35606   0.00000  Uiso   1.00
C19    C     0.13291   0.19216   0.39926   0.00000  Uiso   1.00
C20    C     0.19715   0.13668   0.10187   0.00000  Uiso   1.00
C21    C     0.07700   0.20038   0.46027   0.00000  Uiso   1.00
C22    C     0.31384   0.13088   0.29593   0.00000  Uiso   1.00
C23    C     0.16050   0.18275   0.41986   0.00000  Uiso   1.00
C24    C     0.20643   0.18906   0.40178   0.00000  Uiso   1.00
C25    C     0.14374   0.17461   0.45975   0.00000  Uiso   1.00
C26    C     0.10260   0.18668   0.48035   0.00000  Uiso   1.00
C27    C     0.16634   0.15538   0.48002   0.00000  Uiso   1.00
C28    C     0.15232   0.15717   0.02169   0.00000  Uiso   1.00
C29    C     0.11229   0.17181   0.04140   0.00000  Uiso   1.00
C30    C     0.08736   0.18500   0.02082   0.00000  Uiso   1.00
H31    H     0.05612   0.19452   0.03682   0.00000  Uiso   1.00
H32    H     0.06988   0.20932   0.40450   0.00000  Uiso   1.00
H33    H     0.09824   0.17142   0.07259   0.00000  Uiso   1.00
H34    H     0.20794   0.12338   0.42839   0.00000  Uiso   1.00
H35    H     0.00084   0.11903   0.31127   0.00000  Uiso   1.00
H36    H     0.29158   0.15042   0.31829   0.00000  Uiso   1.00
H37    H     0.29586   0.10314   0.28371   0.00000  Uiso   1.00
H38    H     0.26963   0.09425   0.02319   0.00000  Uiso   1.00
H39    H     0.01566   0.19300   0.21660   0.00000  Uiso   1.00
H40    H     0.20773   0.00285   0.21620   0.00000  Uiso   1.00
H41    H     0.12449   0.33222   0.28429   0.00000  Uiso   1.00
H42    H     0.14382   0.16600   0.10145   0.00000  Uiso   1.00
H43    H     0.25414   0.10708   0.09489   0.00000  Uiso   1.00
H44    H     0.25117   0.09898   0.46280   0.00000  Uiso   1.00
H45    H     0.04516   0.20876   0.47569   0.00000  Uiso   1.00
N46    N     0.24303   0.19433   0.38737   0.00000  Uiso   1.00
O47    O     0.16667   0.16667   0.25000   0.00000  Uiso   1.00
O48    O     0.15693   0.12393   0.16625   0.00000  Uiso   1.00
O49    O     0.12687   0.20646   0.33749   0.00000  Uiso   1.00
O50    O     0.21088   0.17493   0.15877   0.00000  Uiso   1.00
O51    O     0.17198   0.16135   0.33749   0.00000  Uiso   1.00
O52    O     0.17849   0.08101   0.27820   0.00000  Uiso   1.00
O53    O     0.14581   0.26136   0.26767   0.00000  Uiso   1.00
O54    O     0.07452   0.13251   0.23607   0.00000  Uiso   1.00
O55    O     0.26785   0.19179   0.21806   0.00000  Uiso   1.00
O56    O     0.06990   0.18960   0.27820   0.00000  Uiso   1.00
O57    O     0.25440   0.15277   0.26768   0.00000  Uiso   1.00
O58    O     0.13800   0.06903   0.23607   0.00000  Uiso   1.00
O59    O     0.20437   0.25527   0.21806   0.00000  Uiso   1.00
Zn60   Zn    0.19244   0.14090   0.28278   0.00000  Uiso   1.00
Zn61   Zn    0.13459   0.12378   0.22258   0.00000  Uiso   1.00
Zn62   Zn    0.21166   0.19664   0.21188   0.00000  Uiso   1.00
Zn63   Zn    0.12798   0.20535   0.28277   0.00000  Uiso   1.00
C64    C     0.38633   0.16047   0.25803   0.00000  Uiso   1.00
C65    C     0.53375   0.13167   0.45974   0.00000  Uiso   1.00
C66    C     0.55790   0.11612   0.47955   0.00000  Uiso   1.00
C67    C     0.61421   0.17337   0.24154   0.00000  Uiso   1.00
C68    C     0.54834   0.12298   0.02030   0.00000  Uiso   1.00
C69    C     0.51168   0.14307   0.04200   0.00000  Uiso   1.00
C70    C     0.57504   0.10970   0.03961   0.00000  Uiso   1.00
C71    C     0.56634   0.11692   0.08026   0.00000  Uiso   1.00
C72    C     0.50332   0.14948   0.08317   0.00000  Uiso   1.00
C73    C     0.65967   0.17540   0.23910   0.00000  Uiso   1.00
C74    C     0.34094   0.15650   0.26336   0.00000  Uiso   1.00
C75    C     0.42473   0.20149   0.41980   0.00000  Uiso   1.00
C76    C     0.51420   0.32218   0.23822   0.00000  Uiso   1.00
C77    C     0.48508   0.01210   0.26220   0.00000  Uiso   1.00
C78    C     0.48930   0.05615   0.25894   0.00000  Uiso   1.00
C79    C     0.51019   0.27763   0.24139   0.00000  Uiso   1.00
C80    C     0.52159   0.14520   0.14418   0.00000  Uiso   1.00
C81    C     0.47893   0.18774   0.35606   0.00000  Uiso   1.00
C82    C     0.46624   0.19216   0.39926   0.00000  Uiso   1.00
C83    C     0.53049   0.13668   0.10187   0.00000  Uiso   1.00
C84    C     0.41033   0.20038   0.46027   0.00000  Uiso   1.00
C85    C     0.64718   0.13088   0.29593   0.00000  Uiso   1.00
C86    C     0.49383   0.18275   0.41986   0.00000  Uiso   1.00
C87    C     0.53976   0.18906   0.40178   0.00000  Uiso   1.00
C88    C     0.47708   0.17461   0.45975   0.00000  Uiso   1.00
C89    C     0.43594   0.18668   0.48035   0.00000  Uiso   1.00
C90    C     0.49967   0.15538   0.48002   0.00000  Uiso   1.00
C91    C     0.48565   0.15717   0.02169   0.00000  Uiso   1.00
C92    C     0.44562   0.17181   0.04140   0.00000  Uiso   1.00
C93    C     0.42070   0.18500   0.02082   0.00000  Uiso   1.00
H94    H     0.38945   0.19452   0.03682   0.00000  Uiso   1.00
H95    H     0.40321   0.20932   0.40450   0.00000  Uiso   1.00
H96    H     0.43157   0.17142   0.07259   0.00000  Uiso   1.00
H97    H     0.54127   0.12338   0.42839   0.00000  Uiso   1.00
H98    H     0.33417   0.11903   0.31127   0.00000  Uiso   1.00
H99    H     0.62491   0.15042   0.31829   0.00000  Uiso   1.00
H100   H     0.62919   0.10314   0.28371   0.00000  Uiso   1.00
H101   H     0.60296   0.09425   0.02319   0.00000  Uiso   1.00
H102   H     0.34899   0.19300   0.21660   0.00000  Uiso   1.00
H103   H     0.54106   0.00285   0.21620   0.00000  Uiso   1.00
H104   H     0.45782   0.33222   0.28429   0.00000  Uiso   1.00
H105   H     0.47716   0.16600   0.10145   0.00000  Uiso   1.00
H106   H     0.58747   0.10708   0.09489   0.00000  Uiso   1.00
H107   H     0.58450   0.09898   0.46280   0.00000  Uiso   1.00
H108   H     0.37850   0.20876   0.47569   0.00000  Uiso   1.00
N109   N     0.57636   0.19433   0.38737   0.00000  Uiso   1.00
O110   O     0.50000   0.16667   0.25000   0.00000  Uiso   1.00
O111   O     0.49027   0.12393   0.16625   0.00000  Uiso   1.00
O112   O     0.46020   0.20646   0.33749   0.00000  Uiso   1.00
O113   O     0.54421   0.17493   0.15877   0.00000  Uiso   1.00
O114   O     0.50532   0.16135   0.33749   0.00000  Uiso   1.00
O115   O     0.51182   0.08101   0.27820   0.00000  Uiso   1.00
O116   O     0.47914   0.26136   0.26767   0.00000  Uiso   1.00
O117   O     0.40785   0.13251   0.23607   0.00000  Uiso   1.00
O118   O     0.60119   0.19179   0.21806   0.00000  Uiso   1.00
O119   O     0.40323   0.18960   0.27820   0.00000  Uiso   1.00
O120   O     0.58773   0.15277   0.26768   0.00000  Uiso   1.00
O121   O     0.47133   0.06903   0.23607   0.00000  Uiso   1.00
O122   O     0.53771   0.25527   0.21806   0.00000  Uiso   1.00
Zn123  Zn    0.52577   0.14090   0.28278   0.00000  Uiso   1.00
Zn124  Zn    0.46792   0.12378   0.22258   0.00000  Uiso   1.00
Zn125  Zn    0.54500   0.19664   0.21188   0.00000  Uiso   1.00
Zn126  Zn    0.46131   0.20535   0.28277   0.00000  Uiso   1.00
C127   C     0.71966   0.16047   0.25803   0.00000  Uiso   1.00
C128   C     0.86709   0.13167   0.45974   0.00000  Uiso   1.00
C129   C     0.89123   0.11612   0.47955   0.00000  Uiso   1.00
C130   C     0.94754   0.17337   0.24154   0.00000  Uiso   1.00
C131   C     0.88167   0.12298   0.02030   0.00000  Uiso   1.00
C132   C     0.84502   0.14307   0.04200   0.00000  Uiso   1.00
C133   C     0.90837   0.10970   0.03961   0.00000  Uiso   1.00
C134   C     0.89968   0.11692   0.08026   0.00000  Uiso   1.00
C135   C     0.83666   0.14948   0.08317   0.00000  Uiso   1.00
C136   C     0.99300   0.17540   0.23910   0.00000  Uiso   1.00
C137   C     0.67428   0.15650   0.26336   0.00000  Uiso   1.00
C138   C     0.75806   0.20149   0.41980   0.00000  Uiso   1.00
C139   C     0.84753   0.32218   0.23822   0.00000  Uiso   1.00
C140   C     0.81842   0.01210   0.26220   0.00000  Uiso   1.00
C141   C     0.82264   0.05615   0.25894   0.00000  Uiso   1.00
C142   C     0.84352   0.27763   0.24139   0.00000  Uiso   1.00
C143   C     0.85493   0.14520   0.14418   0.00000  Uiso   1.00
C144   C     0.81226   0.18774   0.35606   0.00000  Uiso   1.00
C145   C     0.79958   0.19216   0.39926   0.00000  Uiso   1.00
C146   C     0.86382   0.13668   0.10187   0.00000  Uiso   1.00
C147   C     0.74367   0.20038   0.46027   0.00000  Uiso   1.00
C148   C     0.98051   0.13088   0.29593   0.00000  Uiso   1.00
C149   C     0.82717   0.18275   0.41986   0.00000  Uiso   1.00
C150   C     0.87310   0.18906   0.40178   0.00000  Uiso   1.00
C151   C     0.81041   0.17461   0.45975   0.00000  Uiso   1.00
C152   C     0.76927   0.18668   0.48035   0.00000  Uiso   1.00
C153   C     0.83300   0.15538   0.48002   0.00000  Uiso   1.00
C154   C     0.81899   0.15717   0.02169   0.00000  Uiso   1.00
C155   C     0.77895   0.17181   0.04140   0.00000  Uiso   1.00
C156   C     0.75403   0.18500   0.02082   0.00000  Uiso   1.00
H157   H     0.72278   0.19452   0.03682   0.00000  Uiso   1.00
H158   H     0.73655   0.20932   0.40450   0.00000  Uiso   1.00
H159   H     0.76490   0.17142   0.07259   0.00000  Uiso   1.00
H160   H     0.87460   0.12338   0.42839   0.00000  Uiso   1.00
H161   H     0.66750   0.11903   0.31127   0.00000  Uiso   1.00
H162   H     0.95824   0.15042   0.31829   0.00000  Uiso   1.00
H163   H     0.96253   0.10314   0.28371   0.00000  Uiso   1.00
H164   H     0.93630   0.09425   0.02319   0.00000  Uiso   1.00
H165   H     0.68233   0.19300   0.21660   0.00000  Uiso   1.00
H166   H     0.87440   0.00285   0.21620   0.00000  Uiso   1.00
H167   H     0.79116   0.33222   0.28429   0.00000  Uiso   1.00
H168   H     0.81049   0.16600   0.10145   0.00000  Uiso   1.00
H169   H     0.92080   0.10708   0.09489   0.00000  Uiso   1.00
H170   H     0.91783   0.09898   0.46280   0.00000  Uiso   1.00
H171   H     0.71183   0.20876   0.47569   0.00000  Uiso   1.00
N172   N     0.90969   0.19433   0.38737   0.00000  Uiso   1.00
O173   O     0.83333   0.16667   0.25000   0.00000  Uiso   1.00
O174   O     0.82360   0.12393   0.16625   0.00000  Uiso   1.00
O175   O     0.79354   0.20646   0.33749   0.00000  Uiso   1.00
O176   O     0.87755   0.17493   0.15877   0.00000  Uiso   1.00
O177   O     0.83865   0.16135   0.33749   0.00000  Uiso   1.00
O178   O     0.84515   0.08101   0.27820   0.00000  Uiso   1.00
O179   O     0.81247   0.26136   0.26767   0.00000  Uiso   1.00
O180   O     0.74119   0.13251   0.23607   0.00000  Uiso   1.00
O181   O     0.93452   0.19179   0.21806   0.00000  Uiso   1.00
O182   O     0.73656   0.18960   0.27820   0.00000  Uiso   1.00
O183   O     0.92106   0.15277   0.26768   0.00000  Uiso   1.00
O184   O     0.80467   0.06903   0.23607   0.00000  Uiso   1.00
O185   O     0.87104   0.25527   0.21806   0.00000  Uiso   1.00
Zn186  Zn    0.85910   0.14090   0.28278   0.00000  Uiso   1.00
Zn187  Zn    0.80125   0.12378   0.22258   0.00000  Uiso   1.00
Zn188  Zn    0.87833   0.19664   0.21188   0.00000  Uiso   1.00
Zn189  Zn    0.79465   0.20535   0.28277   0.00000  Uiso   1.00
C190   C     0.05299   0.49381   0.25803   0.00000  Uiso   1.00
C191   C     0.20042   0.46501   0.45974   0.00000  Uiso   1.00
C192   C     0.22456   0.44945   0.47955   0.00000  Uiso   1.00
C193   C     0.28087   0.50670   0.24154   0.00000  Uiso   1.00
C194   C     0.21501   0.45631   0.02030   0.00000  Uiso   1.00
C195   C     0.17835   0.47641   0.04200   0.00000  Uiso   1.00
C196   C     0.24171   0.44303   0.03961   0.00000  Uiso   1.00
C197   C     0.23301   0.45025   0.08026   0.00000  Uiso   1.00
C198   C     0.16999   0.48281   0.08317   0.00000  Uiso   1.00
C199   C     0.32633   0.50873   0.23910   0.00000  Uiso   1.00
C200   C     0.00761   0.48983   0.26336   0.00000  Uiso   1.00
C201   C     0.09139   0.53482   0.41980   0.00000  Uiso   1.00
C202   C     0.18086   0.65552   0.23822   0.00000  Uiso   1.00
C203   C     0.15175   0.34543   0.26220   0.00000  Uiso   1.00
C204   C     0.15597   0.38948   0.25894   0.00000  Uiso   1.00
C205   C     0.17685   0.61096   0.24139   0.00000  Uiso   1.00
C206   C     0.18826   0.47854   0.14418   0.00000  Uiso   1.00
C207   C     0.14559   0.52107   0.35606   0.00000  Uiso   1.00
C208   C     0.13291   0.52549   0.39926   0.00000  Uiso   1.00
C209   C     0.19715   0.47002   0.10187   0.00000  Uiso   1.00
C210   C     0.07700   0.53371   0.46027   0.00000  Uiso   1.00
C211   C     0.31384   0.46421   0.29593   0.00000  Uiso   1.00
C212   C     0.16050   0.51609   0.41986   0.00000  Uiso   1.00
C213   C     0.20643   0.52239   0.40178   0.00000  Uiso   1.00
C214   C     0.14374   0.50794   0.45975   0.00000  Uiso   1.00
C215   C     0.10260   0.52001   0.48035   0.00000  Uiso   1.00
C216   C     0.16634   0.48872   0.48002   0.00000  Uiso   1.00
C217   C     0.15232   0.49050   0.02169   0.00000  Uiso   1.00
C218   C     0.11229   0.50515   0.04140   0.00000  Uiso   1.00
C219   C     0.08736   0.51833   0.02082   0.00000  Uiso   1.00
H220   H     0.05612   0.52785   0.03682   0.00000  Uiso   1.00
H221   H     0.06988   0.54265   0.40450   0.00000  Uiso   1.00
H222   H     0.09824   0.50475   0.07259   0.00000  Uiso   1.00
H223   H     0.20794   0.45672   0.42839   0.00000  Uiso   1.00
H224   H     0.00084   0.45236   0.31127   0.00000  Uiso   1.00
H225   H     0.29158   0.48375   0.31829   0.00000  Uiso   1.00
H226   H     0.29586   0.43648   0.28371   0.00000  Uiso   1.00
H227   H     0.26963   0.42759   0.02319   0.00000  Uiso   1.00
H228   H     0.01566   0.52634   0.21660   0.00000  Uiso   1.00
H229   H     0.20773   0.33618   0.21620   0.00000  Uiso   1.00
H230   H     0.12449   0.66555   0.28429   0.00000  Uiso   1.00
H231   H     0.14382   0.49934   0.10145   0.00000  Uiso   1.00
H232   H     0.25414   0.44042   0.09489   0.00000  Uiso   1.00
H233   H     0.25117   0.43231   0.46280   0.00000  Uiso   1.00
H234   H     0.04516   0.54210   0.47569   0.00000  Uiso   1.00
N235   N     0.24303   0.52766   0.38737   0.00000  Uiso   1.00
O236   O     0.16667   0.50000   0.25000   0.00000  Uiso   1.00
O237   O     0.15693   0.45726   0.16625   0.00000  Uiso   1.00
O238   O     0.12687   0.53979   0.33749   0.00000  Uiso   1.00
O239   O     0.21088   0.50826   0.15877   0.00000  Uiso   1.00
O240   O     0.17198   0.49468   0.33749   0.00000  Uiso   1.00
O241   O     0.17849   0.41434   0.27820   0.00000  Uiso   1.00
O242   O     0.14581   0.59469   0.26767   0.00000  Uiso   1.00
O243   O     0.07452   0.46584   0.23607   0.00000  Uiso   1.00
O244   O     0.26785   0.52512   0.21806   0.00000  Uiso   1.00
O245   O     0.06990   0.52293   0.27820   0.00000  Uiso   1.00
O246   O     0.25440   0.48610   0.26768   0.00000  Uiso   1.00
O247   O     0.13800   0.40236   0.23607   0.00000  Uiso   1.00
O248   O     0.20437   0.58860   0.21806   0.00000  Uiso   1.00
Zn249  Zn    0.19244   0.47423   0.28278   0.00000  Uiso   1.00
Zn250  Zn    0.13459   0.45711   0.22258   0.00000  Uiso   1.00
Zn251  Zn    0.21166   0.52997   0.21188   0.00000  Uiso   1.00
Zn252  Zn    0.12798   0.53868   0.28277   0.00000  Uiso   1.00
C253   C     0.38633   0.49381   0.25803   0.00000  Uiso   1.00
C254   C     0.53375   0.46501   0.45974   0.00000  Uiso   1.00
C255   C     0.55790   0.44945   0.47955   0.00000  Uiso   1.00
C256   C     0.61421   0.50670   0.24154   0.00000  Uiso   1.00
C257   C     0.54834   0.45631   0.02030   0.00000  Uiso   1.00
C258   C     0.51168   0.47641   0.04200   0.00000  Uiso   1.00
C259   C     0.57504   0.44303   0.03961   0.00000  Uiso   1.00
C260   C     0.56634   0.45025   0.08026   0.00000  Uiso   1.00
C261   C     0.50332   0.48281   0.08317   0.00000  Uiso   1.00
C262   C     0.65967   0.50873   0.23910   0.00000  Uiso   1.00
C263   C     0.34094   0.48983   0.26336   0.00000  Uiso   1.00
C264   C     0.42473   0.53482   0.41980   0.00000  Uiso   1.00
C265   C     0.51420   0.65552   0.23822   0.00000  Uiso   1.00
C266   C     0.48508   0.34543   0.26220   0.00000  Uiso   1.00
C267   C     0.48930   0.38948   0.25894   0.00000  Uiso   1.00
C268   C     0.51019   0.61096   0.24139   0.00000  Uiso   1.00
C269   C     0.52159   0.47854   0.14418   0.00000  Uiso   1.00
C270   C     0.47893   0.52107   0.35606   0.00000  Uiso   1.00
C271   C     0.46624   0.52549   0.39926   0.00000  Uiso   1.00
C272   C     0.53049   0.47002   0.10187   0.00000  Uiso   1.00
C273   C     0.41033   0.53371   0.46027   0.00000  Uiso   1.00
C274   C     0.64718   0.46421   0.29593   0.00000  Uiso   1.00
C275   C     0.49383   0.51609   0.41986   0.00000  Uiso   1.00
C276   C     0.53976   0.52239   0.40178   0.00000  Uiso   1.00
C277   C     0.47708   0.50794   0.45975   0.00000  Uiso   1.00
C278   C     0.43594   0.52001   0.48035   0.00000  Uiso   1.00
C279   C     0.49967   0.48872   0.48002   0.00000  Uiso   1.00
C280   C     0.48565   0.49050   0.02169   0.00000  Uiso   1.00
C281   C     0.44562   0.50515   0.04140   0.00000  Uiso   1.00
C282   C     0.42070   0.51833   0.02082   0.00000  Uiso   1.00
H283   H     0.38945   0.52785   0.03682   0.00000  Uiso   1.00
H284   H     0.40321   0.54265   0.40450   0.00000  Uiso   1.00
H285   H     0.43157   0.50475   0.07259   0.00000  Uiso   1.00
H286   H     0.54127   0.45672   0.42839   0.00000  Uiso   1.00
H287   H     0.33417   0.45236   0.31127   0.00000  Uiso   1.00
H288   H     0.62491   0.48375   0.31829   0.00000  Uiso   1.00
H289   H     0.62919   0.43648   0.28371   0.00000  Uiso   1.00
H290   H     0.60296   0.42759   0.02319   0.00000  Uiso   1.00
H291   H     0.34899   0.52634   0.21660   0.00000  Uiso   1.00
H292   H     0.54106   0.33618   0.21620   0.00000  Uiso   1.00
H293   H     0.45782   0.66555   0.28429   0.00000  Uiso   1.00
H294   H     0.47716   0.49934   0.10145   0.00000  Uiso   1.00
H295   H     0.58747   0.44042   0.09489   0.00000  Uiso   1.00
H296   H     0.58450   0.43231   0.46280   0.00000  Uiso   1.00
H297   H     0.37850   0.54210   0.47569   0.00000  Uiso   1.00
N298   N     0.57636   0.52766   0.38737   0.00000  Uiso   1.00
O299   O     0.50000   0.50000   0.25000   0.00000  Uiso   1.00
O300   O     0.49027   0.45726   0.16625   0.00000  Uiso   1.00
O301   O     0.46020   0.53979   0.33749   0.00000  Uiso   1.00
O302   O     0.54421   0.50826   0.15877   0.00000  Uiso   1.00
O303   O     0.50532   0.49468   0.33749   0.00000  Uiso   1.00
O304   O     0.51182   0.41434   0.27820   0.00000  Uiso   1.00
O305   O     0.47914   0.59469   0.26767   0.00000  Uiso   1.00
O306   O     0.40785   0.46584   0.23607   0.00000  Uiso   1.00
O307   O     0.60119   0.52512   0.21806   0.00000  Uiso   1.00
O308   O     0.40323   0.52293   0.27820   0.00000  Uiso   1.00
O309   O     0.58773   0.48610   0.26768   0.00000  Uiso   1.00
O310   O     0.47133   0.40236   0.23607   0.00000  Uiso   1.00
O311   O     0.53771   0.58860   0.21806   0.00000  Uiso   1.00
Zn312  Zn    0.52577   0.47423   0.28278   0.00000  Uiso   1.00
Zn313  Zn    0.46792   0.45711   0.22258   0.00000  Uiso   1.00
Zn314  Zn    0.54500   0.52997   0.21188   0.00000  Uiso   1.00
Zn315  Zn    0.46131   0.53868   0.28277   0.00000  Uiso   1.00
C316   C     0.71966   0.49381   0.25803   0.00000  Uiso   1.00
C317   C     0.86709   0.46501   0.45974   0.00000  Uiso   1.00
C318   C     0.89123   0.44945   0.47955   0.00000  Uiso   1.00
C319   C     0.94754   0.50670   0.24154   0.00000  Uiso   1.00
C320   C     0.88167   0.45631   0.02030   0.00000  Uiso   1.00
C321   C     0.84502   0.47641   0.04200   0.00000  Uiso   1.00
C322   C     0.90837   0.44303   0.03961   0.00000  Uiso   1.00
C323   C     0.89968   0.45025   0.08026   0.00000  Uiso   1.00
C324   C     0.83666   0.48281   0.08317   0.00000  Uiso   1.00
C325   C     0.99300   0.50873   0.23910   0.00000  Uiso   1.00
C326   C     0.67428   0.48983   0.26336   0.00000  Uiso   1.00
C327   C     0.75806   0.53482   0.41980   0.00000  Uiso   1.00
C328   C     0.84753   0.65552   0.23822   0.00000  Uiso   1.00
C329   C     0.81842   0.34543   0.26220   0.00000  Uiso   1.00
C330   C     0.82264   0.38948   0.25894   0.00000  Uiso   1.00
C331   C     0.84352   0.61096   0.24139   0.00000  Uiso   1.00
C332   C     0.85493   0.47854   0.14418   0.00000  Uiso   1.00
C333   C     0.81226   0.52107   0.35606   0.00000  Uiso   1.00
C334   C     0.79958   0.52549   0.39926   0.00000  Uiso   1.00
C335   C     0.86382   0.47002   0.10187   0.00000  Uiso   1.00
C336   C     0.74367   0.53371   0.46027   0.00000  Uiso   1.00
C337   C     0.98051   0.46421   0.29593   0.00000  Uiso   1.00
C338   C     0.82717   0.51609   0.41986   0.00000  Uiso   1.00
C339   C     0.87310   0.52239   0.40178   0.00000  Uiso   1.00
C340   C     0.81041   0.50794   0.45975   0.00000  Uiso   1.00
C341   C     0.76927   0.52001   0.48035   0.00000  Uiso   1.00
C342   C     0.83300   0.48872   0.48002   0.00000  Uiso   1.00
C343   C     0.81899   0.49050   0.02169   0.00000  Uiso   1.00
C344   C     0.77895   0.50515   0.04140   0.00000  Uiso   1.00
C345   C     0.75403   0.51833   0.02082   0.00000  Uiso   1.00
H346   H     0.72278   0.52785   0.03682   0.00000  Uiso   1.00
H347   H     0.73655   0.54265   0.40450   0.00000  Uiso   1.00
H348   H     0.76490   0.50475   0.07259   0.00000  Uiso   1.00
H349   H     0.87460   0.45672   0.42839   0.00000  Uiso   1.00
H350   H     0.66750   0.45236   0.31127   0.00000  Uiso   1.00
H351   H     0.95824   0.48375   0.31829   0.00000  Uiso   1.00
H352   H     0.96253   0.43648   0.28371   0.00000  Uiso   1.00
H353   H     0.93630   0.42759   0.02319   0.00000  Uiso   1.00
H354   H     0.68233   0.52634   0.21660   0.00000  Uiso   1.00
H355   H     0.87440   0.33618   0.21620   0.00000  Uiso   1.00
H356   H     0.79116   0.66555   0.28429   0.00000  Uiso   1.00
H357   H     0.81049   0.49934   0.10145   0.00000  Uiso   1.00
H358   H     0.92080   0.44042   0.09489   0.00000  Uiso   1.00
H359   H     0.91783   0.43231   0.46280   0.00000  Uiso   1.00
H360   H     0.71183   0.54210   0.47569   0.00000  Uiso   1.00
N361   N     0.90969   0.52766   0.38737   0.00000  Uiso   1.00
O362   O     0.83333   0.50000   0.25000   0.00000  Uiso   1.00
O363   O     0.82360   0.45726   0.16625   0.00000  Uiso   1.00
O364   O     0.79354   0.53979   0.33749   0.00000  Uiso   1.00
O365   O     0.87755   0.50826   0.15877   0.00000  Uiso   1.00
O366   O     0.83865   0.49468   0.33749   0.00000  Uiso   1.00
O367   O     0.84515   0.41434   0.27820   0.00000  Uiso   1.00
O368   O     0.81247   0.59469   0.26767   0.00000  Uiso   1.00
O369   O     0.74119   0.46584   0.23607   0.00000  Uiso   1.00
O370   O     0.93452   0.52512   0.21806   0.00000  Uiso   1.00
O371   O     0.73656   0.52293   0.27820   0.00000  Uiso   1.00
O372   O     0.92106   0.48610   0.26768   0.00000  Uiso   1.00
O373   O     0.80467   0.40236   0.23607   0.00000  Uiso   1.00
O374   O     0.87104   0.58860   0.21806   0.00000  Uiso   1.00
Zn375  Zn    0.85910   0.47423   0.28278   0.00000  Uiso   1.00
Zn376  Zn    0.80125   0.45711   0.22258   0.00000  Uiso   1.00
Zn377  Zn    0.87833   0.52997   0.21188   0.00000  Uiso   1.00
Zn378  Zn    0.79465   0.53868   0.28277   0.00000  Uiso   1.00
C379   C     0.05299   0.82714   0.25803   0.00000  Uiso   1.00
C380   C     0.20042   0.79834   0.45974   0.00000  Uiso   1.00
C381   C     0.22456   0.78278   0.47955   0.00000  Uiso   1.00
C382   C     0.28087   0.84004   0.24154   0.00000  Uiso   1.00
C383   C     0.21501   0.78964   0.02030   0.00000  Uiso   1.00
C384   C     0.17835   0.80974   0.04200   0.00000  Uiso   1.00
C385   C     0.24171   0.77637   0.03961   0.00000  Uiso   1.00
C386   C     0.23301   0.78358   0.08026   0.00000  Uiso   1.00
C387   C     0.16999   0.81614   0.08317   0.00000  Uiso   1.00
C388   C     0.32633   0.84207   0.23910   0.00000  Uiso   1.00
C389   C     0.00761   0.82317   0.26336   0.00000  Uiso   1.00
C390   C     0.09139   0.86816   0.41980   0.00000  Uiso   1.00
C391   C     0.18086   0.98885   0.23822   0.00000  Uiso   1.00
C392   C     0.15175   0.67877   0.26220   0.00000  Uiso   1.00
C393   C     0.15597   0.72281   0.25894   0.00000  Uiso   1.00
C394   C     0.17685   0.94430   0.24139   0.00000  Uiso   1.00
C395   C     0.18826   0.81187   0.14418   0.00000  Uiso   1.00
C396   C     0.14559   0.85440   0.35606   0.00000  Uiso   1.00
C397   C     0.13291   0.85883   0.39926   0.00000  Uiso   1.00
C398   C     0.19715   0.80335   0.10187   0.00000  Uiso   1.00
C399   C     0.07700   0.86704   0.46027   0.00000  Uiso   1.00
C400   C     0.31384   0.79755   0.29593   0.00000  Uiso   1.00
C401   C     0.16050   0.84942   0.41986   0.00000  Uiso   1.00
C402   C     0.20643   0.85573   0.40178   0.00000  Uiso   1.00
C403   C     0.14374   0.84127   0.45975   0.00000  Uiso   1.00
C404   C     0.10260   0.85334   0.48035   0.00000  Uiso   1.00
C405   C     0.16634   0.82205   0.48002   0.00000  Uiso   1.00
C406   C     0.15232   0.82383   0.02169   0.00000  Uiso   1.00
C407   C     0.11229   0.83848   0.04140   0.00000  Uiso   1.00
C408   C     0.08736   0.85167   0.02082   0.00000  Uiso   1.00
H409   H     0.05612   0.86119   0.03682   0.00000  Uiso   1.00
H410   H     0.06988   0.87598   0.40450   0.00000  Uiso   1.00
H411   H     0.09824   0.83808   0.07259   0.00000  Uiso   1.00
H412   H     0.20794   0.79005   0.42839   0.00000  Uiso   1.00
H413   H     0.00084   0.78570   0.31127   0.00000  Uiso   1.00
H414   H     0.29158   0.81709   0.31829   0.00000  Uiso   1.00
H415   H     0.29586   0.76981   0.28371   0.00000  Uiso   1.00
H416   H     0.26963   0.76092   0.02319   0.00000  Uiso   1.00
H417   H     0.01566   0.85967   0.21660   0.00000  Uiso   1.00
H418   H     0.20773   0.66952   0.21620   0.00000  Uiso   1.00
H419   H     0.12449   0.99889   0.28429   0.00000  Uiso   1.00
H420   H     0.14382   0.83267   0.10145   0.00000  Uiso   1.00
H421   H     0.25414   0.77375   0.09489   0.00000  Uiso   1.00
H422   H     0.25117   0.76564   0.46280   0.00000  Uiso   1.00
H423   H     0.04516   0.87543   0.47569   0.00000  Uiso   1.00
N424   N     0.24303   0.86099   0.38737   0.00000  Uiso   1.00
O425   O     0.16667   0.83333   0.25000   0.00000  Uiso   1.00
O426   O     0.15693   0.79060   0.16625   0.00000  Uiso   1.00
O427   O     0.12687   0.87313   0.33749   0.00000  Uiso   1.00
O428   O     0.21088   0.84159   0.15877   0.00000  Uiso   1.00
O429   O     0.17198   0.82802   0.33749   0.00000  Uiso   1.00
O430   O     0.17849   0.74768   0.27820   0.00000  Uiso   1.00
O431   O     0.14581   0.92803   0.26767   0.00000  Uiso   1.00
O432   O     0.07452   0.79917   0.23607   0.00000  Uiso   1.00
O433   O     0.26785   0.85845   0.21806   0.00000  Uiso   1.00
O434   O     0.06990   0.85627   0.27820   0.00000  Uiso   1.00
O435   O     0.25440   0.81944   0.26768   0.00000  Uiso   1.00
O436   O     0.13800   0.73570   0.23607   0.00000  Uiso   1.00
O437   O     0.20437   0.92193   0.21806   0.00000  Uiso   1.00
Zn438  Zn    0.19244   0.80756   0.28278   0.00000  Uiso   1.00
Zn439  Zn    0.13459   0.79044   0.22258   0.00000  Uiso   1.00
Zn440  Zn    0.21166   0.86331   0.21188   0.00000  Uiso   1.00
Zn441  Zn    0.12798   0.87202   0.28277   0.00000  Uiso   1.00
C442   C     0.38633   0.82714   0.25803   0.00000  Uiso   1.00
C443   C     0.53375   0.79834   0.45974   0.00000  Uiso   1.00
C444   C     0.55790   0.78278   0.47955   0.00000  Uiso   1.00
C445   C     0.61421   0.84004   0.24154   0.00000  Uiso   1.00
C446   C     0.54834   0.78964   0.02030   0.00000  Uiso   1.00
C447   C     0.51168   0.80974   0.04200   0.00000  Uiso   1.00
C448   C     0.57504   0.77637   0.03961   0.00000  Uiso   1.00
C449   C     0.56634   0.78358   0.08026   0.00000  Uiso   1.00
C450   C     0.50332   0.81614   0.08317   0.00000  Uiso   1.00
C451   C     0.65967   0.84207   0.23910   0.00000  Uiso   1.00
C452   C     0.34094   0.82317   0.26336   0.00000  Uiso   1.00
C453   C     0.42473   0.86816   0.41980   0.00000  Uiso   1.00
C454   C     0.51420   0.98885   0.23822   0.00000  Uiso   1.00
C455   C     0.48508   0.67877   0.26220   0.00000  Uiso   1.00
C456   C     0.48930   0.72281   0.25894   0.00000  Uiso   1.00
C457   C     0.51019   0.94430   0.24139   0.00000  Uiso   1.00
C458   C     0.52159   0.81187   0.14418   0.00000  Uiso   1.00
C459   C     0.47893   0.85440   0.35606   0.00000  Uiso   1.00
C460   C     0.46624   0.85883   0.39926   0.00000  Uiso   1.00
C461   C     0.53049   0.80335   0.10187   0.00000  Uiso   1.00
C462   C     0.41033   0.86704   0.46027   0.00000  Uiso   1.00
C463   C     0.64718   0.79755   0.29593   0.00000  Uiso   1.00
C464   C     0.49383   0.84942   0.41986   0.00000  Uiso   1.00
C465   C     0.53976   0.85573   0.40178   0.00000  Uiso   1.00
C466   C     0.47708   0.84127   0.45975   0.00000  Uiso   1.00
C467   C     0.43594   0.85334   0.48035   0.00000  Uiso   1.00
C468   C     0.49967   0.82205   0.48002   0.00000  Uiso   1.00
C469   C     0.48565   0.82383   0.02169   0.00000  Uiso   1.00
C470   C     0.44562   0.83848   0.04140   0.00000  Uiso   1.00
C471   C     0.42070   0.85167   0.02082   0.00000  Uiso   1.00
H472   H     0.38945   0.86119   0.03682   0.00000  Uiso   1.00
H473   H     0.40321   0.87598   0.40450   0.00000  Uiso   1.00
H474   H     0.43157   0.83808   0.07259   0.00000  Uiso   1.00
H475   H     0.54127   0.79005   0.42839   0.00000  Uiso   1.00
H476   H     0.33417   0.78570   0.31127   0.00000  Uiso   1.00
H477   H     0.62491   0.81709   0.31829   0.00000  Uiso   1.00
H478   H     0.62919   0.76981   0.28371   0.00000  Uiso   1.00
H479   H     0.60296   0.76092   0.02319   0.00000  Uiso   1.00
H480   H     0.34899   0.85967   0.21660   0.00000  Uiso   1.00
H481   H     0.54106   0.66952   0.21620   0.00000  Uiso   1.00
H482   H     0.45782   0.99889   0.28429   0.00000  Uiso   1.00
H483   H     0.47716   0.83267   0.10145   0.00000  Uiso   1.00
H484   H     0.58747   0.77375   0.09489   0.00000  Uiso   1.00
H485   H     0.58450   0.76564   0.46280   0.00000  Uiso   1.00
H486   H     0.37850   0.87543   0.47569   0.00000  Uiso   1.00
N487   N     0.57636   0.86099   0.38737   0.00000  Uiso   1.00
O488   O     0.50000   0.83333   0.25000   0.00000  Uiso   1.00
O489   O     0.49027   0.79060   0.16625   0.00000  Uiso   1.00
O490   O     0.46020   0.87313   0.33749   0.00000  Uiso   1.00
O491   O     0.54421   0.84159   0.15877   0.00000  Uiso   1.00
O492   O     0.50532   0.82802   0.33749   0.00000  Uiso   1.00
O493   O     0.51182   0.74768   0.27820   0.00000  Uiso   1.00
O494   O     0.47914   0.92803   0.26767   0.00000  Uiso   1.00
O495   O     0.40785   0.79917   0.23607   0.00000  Uiso   1.00
O496   O     0.60119   0.85845   0.21806   0.00000  Uiso   1.00
O497   O     0.40323   0.85627   0.27820   0.00000  Uiso   1.00
O498   O     0.58773   0.81944   0.26768   0.00000  Uiso   1.00
O499   O     0.47133   0.73570   0.23607   0.00000  Uiso   1.00
O500   O     0.53771   0.92193   0.21806   0.00000  Uiso   1.00
Zn501  Zn    0.52577   0.80756   0.28278   0.00000  Uiso   1.00
Zn502  Zn    0.46792   0.79044   0.22258   0.00000  Uiso   1.00
Zn503  Zn    0.54500   0.86331   0.21188   0.00000  Uiso   1.00
Zn504  Zn    0.46131   0.87202   0.28277   0.00000  Uiso   1.00
C505   C     0.71966   0.82714   0.25803   0.00000  Uiso   1.00
C506   C     0.86709   0.79834   0.45974   0.00000  Uiso   1.00
C507   C     0.89123   0.78278   0.47955   0.00000  Uiso   1.00
C508   C     0.94754   0.84004   0.24154   0.00000  Uiso   1.00
C509   C     0.88167   0.78964   0.02030   0.00000  Uiso   1.00
C510   C     0.84502   0.80974   0.04200   0.00000  Uiso   1.00
C511   C     0.90837   0.77637   0.03961   0.00000  Uiso   1.00
C512   C     0.89968   0.78358   0.08026   0.00000  Uiso   1.00
C513   C     0.83666   0.81614   0.08317   0.00000  Uiso   1.00
C514   C     0.99300   0.84207   0.23910   0.00000  Uiso   1.00
C515   C     0.67428   0.82317   0.26336   0.00000  Uiso   1.00
C516   C     0.75806   0.86816   0.41980   0.00000  Uiso   1.00
C517   C     0.84753   0.98885   0.23822   0.00000  Uiso   1.00
C518   C     0.81842   0.67877   0.26220   0.00000  Uiso   1.00
C519   C     0.82264   0.72281   0.25894   0.00000  Uiso   1.00
C520   C     0.84352   0.94430   0.24139   0.00000  Uiso   1.00
C521   C     0.85493   0.81187   0.14418   0.00000  Uiso   1.00
C522   C     0.81226   0.85440   0.35606   0.00000  Uiso   1.00
C523   C     0.79958   0.85883   0.39926   0.00000  Uiso   1.00
C524   C     0.86382   0.80335   0.10187   0.00000  Uiso   1.00
C525   C     0.74367   0.86704   0.46027   0.00000  Uiso   1.00
C526   C     0.98051   0.79755   0.29593   0.00000  Uiso   1.00
C527   C     0.82717   0.84942   0.41986   0.00000  Uiso   1.00
C528   C     0.87310   0.85573   0.40178   0.00000  Uiso   1.00
C529   C     0.81041   0.84127   0.45975   0.00000  Uiso   1.00
C530   C     0.76927   0.85334   0.48035   0.00000  Uiso   1.00
C531   C     0.83300   0.82205   0.48002   0.00000  Uiso   1.00
C532   C     0.81899   0.82383   0.02169   0.00000  Uiso   1.00
C533   C     0.77895   0.83848   0.04140   0.00000  Uiso   1.00
C534   C     0.75403   0.85167   0.02082   0.00000  Uiso   1.00
H535   H     0.72278   0.86119   0.03682   0.00000  Uiso   1.00
H536   H     0.73655   0.87598   0.40450   0.00000  Uiso   1.00
H537   H     0.76490   0.83808   0.07259   0.00000  Uiso   1.00
H538   H     0.87460   0.79005   0.42839   0.00000  Uiso   1.00
H539   H     0.66750   0.78570   0.31127   0.00000  Uiso   1.00
H540   H     0.95824   0.81709   0.31829   0.00000  Uiso   1.00
H541   H     0.96253   0.76981   0.28371   0.00000  Uiso   1.00
H542   H     0.93630   0.76092   0.02319   0.00000  Uiso   1.00
H543   H     0.68233   0.85967   0.21660   0.00000  Uiso   1.00
H544   H     0.87440   0.66952   0.21620   0.00000  Uiso   1.00
H545   H     0.79116   0.99889   0.28429   0.00000  Uiso   1.00
H546   H     0.81049   0.83267   0.10145   0.00000  Uiso   1.00
H547   H     0.92080   0.77375   0.09489   0.00000  Uiso   1.00
H548   H     0.91783   0.76564   0.46280   0.00000  Uiso   1.00
H549   H     0.71183   0.87543   0.47569   0.00000  Uiso   1.00
N550   N     0.90969   0.86099   0.38737   0.00000  Uiso   1.00
O551   O     0.83333   0.83333   0.25000   0.00000  Uiso   1.00
O552   O     0.82360   0.79060   0.16625   0.00000  Uiso   1.00
O553   O     0.79354   0.87313   0.33749   0.00000  Uiso   1.00
O554   O     0.87755   0.84159   0.15877   0.00000  Uiso   1.00
O555   O     0.83865   0.82802   0.33749   0.00000  Uiso   1.00
O556   O     0.84515   0.74768   0.27820   0.00000  Uiso   1.00
O557   O     0.81247   0.92803   0.26767   0.00000  Uiso   1.00
O558   O     0.74119   0.79917   0.23607   0.00000  Uiso   1.00
O559   O     0.93452   0.85845   0.21806   0.00000  Uiso   1.00
O560   O     0.73656   0.85627   0.27820   0.00000  Uiso   1.00
O561   O     0.92106   0.81944   0.26768   0.00000  Uiso   1.00
O562   O     0.80467   0.73570   0.23607   0.00000  Uiso   1.00
O563   O     0.87104   0.92193   0.21806   0.00000  Uiso   1.00
Zn564  Zn    0.85910   0.80756   0.28278   0.00000  Uiso   1.00
Zn565  Zn    0.80125   0.79044   0.22258   0.00000  Uiso   1.00
Zn566  Zn    0.87833   0.86331   0.21188   0.00000  Uiso   1.00
Zn567  Zn    0.79465   0.87202   0.28277   0.00000  Uiso   1.00
C568   C     0.05299   0.16047   0.75803   0.00000  Uiso   1.00
C569   C     0.20042   0.13167   0.95974   0.00000  Uiso   1.00
C570   C     0.22456   0.11612   0.97955   0.00000  Uiso   1.00
C571   C     0.28087   0.17337   0.74154   0.00000  Uiso   1.00
C572   C     0.21501   0.12298   0.52030   0.00000  Uiso   1.00
C573   C     0.17835   0.14307   0.54200   0.00000  Uiso   1.00
C574   C     0.24171   0.10970   0.53961   0.00000  Uiso   1.00
C575   C     0.23301   0.11692   0.58026   0.00000  Uiso   1.00
C576   C     0.16999   0.14948   0.58317   0.00000  Uiso   1.00
C577   C     0.32633   0.17540   0.73910   0.00000  Uiso   1.00
C578   C     0.00761   0.15650   0.76336   0.00000  Uiso   1.00
C579   C     0.09139   0.20149   0.91980   0.00000  Uiso   1.00
C580   C     0.18086   0.32218   0.73822   0.00000  Uiso   1.00
C581   C     0.15175   0.01210   0.76220   0.00000  Uiso   1.00
C582   C     0.15597   0.05615   0.75894   0.00000  Uiso   1.00
C583   C     0.17685   0.27763   0.74139   0.00000  Uiso   1.00
C584   C     0.18826   0.14520   0.64418   0.00000  Uiso   1.00
C585   C     0.14559   0.18774   0.85606   0.00000  Uiso   1.00
C586   C     0.13291   0.19216   0.89926   0.00000  Uiso   1.00
C587   C     0.19715   0.13668   0.60187   0.00000  Uiso   1.00
C588   C     0.07700   0.20038   0.96027   0.00000  Uiso   1.00
C589   C     0.31384   0.13088   0.79593   0.00000  Uiso   1.00
C590   C     0.16050   0.18275   0.91986   0.00000  Uiso   1.00
C591   C     0.20643   0.18906   0.90178   0.00000  Uiso   1.00
C592   C     0.14374   0.17461   0.95975   0.00000  Uiso   1.00
C593   C     0.10260   0.18668   0.98035   0.00000  Uiso   1.00
C594   C     0.16634   0.15538   0.98002   0.00000  Uiso   1.00
C595   C     0.15232   0.15717   0.52169   0.00000  Uiso   1.00
C596   C     0.11229   0.17181   0.54140   0.00000  Uiso   1.00
C597   C     0.08736   0.18500   0.52082   0.00000  Uiso   1.00
H598   H     0.05612   0.19452   0.53682   0.00000  Uiso   1.00
H599   H     0.06988   0.20932   0.90450   0.00000  Uiso   1.00
H600   H     0.09824   0.17142   0.57259   0.00000  Uiso   1.00
H601   H     0.20794   0.12338   0.92839   0.00000  Uiso   1.00
H602   H     0.00084   0.11903   0.81127   0.00000  Uiso   1.00
H603   H     0.29158   0.15042   0.81829   0.00000  Uiso   1.00
H604   H     0.29586   0.10314   0.78371   0.00000  Uiso   1.00
H605   H     0.26963   0.09425   0.52319   0.00000  Uiso   1.00
H606   H     0.01566   0.19300   0.71660   0.00000  Uiso   1.00
H607   H     0.20773   0.00285   0.71620   0.00000  Uiso   1.00
H608   H     0.12449   0.33222   0.78429   0.00000  Uiso   1.00
H609   H     0.14382   0.16600   0.60145   0.00000  Uiso   1.00
H610   H     0.25414   0.10708   0.59489   0.00000  Uiso   1.00
H611   H     0.25117   0.09898   0.96280   0.00000  Uiso   1.00
H612   H     0.04516   0.20876   0.97569   0.00000  Uiso   1.00
N613   N     0.24303   0.19433   0.88737   0.00000  Uiso   1.00
O614   O     0.16667   0.16667   0.75000   0.00000  Uiso   1.00
O615   O     0.15693   0.12393   0.66625   0.00000  Uiso   1.00
O616   O     0.12687   0.20646   0.83749   0.00000  Uiso   1.00
O617   O     0.21088   0.17493   0.65877   0.00000  Uiso   1.00
O618   O     0.17198   0.16135   0.83749   0.00000  Uiso   1.00
O619   O     0.17849   0.08101   0.77820   0.00000  Uiso   1.00
O620   O     0.14581   0.26136   0.76767   0.00000  Uiso   1.00
O621   O     0.07452   0.13251   0.73607   0.00000  Uiso   1.00
O622   O     0.26785   0.19179   0.71806   0.00000  Uiso   1.00
O623   O     0.06990   0.18960   0.77820   0.00000  Uiso   1.00
O624   O     0.25440   0.15277   0.76768   0.00000  Uiso   1.00
O625   O     0.13800   0.06903   0.73607   0.00000  Uiso   1.00
O626   O     0.20437   0.25527   0.71806   0.00000  Uiso   1.00
Zn627  Zn    0.19244   0.14090   0.78278   0.00000  Uiso   1.00
Zn628  Zn    0.13459   0.12378   0.72258   0.00000  Uiso   1.00
Zn629  Zn    0.21166   0.19664   0.71188   0.00000  Uiso   1.00
Zn630  Zn    0.12798   0.20535   0.78277   0.00000  Uiso   1.00
C631   C     0.38633   0.16047   0.75803   0.00000  Uiso   1.00
C632   C     0.53375   0.13167   0.95974   0.00000  Uiso   1.00
C633   C     0.55790   0.11612   0.97955   0.00000  Uiso   1.00
C634   C     0.61421   0.17337   0.74154   0.00000  Uiso   1.00
C635   C     0.54834   0.12298   0.52030   0.00000  Uiso   1.00
C636   C     0.51168   0.14307   0.54200   0.00000  Uiso   1.00
C637   C     0.57504   0.10970   0.53961   0.00000  Uiso   1.00
C638   C     0.56634   0.11692   0.58026   0.00000  Uiso   1.00
C639   C     0.50332   0.14948   0.58317   0.00000  Uiso   1.00
C640   C     0.65967   0.17540   0.73910   0.00000  Uiso   1.00
C641   C     0.34094   0.15650   0.76336   0.00000  Uiso   1.00
C642   C     0.42473   0.20149   0.91980   0.00000  Uiso   1.00
C643   C     0.51420   0.32218   0.73822   0.00000  Uiso   1.00
C644   C     0.48508   0.01210   0.76220   0.00000  Uiso   1.00
C645   C     0.48930   0.05615   0.75894   0.00000  Uiso   1.00
C646   C     0.51019   0.27763   0.74139   0.00000  Uiso   1.00
C647   C     0.52159   0.14520   0.64418   0.00000  Uiso   1.00
C648   C     0.47893   0.18774   0.85606   0.00000  Uiso   1.00
C649   C     0.46624   0.19216   0.89926   0.00000  Uiso   1.00
C650   C     0.53049   0.13668   0.60187   0.00000  Uiso   1.00
C651   C     0.41033   0.20038   0.96027   0.00000  Uiso   1.00
C652   C     0.64718   0.13088   0.79593   0.00000  Uiso   1.00
C653   C     0.49383   0.18275   0.91986   0.00000  Uiso   1.00
C654   C     0.53976   0.18906   0.90178   0.00000  Uiso   1.00
C655   C     0.47708   0.17461   0.95975   0.00000  Uiso   1.00
C656   C     0.43594   0.18668   0.98035   0.00000  Uiso   1.00
C657   C     0.49967   0.15538   0.98002   0.00000  Uiso   1.00
C658   C     0.48565   0.15717   0.52169   0.00000  Uiso   1.00
C659   C     0.44562   0.17181   0.54140   0.00000  Uiso   1.00
C660   C     0.42070   0.18500   0.52082   0.00000  Uiso   1.00
H661   H     0.38945   0.19452   0.53682   0.00000  Uiso   1.00
H662   H     0.40321   0.20932   0.90450   0.00000  Uiso   1.00
H663   H     0.43157   0.17142   0.57259   0.00000  Uiso   1.00
H664   H     0.54127   0.12338   0.92839   0.00000  Uiso   1.00
H665   H     0.33417   0.11903   0.81127   0.00000  Uiso   1.00
H666   H     0.62491   0.15042   0.81829   0.00000  Uiso   1.00
H667   H     0.62919   0.10314   0.78371   0.00000  Uiso   1.00
H668   H     0.60296   0.09425   0.52319   0.00000  Uiso   1.00
H669   H     0.34899   0.19300   0.71660   0.00000  Uiso   1.00
H670   H     0.54106   0.00285   0.71620   0.00000  Uiso   1.00
H671   H     0.45782   0.33222   0.78429   0.00000  Uiso   1.00
H672   H     0.47716   0.16600   0.60145   0.00000  Uiso   1.00
H673   H     0.58747   0.10708   0.59489   0.00000  Uiso   1.00
H674   H     0.58450   0.09898   0.96280   0.00000  Uiso   1.00
H675   H     0.37850   0.20876   0.97569   0.00000  Uiso   1.00
N676   N     0.57636   0.19433   0.88737   0.00000  Uiso   1.00
O677   O     0.50000   0.16667   0.75000   0.00000  Uiso   1.00
O678   O     0.49027   0.12393   0.66625   0.00000  Uiso   1.00
O679   O     0.46020   0.20646   0.83749   0.00000  Uiso   1.00
O680   O     0.54421   0.17493   0.65877   0.00000  Uiso   1.00
O681   O     0.50532   0.16135   0.83749   0.00000  Uiso   1.00
O682   O     0.51182   0.08101   0.77820   0.00000  Uiso   1.00
O683   O     0.47914   0.26136   0.76767   0.00000  Uiso   1.00
O684   O     0.40785   0.13251   0.73607   0.00000  Uiso   1.00
O685   O     0.60119   0.19179   0.71806   0.00000  Uiso   1.00
O686   O     0.40323   0.18960   0.77820   0.00000  Uiso   1.00
O687   O     0.58773   0.15277   0.76768   0.00000  Uiso   1.00
O688   O     0.47133   0.06903   0.73607   0.00000  Uiso   1.00
O689   O     0.53771   0.25527   0.71806   0.00000  Uiso   1.00
Zn690  Zn    0.52577   0.14090   0.78278   0.00000  Uiso   1.00
Zn691  Zn    0.46792   0.12378   0.72258   0.00000  Uiso   1.00
Zn692  Zn    0.54500   0.19664   0.71188   0.00000  Uiso   1.00
Zn693  Zn    0.46131   0.20535   0.78277   0.00000  Uiso   1.00
C694   C     0.71966   0.16047   0.75803   0.00000  Uiso   1.00
C695   C     0.86709   0.13167   0.95974   0.00000  Uiso   1.00
C696   C     0.89123   0.11612   0.97955   0.00000  Uiso   1.00
C697   C     0.94754   0.17337   0.74154   0.00000  Uiso   1.00
C698   C     0.88167   0.12298   0.52030   0.00000  Uiso   1.00
C699   C     0.84502   0.14307   0.54200   0.00000  Uiso   1.00
C700   C     0.90837   0.10970   0.53961   0.00000  Uiso   1.00
C701   C     0.89968   0.11692   0.58026   0.00000  Uiso   1.00
C702   C     0.83666   0.14948   0.58317   0.00000  Uiso   1.00
C703   C     0.99300   0.17540   0.73910   0.00000  Uiso   1.00
C704   C     0.67428   0.15650   0.76336   0.00000  Uiso   1.00
C705   C     0.75806   0.20149   0.91980   0.00000  Uiso   1.00
C706   C     0.84753   0.32218   0.73822   0.00000  Uiso   1.00
C707   C     0.81842   0.01210   0.76220   0.00000  Uiso   1.00
C708   C     0.82264   0.05615   0.75894   0.00000  Uiso   1.00
C709   C     0.84352   0.27763   0.74139   0.00000  Uiso   1.00
C710   C     0.85493   0.14520   0.64418   0.00000  Uiso   1.00
C711   C     0.81226   0.18774   0.85606   0.00000  Uiso   1.00
C712   C     0.79958   0.19216   0.89926   0.00000  Uiso   1.00
C713   C     0.86382   0.13668   0.60187   0.00000  Uiso   1.00
C714   C     0.74367   0.20038   0.96027   0.00000  Uiso   1.00
C715   C     0.98051   0.13088   0.79593   0.00000  Uiso   1.00
C716   C     0.82717   0.18275   0.91986   0.00000  Uiso   1.00
C717   C     0.87310   0.18906   0.90178   0.00000  Uiso   1.00
C718   C     0.81041   0.17461   0.95975   0.00000  Uiso   1.00
C719   C     0.76927   0.18668   0.98035   0.00000  Uiso   1.00
C720   C     0.83300   0.15538   0.98002   0.00000  Uiso   1.00
C721   C     0.81899   0.15717   0.52169   0.00000  Uiso   1.00
C722   C     0.77895   0.17181   0.54140   0.00000  Uiso   1.00
C723   C     0.75403   0.18500   0.52082   0.00000  Uiso   1.00
H724   H     0.72278   0.19452   0.53682   0.00000  Uiso   1.00
H725   H     0.73655   0.20932   0.90450   0.00000  Uiso   1.00
H726   H     0.76490   0.17142   0.57259   0.00000  Uiso   1.00
H727   H     0.87460   0.12338   0.92839   0.00000  Uiso   1.00
H728   H     0.66750   0.11903   0.81127   0.00000  Uiso   1.00
H729   H     0.95824   0.15042   0.81829   0.00000  Uiso   1.00
H730   H     0.96253   0.10314   0.78371   0.00000  Uiso   1.00
H731   H     0.93630   0.09425   0.52319   0.00000  Uiso   1.00
H732   H     0.68233   0.19300   0.71660   0.00000  Uiso   1.00
H733   H     0.87440   0.00285   0.71620   0.00000  Uiso   1.00
H734   H     0.79116   0.33222   0.78429   0.00000  Uiso   1.00
H735   H     0.81049   0.16600   0.60145   0.00000  Uiso   1.00
H736   H     0.92080   0.10708   0.59489   0.00000  Uiso   1.00
H737   H     0.91783   0.09898   0.96280   0.00000  Uiso   1.00
H738   H     0.71183   0.20876   0.97569   0.00000  Uiso   1.00
N739   N     0.90969   0.19433   0.88737   0.00000  Uiso   1.00
O740   O     0.83333   0.16667   0.75000   0.00000  Uiso   1.00
O741   O     0.82360   0.12393   0.66625   0.00000  Uiso   1.00
O742   O     0.79354   0.20646   0.83749   0.00000  Uiso   1.00
O743   O     0.87755   0.17493   0.65877   0.00000  Uiso   1.00
O744   O     0.83865   0.16135   0.83749   0.00000  Uiso   1.00
O745   O     0.84515   0.08101   0.77820   0.00000  Uiso   1.00
O746   O     0.81247   0.26136   0.76767   0.00000  Uiso   1.00
O747   O     0.74119   0.13251   0.73607   0.00000  Uiso   1.00
O748   O     0.93452   0.19179   0.71806   0.00000  Uiso   1.00
O749   O     0.73656   0.18960   0.77820   0.00000  Uiso   1.00
O750   O     0.92106   0.15277   0.76768   0.00000  Uiso   1.00
O751   O     0.80467   0.06903   0.73607   0.00000  Uiso   1.00
O752   O     0.87104   0.25527   0.71806   0.00000  Uiso   1.00
Zn753  Zn    0.85910   0.14090   0.78278   0.00000  Uiso   1.00
Zn754  Zn    0.80125   0.12378   0.72258   0.00000  Uiso   1.00
Zn755  Zn    0.87833   0.19664   0.71188   0.00000  Uiso   1.00
Zn756  Zn    0.79465   0.20535   0.78277   0.00000  Uiso   1.00
C757   C     0.05299   0.49381   0.75803   0.00000  Uiso   1.00
C758   C     0.20042   0.46501   0.95974   0.00000  Uiso   1.00
C759   C     0.22456   0.44945   0.97955   0.00000  Uiso   1.00
C760   C     0.28087   0.50670   0.74154   0.00000  Uiso   1.00
C761   C     0.21501   0.45631   0.52030   0.00000  Uiso   1.00
C762   C     0.17835   0.47641   0.54200   0.00000  Uiso   1.00
C763   C     0.24171   0.44303   0.53961   0.00000  Uiso   1.00
C764   C     0.23301   0.45025   0.58026   0.00000  Uiso   1.00
C765   C     0.16999   0.48281   0.58317   0.00000  Uiso   1.00
C766   C     0.32633   0.50873   0.73910   0.00000  Uiso   1.00
C767   C     0.00761   0.48983   0.76336   0.00000  Uiso   1.00
C768   C     0.09139   0.53482   0.91980   0.00000  Uiso   1.00
C769   C     0.18086   0.65552   0.73822   0.00000  Uiso   1.00
C770   C     0.15175   0.34543   0.76220   0.00000  Uiso   1.00
C771   C     0.15597   0.38948   0.75894   0.00000  Uiso   1.00
C772   C     0.17685   0.61096   0.74139   0.00000  Uiso   1.00
C773   C     0.18826   0.47854   0.64418   0.00000  Uiso   1.00
C774   C     0.14559   0.52107   0.85606   0.00000  Uiso   1.00
C775   C     0.13291   0.52549   0.89926   0.00000  Uiso   1.00
C776   C     0.19715   0.47002   0.60187   0.00000  Uiso   1.00
C777   C     0.07700   0.53371   0.96027   0.00000  Uiso   1.00
C778   C     0.31384   0.46421   0.79593   0.00000  Uiso   1.00
C779   C     0.16050   0.51609   0.91986   0.00000  Uiso   1.00
C780   C     0.20643   0.52239   0.90178   0.00000  Uiso   1.00
C781   C     0.14374   0.50794   0.95975   0.00000  Uiso   1.00
C782   C     0.10260   0.52001   0.98035   0.00000  Uiso   1.00
C783   C     0.16634   0.48872   0.98002   0.00000  Uiso   1.00
C784   C     0.15232   0.49050   0.52169   0.00000  Uiso   1.00
C785   C     0.11229   0.50515   0.54140   0.00000  Uiso   1.00
C786   C     0.08736   0.51833   0.52082   0.00000  Uiso   1.00
H787   H     0.05612   0.52785   0.53682   0.00000  Uiso   1.00
H788   H     0.06988   0.54265   0.90450   0.00000  Uiso   1.00
H789   H     0.09824   0.50475   0.57259   0.00000  Uiso   1.00
H790   H     0.20794   0.45672   0.92839   0.00000  Uiso   1.00
H791   H     0.00084   0.45236   0.81127   0.00000  Uiso   1.00
H792   H     0.29158   0.48375   0.81829   0.00000  Uiso   1.00
H793   H     0.29586   0.43648   0.78371   0.00000  Uiso   1.00
H794   H     0.26963   0.42759   0.52319   0.00000  Uiso   1.00
H795   H     0.01566   0.52634   0.71660   0.00000  Uiso   1.00
H796   H     0.20773   0.33618   0.71620   0.00000  Uiso   1.00
H797   H     0.12449   0.66555   0.78429   0.00000  Uiso   1.00
H798   H     0.14382   0.49934   0.60145   0.00000  Uiso   1.00
H799   H     0.25414   0.44042   0.59489   0.00000  Uiso   1.00
H800   H     0.25117   0.43231   0.96280   0.00000  Uiso   1.00
H801   H     0.04516   0.54210   0.97569   0.00000  Uiso   1.00
N802   N     0.24303   0.52766   0.88737   0.00000  Uiso   1.00
O803   O     0.16667   0.50000   0.75000   0.00000  Uiso   1.00
O804   O     0.15693   0.45726   0.66625   0.00000  Uiso   1.00
O805   O     0.12687   0.53979   0.83749   0.00000  Uiso   1.00
O806   O     0.21088   0.50826   0.65877   0.00000  Uiso   1.00
O807   O     0.17198   0.49468   0.83749   0.00000  Uiso   1.00
O808   O     0.17849   0.41434   0.77820   0.00000  Uiso   1.00
O809   O     0.14581   0.59469   0.76767   0.00000  Uiso   1.00
O810   O     0.07452   0.46584   0.73607   0.00000  Uiso   1.00
O811   O     0.26785   0.52512   0.71806   0.00000  Uiso   1.00
O812   O     0.06990   0.52293   0.77820   0.00000  Uiso   1.00
O813   O     0.25440   0.48610   0.76768   0.00000  Uiso   1.00
O814   O     0.13800   0.40236   0.73607   0.00000  Uiso   1.00
O815   O     0.20437   0.58860   0.71806   0.00000  Uiso   1.00
Zn816  Zn    0.19244   0.47423   0.78278   0.00000  Uiso   1.00
Zn817  Zn    0.13459   0.45711   0.72258   0.00000  Uiso   1.00
Zn818  Zn    0.21166   0.52997   0.71188   0.00000  Uiso   1.00
Zn819  Zn    0.12798   0.53868   0.78277   0.00000  Uiso   1.00
C820   C     0.38633   0.49381   0.75803   0.00000  Uiso   1.00
C821   C     0.53375   0.46501   0.95974   0.00000  Uiso   1.00
C822   C     0.55790   0.44945   0.97955   0.00000  Uiso   1.00
C823   C     0.61421   0.50670   0.74154   0.00000  Uiso   1.00
C824   C     0.54834   0.45631   0.52030   0.00000  Uiso   1.00
C825   C     0.51168   0.47641   0.54200   0.00000  Uiso   1.00
C826   C     0.57504   0.44303   0.53961   0.00000  Uiso   1.00
C827   C     0.56634   0.45025   0.58026   0.00000  Uiso   1.00
C828   C     0.50332   0.48281   0.58317   0.00000  Uiso   1.00
C829   C     0.65967   0.50873   0.73910   0.00000  Uiso   1.00
C830   C     0.34094   0.48983   0.76336   0.00000  Uiso   1.00
C831   C     0.42473   0.53482   0.91980   0.00000  Uiso   1.00
C832   C     0.51420   0.65552   0.73822   0.00000  Uiso   1.00
C833   C     0.48508   0.34543   0.76220   0.00000  Uiso   1.00
C834   C     0.48930   0.38948   0.75894   0.00000  Uiso   1.00
C835   C     0.51019   0.61096   0.74139   0.00000  Uiso   1.00
C836   C     0.52159   0.47854   0.64418   0.00000  Uiso   1.00
C837   C     0.47893   0.52107   0.85606   0.00000  Uiso   1.00
C838   C     0.46624   0.52549   0.89926   0.00000  Uiso   1.00
C839   C     0.53049   0.47002   0.60187   0.00000  Uiso   1.00
C840   C     0.41033   0.53371   0.96027   0.00000  Uiso   1.00
C841   C     0.64718   0.46421   0.79593   0.00000  Uiso   1.00
C842   C     0.49383   0.51609   0.91986   0.00000  Uiso   1.00
C843   C     0.53976   0.52239   0.90178   0.00000  Uiso   1.00
C844   C     0.47708   0.50794   0.95975   0.00000  Uiso   1.00
C845   C     0.43594   0.52001   0.98035   0.00000  Uiso   1.00
C846   C     0.49967   0.48872   0.98002   0.00000  Uiso   1.00
C847   C     0.48565   0.49050   0.52169   0.00000  Uiso   1.00
C848   C     0.44562   0.50515   0.54140   0.00000  Uiso   1.00
C849   C     0.42070   0.51833   0.52082   0.00000  Uiso   1.00
H850   H     0.38945   0.52785   0.53682   0.00000  Uiso   1.00
H851   H     0.40321   0.54265   0.90450   0.00000  Uiso   1.00
H852   H     0.43157   0.50475   0.57259   0.00000  Uiso   1.00
H853   H     0.54127   0.45672   0.92839   0.00000  Uiso   1.00
H854   H     0.33417   0.45236   0.81127   0.00000  Uiso   1.00
H855   H     0.62491   0.48375   0.81829   0.00000  Uiso   1.00
H856   H     0.62919   0.43648   0.78371   0.00000  Uiso   1.00
H857   H     0.60296   0.42759   0.52319   0.00000  Uiso   1.00
H858   H     0.34899   0.52634   0.71660   0.00000  Uiso   1.00
H859   H     0.54106   0.33618   0.71620   0.00000  Uiso   1.00
H860   H     0.45782   0.66555   0.78429   0.00000  Uiso   1.00
H861   H     0.47716   0.49934   0.60145   0.00000  Uiso   1.00
H862   H     0.58747   0.44042   0.59489   0.00000  Uiso   1.00
H863   H     0.58450   0.43231   0.96280   0.00000  Uiso   1.00
H864   H     0.37850   0.54210   0.97569   0.00000  Uiso   1.00
N865   N     0.57636   0.52766   0.88737   0.00000  Uiso   1.00
O866   O     0.50000   0.50000   0.75000   0.00000  Uiso   1.00
O867   O     0.49027   0.45726   0.66625   0.00000  Uiso   1.00
O868   O     0.46020   0.53979   0.83749   0.00000  Uiso   1.00
O869   O     0.54421   0.50826   0.65877   0.00000  Uiso   1.00
O870   O     0.50532   0.49468   0.83749   0.00000  Uiso   1.00
O871   O     0.51182   0.41434   0.77820   0.00000  Uiso   1.00
O872   O     0.47914   0.59469   0.76767   0.00000  Uiso   1.00
O873   O     0.40785   0.46584   0.73607   0.00000  Uiso   1.00
O874   O     0.60119   0.52512   0.71806   0.00000  Uiso   1.00
O875   O     0.40323   0.52293   0.77820   0.00000  Uiso   1.00
O876   O     0.58773   0.48610   0.76768   0.00000  Uiso   1.00
O877   O     0.47133   0.40236   0.73607   0.00000  Uiso   1.00
O878   O     0.53771   0.58860   0.71806   0.00000  Uiso   1.00
Zn879  Zn    0.52577   0.47423   0.78278   0.00000  Uiso   1.00
Zn880  Zn    0.46792   0.45711   0.72258   0.00000  Uiso   1.00
Zn881  Zn    0.54500   0.52997   0.71188   0.00000  Uiso   1.00
Zn882  Zn    0.46131   0.53868   0.78277   0.00000  Uiso   1.00
C883   C     0.71966   0.49381   0.75803   0.00000  Uiso   1.00
C884   C     0.86709   0.46501   0.95974   0.00000  Uiso   1.00
C885   C     0.89123   0.44945   0.97955   0.00000  Uiso   1.00
C886   C     0.94754   0.50670   0.74154   0.00000  Uiso   1.00
C887   C     0.88167   0.45631   0.52030   0.00000  Uiso   1.00
C888   C     0.84502   0.47641   0.54200   0.00000  Uiso   1.00
C889   C     0.90837   0.44303   0.53961   0.00000  Uiso   1.00
C890   C     0.89968   0.45025   0.58026   0.00000  Uiso   1.00
C891   C     0.83666   0.48281   0.58317   0.00000  Uiso   1.00
C892   C     0.99300   0.50873   0.73910   0.00000  Uiso   1.00
C893   C     0.67428   0.48983   0.76336   0.00000  Uiso   1.00
C894   C     0.75806   0.53482   0.91980   0.00000  Uiso   1.00
C895   C     0.84753   0.65552   0.73822   0.00000  Uiso   1.00
C896   C     0.81842   0.34543   0.76220   0.00000  Uiso   1.00
C897   C     0.82264   0.38948   0.75894   0.00000  Uiso   1.00
C898   C     0.84352   0.61096   0.74139   0.00000  Uiso   1.00
C899   C     0.85493   0.47854   0.64418   0.00000  Uiso   1.00
C900   C     0.81226   0.52107   0.85606   0.00000  Uiso   1.00
C901   C     0.79958   0.52549   0.89926   0.00000  Uiso   1.00
C902   C     0.86382   0.47002   0.60187   0.00000  Uiso   1.00
C903   C     0.74367   0.53371   0.96027   0.00000  Uiso   1.00
C904   C     0.98051   0.46421   0.79593   0.00000  Uiso   1.00
C905   C     0.82717   0.51609   0.91986   0.00000  Uiso   1.00
C906   C     0.87310   0.52239   0.90178   0.00000  Uiso   1.00
C907   C     0.81041   0.50794   0.95975   0.00000  Uiso   1.00
C908   C     0.76927   0.52001   0.98035   0.00000  Uiso   1.00
C909   C     0.83300   0.48872   0.98002   0.00000  Uiso   1.00
C910   C     0.81899   0.49050   0.52169   0.00000  Uiso   1.00
C911   C     0.77895   0.50515   0.54140   0.00000  Uiso   1.00
C912   C     0.75403   0.51833   0.52082   0.00000  Uiso   1.00
H913   H     0.72278   0.52785   0.53682   0.00000  Uiso   1.00
H914   H     0.73655   0.54265   0.90450   0.00000  Uiso   1.00
H915   H     0.76490   0.50475   0.57259   0.00000  Uiso   1.00
H916   H     0.87460   0.45672   0.92839   0.00000  Uiso   1.00
H917   H     0.66750   0.45236   0.81127   0.00000  Uiso   1.00
H918   H     0.95824   0.48375   0.81829   0.00000  Uiso   1.00
H919   H     0.96253   0.43648   0.78371   0.00000  Uiso   1.00
H920   H     0.93630   0.42759   0.52319   0.00000  Uiso   1.00
H921   H     0.68233   0.52634   0.71660   0.00000  Uiso   1.00
H922   H     0.87440   0.33618   0.71620   0.00000  Uiso   1.00
H923   H     0.79116   0.66555   0.78429   0.00000  Uiso   1.00
H924   H     0.81049   0.49934   0.60145   0.00000  Uiso   1.00
H925   H     0.92080   0.44042   0.59489   0.00000  Uiso   1.00
H926   H     0.91783   0.43231   0.96280   0.00000  Uiso   1.00
H927   H     0.71183   0.54210   0.97569   0.00000  Uiso   1.00
N928   N     0.90969   0.52766   0.88737   0.00000  Uiso   1.00
O929   O     0.83333   0.50000   0.75000   0.00000  Uiso   1.00
O930   O     0.82360   0.45726   0.66625   0.00000  Uiso   1.00
O931   O     0.79354   0.53979   0.83749   0.00000  Uiso   1.00
O932   O     0.87755   0.50826   0.65877   0.00000  Uiso   1.00
O933   O     0.83865   0.49468   0.83749   0.00000  Uiso   1.00
O934   O     0.84515   0.41434   0.77820   0.00000  Uiso   1.00
O935   O     0.81247   0.59469   0.76767   0.00000  Uiso   1.00
O936   O     0.74119   0.46584   0.73607   0.00000  Uiso   1.00
O937   O     0.93452   0.52512   0.71806   0.00000  Uiso   1.00
O938   O     0.73656   0.52293   0.77820   0.00000  Uiso   1.00
O939   O     0.92106   0.48610   0.76768   0.00000  Uiso   1.00
O940   O     0.80467   0.40236   0.73607   0.00000  Uiso   1.00
O941   O     0.87104   0.58860   0.71806   0.00000  Uiso   1.00
Zn942  Zn    0.85910   0.47423   0.78278   0.00000  Uiso   1.00
Zn943  Zn    0.80125   0.45711   0.72258   0.00000  Uiso   1.00
Zn944  Zn    0.87833   0.52997   0.71188   0.00000  Uiso   1.00
Zn945  Zn    0.79465   0.53868   0.78277   0.00000  Uiso   1.00
C946   C     0.05299   0.82714   0.75803   0.00000  Uiso   1.00
C947   C     0.20042   0.79834   0.95974   0.00000  Uiso   1.00
C948   C     0.22456   0.78278   0.97955   0.00000  Uiso   1.00
C949   C     0.28087   0.84004   0.74154   0.00000  Uiso   1.00
C950   C     0.21501   0.78964   0.52030   0.00000  Uiso   1.00
C951   C     0.17835   0.80974   0.54200   0.00000  Uiso   1.00
C952   C     0.24171   0.77637   0.53961   0.00000  Uiso   1.00
C953   C     0.23301   0.78358   0.58026   0.00000  Uiso   1.00
C954   C     0.16999   0.81614   0.58317   0.00000  Uiso   1.00
C955   C     0.32633   0.84207   0.73910   0.00000  Uiso   1.00
C956   C     0.00761   0.82317   0.76336   0.00000  Uiso   1.00
C957   C     0.09139   0.86816   0.91980   0.00000  Uiso   1.00
C958   C     0.18086   0.98885   0.73822   0.00000  Uiso   1.00
C959   C     0.15175   0.67877   0.76220   0.00000  Uiso   1.00
C960   C     0.15597   0.72281   0.75894   0.00000  Uiso   1.00
C961   C     0.17685   0.94430   0.74139   0.00000  Uiso   1.00
C962   C     0.18826   0.81187   0.64418   0.00000  Uiso   1.00
C963   C     0.14559   0.85440   0.85606   0.00000  Uiso   1.00
C964   C     0.13291   0.85883   0.89926   0.00000  Uiso   1.00
C965   C     0.19715   0.80335   0.60187   0.00000  Uiso   1.00
C966   C     0.07700   0.86704   0.96027   0.00000  Uiso   1.00
C967   C     0.31384   0.79755   0.79593   0.00000  Uiso   1.00
C968   C     0.16050   0.84942   0.91986   0.00000  Uiso   1.00
C969   C     0.20643   0.85573   0.90178   0.00000  Uiso   1.00
C970   C     0.14374   0.84127   0.95975   0.00000  Uiso   1.00
C971   C     0.10260   0.85334   0.98035   0.00000  Uiso   1.00
C972   C     0.16634   0.82205   0.98002   0.00000  Uiso   1.00
C973   C     0.15232   0.82383   0.52169   0.00000  Uiso   1.00
C974   C     0.11229   0.83848   0.54140   0.00000  Uiso   1.00
C975   C     0.08736   0.85167   0.52082   0.00000  Uiso   1.00
H976   H     0.05612   0.86119   0.53682   0.00000  Uiso   1.00
H977   H     0.06988   0.87598   0.90450   0.00000  Uiso   1.00
H978   H     0.09824   0.83808   0.57259   0.00000  Uiso   1.00
H979   H     0.20794   0.79005   0.92839   0.00000  Uiso   1.00
H980   H     0.00084   0.78570   0.81127   0.00000  Uiso   1.00
H981   H     0.29158   0.81709   0.81829   0.00000  Uiso   1.00
H982   H     0.29586   0.76981   0.78371   0.00000  Uiso   1.00
H983   H     0.26963   0.76092   0.52319   0.00000  Uiso   1.00
H984   H     0.01566   0.85967   0.71660   0.00000  Uiso   1.00
H985   H     0.20773   0.66952   0.71620   0.00000  Uiso   1.00
H986   H     0.12449   0.99889   0.78429   0.00000  Uiso   1.00
H987   H     0.14382   0.83267   0.60145   0.00000  Uiso   1.00
H988   H     0.25414   0.77375   0.59489   0.00000  Uiso   1.00
H989   H     0.25117   0.76564   0.96280   0.00000  Uiso   1.00
H990   H     0.04516   0.87543   0.97569   0.00000  Uiso   1.00
N991   N     0.24303   0.86099   0.88737   0.00000  Uiso   1.00
O992   O     0.16667   0.83333   0.75000   0.00000  Uiso   1.00
O993   O     0.15693   0.79060   0.66625   0.00000  Uiso   1.00
O994   O     0.12687   0.87313   0.83749   0.00000  Uiso   1.00
O995   O     0.21088   0.84159   0.65877   0.00000  Uiso   1.00
O996   O     0.17198   0.82802   0.83749   0.00000  Uiso   1.00
O997   O     0.17849   0.74768   0.77820   0.00000  Uiso   1.00
O998   O     0.14581   0.92803   0.76767   0.00000  Uiso   1.00
O999   O     0.07452   0.79917   0.73607   0.00000  Uiso   1.00
O1000  O     0.26785   0.85845   0.71806   0.00000  Uiso   1.00
O1001  O     0.06990   0.85627   0.77820   0.00000  Uiso   1.00
O1002  O     0.25440   0.81944   0.76768   0.00000  Uiso   1.00
O1003  O     0.13800   0.73570   0.73607   0.00000  Uiso   1.00
O1004  O     0.20437   0.92193   0.71806   0.00000  Uiso   1.00
Zn1005 Zn    0.19244   0.80756   0.78278   0.00000  Uiso   1.00
Zn1006 Zn    0.13459   0.79044   0.72258   0.00000  Uiso   1.00
Zn1007 Zn    0.21166   0.86331   0.71188   0.00000  Uiso   1.00
Zn1008 Zn    0.12798   0.87202   0.78277   0.00000  Uiso   1.00
C1009  C     0.38633   0.82714   0.75803   0.00000  Uiso   1.00
C1010  C     0.53375   0.79834   0.95974   0.00000  Uiso   1.00
C1011  C     0.55790   0.78278   0.97955   0.00000  Uiso   1.00
C1012  C     0.61421   0.84004   0.74154   0.00000  Uiso   1.00
C1013  C     0.54834   0.78964   0.52030   0.00000  Uiso   1.00
C1014  C     0.51168   0.80974   0.54200   0.00000  Uiso   1.00
C1015  C     0.57504   0.77637   0.53961   0.00000  Uiso   1.00
C1016  C     0.56634   0.78358   0.58026   0.00000  Uiso   1.00
C1017  C     0.50332   0.81614   0.58317   0.00000  Uiso   1.00
C1018  C     0.65967   0.84207   0.73910   0.00000  Uiso   1.00
C1019  C     0.34094   0.82317   0.76336   0.00000  Uiso   1.00
C1020  C     0.42473   0.86816   0.91980   0.00000  Uiso   1.00
C1021  C     0.51420   0.98885   0.73822   0.00000  Uiso   1.00
C1022  C     0.48508   0.67877   0.76220   0.00000  Uiso   1.00
C1023  C     0.48930   0.72281   0.75894   0.00000  Uiso   1.00
C1024  C     0.51019   0.94430   0.74139   0.00000  Uiso   1.00
C1025  C     0.52159   0.81187   0.64418   0.00000  Uiso   1.00
C1026  C     0.47893   0.85440   0.85606   0.00000  Uiso   1.00
C1027  C     0.46624   0.85883   0.89926   0.00000  Uiso   1.00
C1028  C     0.53049   0.80335   0.60187   0.00000  Uiso   1.00
C1029  C     0.41033   0.86704   0.96027   0.00000  Uiso   1.00
C1030  C     0.64718   0.79755   0.79593   0.00000  Uiso   1.00
C1031  C     0.49383   0.84942   0.91986   0.00000  Uiso   1.00
C1032  C     0.53976   0.85573   0.90178   0.00000  Uiso   1.00
C1033  C     0.47708   0.84127   0.95975   0.00000  Uiso   1.00
C1034  C     0.43594   0.85334   0.98035   0.00000  Uiso   1.00
C1035  C     0.49967   0.82205   0.98002   0.00000  Uiso   1.00
C1036  C     0.48565   0.82383   0.52169   0.00000  Uiso   1.00
C1037  C     0.44562   0.83848   0.54140   0.00000  Uiso   1.00
C1038  C     0.42070   0.85167   0.52082   0.00000  Uiso   1.00
H1039  H     0.38945   0.86119   0.53682   0.00000  Uiso   1.00
H1040  H     0.40321   0.87598   0.90450   0.00000  Uiso   1.00
H1041  H     0.43157   0.83808   0.57259   0.00000  Uiso   1.00
H1042  H     0.54127   0.79005   0.92839   0.00000  Uiso   1.00
H1043  H     0.33417   0.78570   0.81127   0.00000  Uiso   1.00
H1044  H     0.62491   0.81709   0.81829   0.00000  Uiso   1.00
H1045  H     0.62919   0.76981   0.78371   0.00000  Uiso   1.00
H1046  H     0.60296   0.76092   0.52319   0.00000  Uiso   1.00
H1047  H     0.34899   0.85967   0.71660   0.00000  Uiso   1.00
H1048  H     0.54106   0.66952   0.71620   0.00000  Uiso   1.00
H1049  H     0.45782   0.99889   0.78429   0.00000  Uiso   1.00
H1050  H     0.47716   0.83267   0.60145   0.00000  Uiso   1.00
H1051  H     0.58747   0.77375   0.59489   0.00000  Uiso   1.00
H1052  H     0.58450   0.76564   0.96280   0.00000  Uiso   1.00
H1053  H     0.37850   0.87543   0.97569   0.00000  Uiso   1.00
N1054  N     0.57636   0.86099   0.88737   0.00000  Uiso   1.00
O1055  O     0.50000   0.83333   0.75000   0.00000  Uiso   1.00
O1056  O     0.49027   0.79060   0.66625   0.00000  Uiso   1.00
O1057  O     0.46020   0.87313   0.83749   0.00000  Uiso   1.00
O1058  O     0.54421   0.84159   0.65877   0.00000  Uiso   1.00
O1059  O     0.50532   0.82802   0.83749   0.00000  Uiso   1.00
O1060  O     0.51182   0.74768   0.77820   0.00000  Uiso   1.00
O1061  O     0.47914   0.92803   0.76767   0.00000  Uiso   1.00
O1062  O     0.40785   0.79917   0.73607   0.00000  Uiso   1.00
O1063  O     0.60119   0.85845   0.71806   0.00000  Uiso   1.00
O1064  O     0.40323   0.85627   0.77820   0.00000  Uiso   1.00
O1065  O     0.58773   0.81944   0.76768   0.00000  Uiso   1.00
O1066  O     0.47133   0.73570   0.73607   0.00000  Uiso   1.00
O1067  O     0.53771   0.92193   0.71806   0.00000  Uiso   1.00
Zn1068 Zn    0.52577   0.80756   0.78278   0.00000  Uiso   1.00
Zn1069 Zn    0.46792   0.79044   0.72258   0.00000  Uiso   1.00
Zn1070 Zn    0.54500   0.86331   0.71188   0.00000  Uiso   1.00
Zn1071 Zn    0.46131   0.87202   0.78277   0.00000  Uiso   1.00
C1072  C     0.71966   0.82714   0.75803   0.00000  Uiso   1.00
C1073  C     0.86709   0.79834   0.95974   0.00000  Uiso   1.00
C1074  C     0.89123   0.78278   0.97955   0.00000  Uiso   1.00
C1075  C     0.94754   0.84004   0.74154   0.00000  Uiso   1.00
C1076  C     0.88167   0.78964   0.52030   0.00000  Uiso   1.00
C1077  C     0.84502   0.80974   0.54200   0.00000  Uiso   1.00
C1078  C     0.90837   0.77637   0.53961   0.00000  Uiso   1.00
C1079  C     0.89968   0.78358   0.58026   0.00000  Uiso   1.00
C1080  C     0.83666   0.81614   0.58317   0.00000  Uiso   1.00
C1081  C     0.99300   0.84207   0.73910   0.00000  Uiso   1.00
C1082  C     0.67428   0.82317   0.76336   0.00000  Uiso   1.00
C1083  C     0.75806   0.86816   0.91980   0.00000  Uiso   1.00
C1084  C     0.84753   0.98885   0.73822   0.00000  Uiso   1.00
C1085  C     0.81842   0.67877   0.76220   0.00000  Uiso   1.00
C1086  C     0.82264   0.72281   0.75894   0.00000  Uiso   1.00
C1087  C     0.84352   0.94430   0.74139   0.00000  Uiso   1.00
C1088  C     0.85493   0.81187   0.64418   0.00000  Uiso   1.00
C1089  C     0.81226   0.85440   0.85606   0.00000  Uiso   1.00
C1090  C     0.79958   0.85883   0.89926   0.00000  Uiso   1.00
C1091  C     0.86382   0.80335   0.60187   0.00000  Uiso   1.00
C1092  C     0.74367   0.86704   0.96027   0.00000  Uiso   1.00
C1093  C     0.98051   0.79755   0.79593   0.00000  Uiso   1.00
C1094  C     0.82717   0.84942   0.91986   0.00000  Uiso   1.00
C1095  C     0.87310   0.85573   0.90178   0.00000  Uiso   1.00
C1096  C     0.81041   0.84127   0.95975   0.00000  Uiso   1.00
C1097  C     0.76927   0.85334   0.98035   0.00000  Uiso   1.00
C1098  C     0.83300   0.82205   0.98002   0.00000  Uiso   1.00
C1099  C     0.81899   0.82383   0.52169   0.00000  Uiso   1.00
C1100  C     0.77895   0.83848   0.54140   0.00000  Uiso   1.00
C1101  C     0.75403   0.85167   0.52082   0.00000  Uiso   1.00
H1102  H     0.72278   0.86119   0.53682   0.00000  Uiso   1.00
H1103  H     0.73655   0.87598   0.90450   0.00000  Uiso   1.00
H1104  H     0.76490   0.83808   0.57259   0.00000  Uiso   1.00
H1105  H     0.87460   0.79005   0.92839   0.00000  Uiso   1.00
H1106  H     0.66750   0.78570   0.81127   0.00000  Uiso   1.00
H1107  H     0.95824   0.81709   0.81829   0.00000  Uiso   1.00
H1108  H     0.96253   0.76981   0.78371   0.00000  Uiso   1.00
H1109  H     0.93630   0.76092   0.52319   0.00000  Uiso   1.00
H1110  H     0.68233   0.85967   0.71660   0.00000  Uiso   1.00
H1111  H     0.87440   0.66952   0.71620   0.00000  Uiso   1.00
H1112  H     0.79116   0.99889   0.78429   0.00000  Uiso   1.00
H1113  H     0.81049   0.83267   0.60145   0.00000  Uiso   1.00
H1114  H     0.92080   0.77375   0.59489   0.00000  Uiso   1.00
H1115  H     0.91783   0.76564   0.96280   0.00000  Uiso   1.00
H1116  H     0.71183   0.87543   0.97569   0.00000  Uiso   1.00
N1117  N     0.90969   0.86099   0.88737   0.00000  Uiso   1.00
O1118  O     0.83333   0.83333   0.75000   0.00000  Uiso   1.00
O1119  O     0.82360   0.79060   0.66625   0.00000  Uiso   1.00
O1120  O     0.79354   0.87313   0.83749   0.00000  Uiso   1.00
O1121  O     0.87755   0.84159   0.65877   0.00000  Uiso   1.00
O1122  O     0.83865   0.82802   0.83749   0.00000  Uiso   1.00
O1123  O     0.84515   0.74768   0.77820   0.00000  Uiso   1.00
O1124  O     0.81247   0.92803   0.76767   0.00000  Uiso   1.00
O1125  O     0.74119   0.79917   0.73607   0.00000  Uiso   1.00
O1126  O     0.93452   0.85845   0.71806   0.00000  Uiso   1.00
O1127  O     0.73656   0.85627   0.77820   0.00000  Uiso   1.00
O1128  O     0.92106   0.81944   0.76768   0.00000  Uiso   1.00
O1129  O     0.80467   0.73570   0.73607   0.00000  Uiso   1.00
O1130  O     0.87104   0.92193   0.71806   0.00000  Uiso   1.00
Zn1131 Zn    0.85910   0.80756   0.78278   0.00000  Uiso   1.00
Zn1132 Zn    0.80125   0.79044   0.72258   0.00000  Uiso   1.00
Zn1133 Zn    0.87833   0.86331   0.71188   0.00000  Uiso   1.00
Zn1134 Zn    0.79465   0.87202   0.78277   0.00000  Uiso   1.00
loop_
_geom_bond_atom_site_label_1
_geom_bond_atom_site_label_2
_geom_bond_distance
_geom_bond_site_symmetry_2
_ccdc_geom_bond_type
C1     C11     1.432   .     S
C1     O54     1.268   .     A
C1     O56     1.268   .     A
C2     H34     1.079   .     S
C2     C3      1.386   .     A
C2     C27     1.412   .     A
C3     H44     1.084   .     S
C3     C572    1.391   .     S
C4     O55     1.290   .     A
C4     C10     1.458   .     S
C4     O57     1.268   .     A
C5     C6      1.421   .     A
C5     C7      1.403   .     A
C5     C570    1.391   1_554 S
C6     C9      1.408   .     A
C6     C28     1.424   .     A
C7     C8      1.391   .     A
C7     H38     1.084   .     S
C8     H43     1.083   .     S
C8     C20     1.395   .     A
C9     C20     1.392   .     A
C9     H42     1.079   .     S
C10    C74     1.353   .     S
C10    H102    1.088   .     S
C11    C136    1.353   1_455 S
C11    C148    1.514   1_455 S
C12    H32     1.083   .     S
C12    C21     1.390   .     A
C12    C19     1.401   .     A
C13    C16     1.451   .     S
C13    C203    1.331   .     S
C13    H229    1.088   .     S
C14    C15     1.435   .     S
C14    C391    1.331   1_545 S
C14    H419    1.086   1_545 S
C15    O52     1.279   .     A
C15    O58     1.278   .     A
C16    O53     1.275   .     A
C16    O59     1.275   .     A
C17    O50     1.275   .     A
C17    O48     1.277   .     A
C17    C20     1.450   .     S
C18    O51     1.284   .     A
C18    O49     1.281   .     A
C18    C19     1.471   .     S
C19    C23     1.407   .     A
C21    C26     1.400   .     A
C21    H45     1.084   .     S
C22    H36     1.110   .     S
C22    H37     1.110   .     S
C22    C74     1.514   .     S
C22    H98     1.112   .     S
C23    C24     1.452   .     S
C23    C25     1.419   .     A
C24    N46     1.158   .     T
C25    C27     1.425   .     A
C25    C26     1.419   .     A
C26    C597    1.393   .     S
C27    C595    1.422   .     S
C28    C29     1.413   .     A
C28    C594    1.422   1_554 S
C29    C30     1.388   .     A
C29    H33     1.077   .     S
C30    H31     1.084   .     S
C30    C593    1.393   1_554 S
H35    C148    1.112   1_455 S
H39    C136    1.088   1_455 S
H40    C391    1.088   1_545 S
H41    C203    1.086   .     S
O47    Zn61    1.947   .     S
O47    Zn60    1.958   .     S
O47    Zn62    1.941   .     S
O47    Zn63    1.938   .     S
O48    Zn61    1.934   .     S
O49    Zn63    1.941   .     S
O50    Zn62    1.937   .     S
O51    Zn60    1.931   .     S
O52    Zn60    1.927   .     S
O53    Zn63    1.929   .     S
O54    Zn61    1.939   .     S
O55    Zn62    1.947   .     S
O56    Zn63    1.944   .     S
O57    Zn60    1.938   .     S
O58    Zn61    1.932   .     S
O59    Zn62    1.928   .     S
C64    C74     1.432   .     S
C64    O117    1.268   .     A
C64    O119    1.268   .     A
C65    H97     1.079   .     S
C65    C66     1.386   .     A
C65    C90     1.412   .     A
C66    H107    1.084   .     S
C66    C635    1.391   .     S
C67    O118    1.290   .     A
C67    C73     1.458   .     S
C67    O120    1.268   .     A
C68    C69     1.421   .     A
C68    C70     1.403   .     A
C68    C633    1.391   1_554 S
C69    C72     1.408   .     A
C69    C91     1.424   .     A
C70    C71     1.391   .     A
C70    H101    1.084   .     S
C71    H106    1.083   .     S
C71    C83     1.395   .     A
C72    C83     1.392   .     A
C72    H105    1.079   .     S
C73    C137    1.353   .     S
C73    H165    1.088   .     S
C75    H95     1.083   .     S
C75    C84     1.390   .     A
C75    C82     1.401   .     A
C76    C79     1.451   .     S
C76    C266    1.331   .     S
C76    H292    1.088   .     S
C77    C78     1.435   .     S
C77    C454    1.331   1_545 S
C77    H482    1.086   1_545 S
C78    O115    1.279   .     A
C78    O121    1.278   .     A
C79    O116    1.275   .     A
C79    O122    1.275   .     A
C80    O113    1.275   .     A
C80    O111    1.277   .     A
C80    C83     1.450   .     S
C81    O114    1.284   .     A
C81    O112    1.281   .     A
C81    C82     1.471   .     S
C82    C86     1.407   .     A
C84    C89     1.400   .     A
C84    H108    1.084   .     S
C85    H99     1.110   .     S
C85    H100    1.110   .     S
C85    C137    1.514   .     S
C85    H161    1.112   .     S
C86    C87     1.452   .     S
C86    C88     1.419   .     A
C87    N109    1.158   .     T
C88    C90     1.425   .     A
C88    C89     1.419   .     A
C89    C660    1.393   .     S
C90    C658    1.422   .     S
C91    C92     1.413   .     A
C91    C657    1.422   1_554 S
C92    C93     1.388   .     A
C92    H96     1.077   .     S
C93    H94     1.084   .     S
C93    C656    1.393   1_554 S
H103   C454    1.088   1_545 S
H104   C266    1.086   .     S
O110   Zn124   1.947   .     S
O110   Zn123   1.958   .     S
O110   Zn125   1.941   .     S
O110   Zn126   1.938   .     S
O111   Zn124   1.934   .     S
O112   Zn126   1.941   .     S
O113   Zn125   1.937   .     S
O114   Zn123   1.931   .     S
O115   Zn123   1.927   .     S
O116   Zn126   1.929   .     S
O117   Zn124   1.939   .     S
O118   Zn125   1.947   .     S
O119   Zn126   1.944   .     S
O120   Zn123   1.938   .     S
O121   Zn124   1.932   .     S
O122   Zn125   1.928   .     S
C127   C137    1.432   .     S
C127   O180    1.268   .     A
C127   O182    1.268   .     A
C128   H160    1.079   .     S
C128   C129    1.386   .     A
C128   C153    1.412   .     A
C129   H170    1.084   .     S
C129   C698    1.391   .     S
C130   O181    1.290   .     A
C130   C136    1.458   .     S
C130   O183    1.268   .     A
C131   C132    1.421   .     A
C131   C133    1.403   .     A
C131   C696    1.391   1_554 S
C132   C135    1.408   .     A
C132   C154    1.424   .     A
C133   C134    1.391   .     A
C133   H164    1.084   .     S
C134   H169    1.083   .     S
C134   C146    1.395   .     A
C135   C146    1.392   .     A
C135   H168    1.079   .     S
C136   C11     1.353   1_655 S
C136   H39     1.088   1_655 S
C138   H158    1.083   .     S
C138   C147    1.390   .     A
C138   C145    1.401   .     A
C139   C142    1.451   .     S
C139   C329    1.331   .     S
C139   H355    1.088   .     S
C140   C141    1.435   .     S
C140   C517    1.331   1_545 S
C140   H545    1.086   1_545 S
C141   O178    1.279   .     A
C141   O184    1.278   .     A
C142   O179    1.275   .     A
C142   O185    1.275   .     A
C143   O176    1.275   .     A
C143   O174    1.277   .     A
C143   C146    1.450   .     S
C144   O177    1.284   .     A
C144   O175    1.281   .     A
C144   C145    1.471   .     S
C145   C149    1.407   .     A
C147   C152    1.400   .     A
C147   H171    1.084   .     S
C148   H162    1.110   .     S
C148   H163    1.110   .     S
C148   C11     1.514   1_655 S
C148   H35     1.112   1_655 S
C149   C150    1.452   .     S
C149   C151    1.419   .     A
C150   N172    1.158   .     T
C151   C153    1.425   .     A
C151   C152    1.419   .     A
C152   C723    1.393   .     S
C153   C721    1.422   .     S
C154   C155    1.413   .     A
C154   C720    1.422   1_554 S
C155   C156    1.388   .     A
C155   H159    1.077   .     S
C156   H157    1.084   .     S
C156   C719    1.393   1_554 S
H166   C517    1.088   1_545 S
H167   C329    1.086   .     S
O173   Zn187   1.947   .     S
O173   Zn186   1.958   .     S
O173   Zn188   1.941   .     S
O173   Zn189   1.938   .     S
O174   Zn187   1.934   .     S
O175   Zn189   1.941   .     S
O176   Zn188   1.937   .     S
O177   Zn186   1.931   .     S
O178   Zn186   1.927   .     S
O179   Zn189   1.929   .     S
O180   Zn187   1.939   .     S
O181   Zn188   1.947   .     S
O182   Zn189   1.944   .     S
O183   Zn186   1.938   .     S
O184   Zn187   1.932   .     S
O185   Zn188   1.928   .     S
C190   C200    1.432   .     S
C190   O243    1.268   .     A
C190   O245    1.268   .     A
C191   H223    1.079   .     S
C191   C192    1.386   .     A
C191   C216    1.412   .     A
C192   H233    1.084   .     S
C192   C761    1.391   .     S
C193   O244    1.290   .     A
C193   C199    1.458   .     S
C193   O246    1.268   .     A
C194   C195    1.421   .     A
C194   C196    1.403   .     A
C194   C759    1.391   1_554 S
C195   C198    1.408   .     A
C195   C217    1.424   .     A
C196   C197    1.391   .     A
C196   H227    1.084   .     S
C197   H232    1.083   .     S
C197   C209    1.395   .     A
C198   C209    1.392   .     A
C198   H231    1.079   .     S
C199   C263    1.353   .     S
C199   H291    1.088   .     S
C200   C325    1.353   1_455 S
C200   C337    1.514   1_455 S
C201   H221    1.083   .     S
C201   C210    1.390   .     A
C201   C208    1.401   .     A
C202   C205    1.451   .     S
C202   C392    1.331   .     S
C202   H418    1.088   .     S
C203   C204    1.435   .     S
C204   O241    1.279   .     A
C204   O247    1.278   .     A
C205   O242    1.275   .     A
C205   O248    1.275   .     A
C206   O239    1.275   .     A
C206   O237    1.277   .     A
C206   C209    1.450   .     S
C207   O240    1.284   .     A
C207   O238    1.281   .     A
C207   C208    1.471   .     S
C208   C212    1.407   .     A
C210   C215    1.400   .     A
C210   H234    1.084   .     S
C211   H225    1.110   .     S
C211   H226    1.110   .     S
C211   C263    1.514   .     S
C211   H287    1.112   .     S
C212   C213    1.452   .     S
C212   C214    1.419   .     A
C213   N235    1.158   .     T
C214   C216    1.425   .     A
C214   C215    1.419   .     A
C215   C786    1.393   .     S
C216   C784    1.422   .     S
C217   C218    1.413   .     A
C217   C783    1.422   1_554 S
C218   C219    1.388   .     A
C218   H222    1.077   .     S
C219   H220    1.084   .     S
C219   C782    1.393   1_554 S
H224   C337    1.112   1_455 S
H228   C325    1.088   1_455 S
H230   C392    1.086   .     S
O236   Zn250   1.947   .     S
O236   Zn249   1.958   .     S
O236   Zn251   1.941   .     S
O236   Zn252   1.938   .     S
O237   Zn250   1.934   .     S
O238   Zn252   1.941   .     S
O239   Zn251   1.937   .     S
O240   Zn249   1.931   .     S
O241   Zn249   1.927   .     S
O242   Zn252   1.929   .     S
O243   Zn250   1.939   .     S
O244   Zn251   1.947   .     S
O245   Zn252   1.944   .     S
O246   Zn249   1.938   .     S
O247   Zn250   1.932   .     S
O248   Zn251   1.928   .     S
C253   C263    1.432   .     S
C253   O306    1.268   .     A
C253   O308    1.268   .     A
C254   H286    1.079   .     S
C254   C255    1.386   .     A
C254   C279    1.412   .     A
C255   H296    1.084   .     S
C255   C824    1.391   .     S
C256   O307    1.290   .     A
C256   C262    1.458   .     S
C256   O309    1.268   .     A
C257   C258    1.421   .     A
C257   C259    1.403   .     A
C257   C822    1.391   1_554 S
C258   C261    1.408   .     A
C258   C280    1.424   .     A
C259   C260    1.391   .     A
C259   H290    1.084   .     S
C260   H295    1.083   .     S
C260   C272    1.395   .     A
C261   C272    1.392   .     A
C261   H294    1.079   .     S
C262   C326    1.353   .     S
C262   H354    1.088   .     S
C264   H284    1.083   .     S
C264   C273    1.390   .     A
C264   C271    1.401   .     A
C265   C268    1.451   .     S
C265   C455    1.331   .     S
C265   H481    1.088   .     S
C266   C267    1.435   .     S
C267   O304    1.279   .     A
C267   O310    1.278   .     A
C268   O305    1.275   .     A
C268   O311    1.275   .     A
C269   O302    1.275   .     A
C269   O300    1.277   .     A
C269   C272    1.450   .     S
C270   O303    1.284   .     A
C270   O301    1.281   .     A
C270   C271    1.471   .     S
C271   C275    1.407   .     A
C273   C278    1.400   .     A
C273   H297    1.084   .     S
C274   H288    1.110   .     S
C274   H289    1.110   .     S
C274   C326    1.514   .     S
C274   H350    1.112   .     S
C275   C276    1.452   .     S
C275   C277    1.419   .     A
C276   N298    1.158   .     T
C277   C279    1.425   .     A
C277   C278    1.419   .     A
C278   C849    1.393   .     S
C279   C847    1.422   .     S
C280   C281    1.413   .     A
C280   C846    1.422   1_554 S
C281   C282    1.388   .     A
C281   H285    1.077   .     S
C282   H283    1.084   .     S
C282   C845    1.393   1_554 S
H293   C455    1.086   .     S
O299   Zn313   1.947   .     S
O299   Zn312   1.958   .     S
O299   Zn314   1.941   .     S
O299   Zn315   1.938   .     S
O300   Zn313   1.934   .     S
O301   Zn315   1.941   .     S
O302   Zn314   1.937   .     S
O303   Zn312   1.931   .     S
O304   Zn312   1.927   .     S
O305   Zn315   1.929   .     S
O306   Zn313   1.939   .     S
O307   Zn314   1.947   .     S
O308   Zn315   1.944   .     S
O309   Zn312   1.938   .     S
O310   Zn313   1.932   .     S
O311   Zn314   1.928   .     S
C316   C326    1.432   .     S
C316   O369    1.268   .     A
C316   O371    1.268   .     A
C317   H349    1.079   .     S
C317   C318    1.386   .     A
C317   C342    1.412   .     A
C318   H359    1.084   .     S
C318   C887    1.391   .     S
C319   O370    1.290   .     A
C319   C325    1.458   .     S
C319   O372    1.268   .     A
C320   C321    1.421   .     A
C320   C322    1.403   .     A
C320   C885    1.391   1_554 S
C321   C324    1.408   .     A
C321   C343    1.424   .     A
C322   C323    1.391   .     A
C322   H353    1.084   .     S
C323   H358    1.083   .     S
C323   C335    1.395   .     A
C324   C335    1.392   .     A
C324   H357    1.079   .     S
C325   C200    1.353   1_655 S
C325   H228    1.088   1_655 S
C327   H347    1.083   .     S
C327   C336    1.390   .     A
C327   C334    1.401   .     A
C328   C331    1.451   .     S
C328   C518    1.331   .     S
C328   H544    1.088   .     S
C329   C330    1.435   .     S
C330   O367    1.279   .     A
C330   O373    1.278   .     A
C331   O368    1.275   .     A
C331   O374    1.275   .     A
C332   O365    1.275   .     A
C332   O363    1.277   .     A
C332   C335    1.450   .     S
C333   O366    1.284   .     A
C333   O364    1.281   .     A
C333   C334    1.471   .     S
C334   C338    1.407   .     A
C336   C341    1.400   .     A
C336   H360    1.084   .     S
C337   H351    1.110   .     S
C337   H352    1.110   .     S
C337   C200    1.514   1_655 S
C337   H224    1.112   1_655 S
C338   C339    1.452   .     S
C338   C340    1.419   .     A
C339   N361    1.158   .     T
C340   C342    1.425   .     A
C340   C341    1.419   .     A
C341   C912    1.393   .     S
C342   C910    1.422   .     S
C343   C344    1.413   .     A
C343   C909    1.422   1_554 S
C344   C345    1.388   .     A
C344   H348    1.077   .     S
C345   H346    1.084   .     S
C345   C908    1.393   1_554 S
H356   C518    1.086   .     S
O362   Zn376   1.947   .     S
O362   Zn375   1.958   .     S
O362   Zn377   1.941   .     S
O362   Zn378   1.938   .     S
O363   Zn376   1.934   .     S
O364   Zn378   1.941   .     S
O365   Zn377   1.937   .     S
O366   Zn375   1.931   .     S
O367   Zn375   1.927   .     S
O368   Zn378   1.929   .     S
O369   Zn376   1.939   .     S
O370   Zn377   1.947   .     S
O371   Zn378   1.944   .     S
O372   Zn375   1.938   .     S
O373   Zn376   1.932   .     S
O374   Zn377   1.928   .     S
C379   C389    1.432   .     S
C379   O432    1.268   .     A
C379   O434    1.268   .     A
C380   H412    1.079   .     S
C380   C381    1.386   .     A
C380   C405    1.412   .     A
C381   H422    1.084   .     S
C381   C950    1.391   .     S
C382   O433    1.290   .     A
C382   C388    1.458   .     S
C382   O435    1.268   .     A
C383   C384    1.421   .     A
C383   C385    1.403   .     A
C383   C948    1.391   1_554 S
C384   C387    1.408   .     A
C384   C406    1.424   .     A
C385   C386    1.391   .     A
C385   H416    1.084   .     S
C386   H421    1.083   .     S
C386   C398    1.395   .     A
C387   C398    1.392   .     A
C387   H420    1.079   .     S
C388   C452    1.353   .     S
C388   H480    1.088   .     S
C389   C514    1.353   1_455 S
C389   C526    1.514   1_455 S
C390   H410    1.083   .     S
C390   C399    1.390   .     A
C390   C397    1.401   .     A
C391   C394    1.451   .     S
C391   C14     1.331   1_565 S
C391   H40     1.088   1_565 S
C392   C393    1.435   .     S
C393   O430    1.279   .     A
C393   O436    1.278   .     A
C394   O431    1.275   .     A
C394   O437    1.275   .     A
C395   O428    1.275   .     A
C395   O426    1.277   .     A
C395   C398    1.450   .     S
C396   O429    1.284   .     A
C396   O427    1.281   .     A
C396   C397    1.471   .     S
C397   C401    1.407   .     A
C399   C404    1.400   .     A
C399   H423    1.084   .     S
C400   H414    1.110   .     S
C400   H415    1.110   .     S
C400   C452    1.514   .     S
C400   H476    1.112   .     S
C401   C402    1.452   .     S
C401   C403    1.419   .     A
C402   N424    1.158   .     T
C403   C405    1.425   .     A
C403   C404    1.419   .     A
C404   C975    1.393   .     S
C405   C973    1.422   .     S
C406   C407    1.413   .     A
C406   C972    1.422   1_554 S
C407   C408    1.388   .     A
C407   H411    1.077   .     S
C408   H409    1.084   .     S
C408   C971    1.393   1_554 S
H413   C526    1.112   1_455 S
H417   C514    1.088   1_455 S
H419   C14     1.086   1_565 S
O425   Zn439   1.947   .     S
O425   Zn438   1.958   .     S
O425   Zn440   1.941   .     S
O425   Zn441   1.938   .     S
O426   Zn439   1.934   .     S
O427   Zn441   1.941   .     S
O428   Zn440   1.937   .     S
O429   Zn438   1.931   .     S
O430   Zn438   1.927   .     S
O431   Zn441   1.929   .     S
O432   Zn439   1.939   .     S
O433   Zn440   1.947   .     S
O434   Zn441   1.944   .     S
O435   Zn438   1.938   .     S
O436   Zn439   1.932   .     S
O437   Zn440   1.928   .     S
C442   C452    1.432   .     S
C442   O495    1.268   .     A
C442   O497    1.268   .     A
C443   H475    1.079   .     S
C443   C444    1.386   .     A
C443   C468    1.412   .     A
C444   H485    1.084   .     S
C444   C1013   1.391   .     S
C445   O496    1.290   .     A
C445   C451    1.458   .     S
C445   O498    1.268   .     A
C446   C447    1.421   .     A
C446   C448    1.403   .     A
C446   C1011   1.391   1_554 S
C447   C450    1.408   .     A
C447   C469    1.424   .     A
C448   C449    1.391   .     A
C448   H479    1.084   .     S
C449   H484    1.083   .     S
C449   C461    1.395   .     A
C450   C461    1.392   .     A
C450   H483    1.079   .     S
C451   C515    1.353   .     S
C451   H543    1.088   .     S
C453   H473    1.083   .     S
C453   C462    1.390   .     A
C453   C460    1.401   .     A
C454   C457    1.451   .     S
C454   C77     1.331   1_565 S
C454   H103    1.088   1_565 S
C455   C456    1.435   .     S
C456   O493    1.279   .     A
C456   O499    1.278   .     A
C457   O494    1.275   .     A
C457   O500    1.275   .     A
C458   O491    1.275   .     A
C458   O489    1.277   .     A
C458   C461    1.450   .     S
C459   O492    1.284   .     A
C459   O490    1.281   .     A
C459   C460    1.471   .     S
C460   C464    1.407   .     A
C462   C467    1.400   .     A
C462   H486    1.084   .     S
C463   H477    1.110   .     S
C463   H478    1.110   .     S
C463   C515    1.514   .     S
C463   H539    1.112   .     S
C464   C465    1.452   .     S
C464   C466    1.419   .     A
C465   N487    1.158   .     T
C466   C468    1.425   .     A
C466   C467    1.419   .     A
C467   C1038   1.393   .     S
C468   C1036   1.422   .     S
C469   C470    1.413   .     A
C469   C1035   1.422   1_554 S
C470   C471    1.388   .     A
C470   H474    1.077   .     S
C471   H472    1.084   .     S
C471   C1034   1.393   1_554 S
H482   C77     1.086   1_565 S
O488   Zn502   1.947   .     S
O488   Zn501   1.958   .     S
O488   Zn503   1.941   .     S
O488   Zn504   1.938   .     S
O489   Zn502   1.934   .     S
O490   Zn504   1.941   .     S
O491   Zn503   1.937   .     S
O492   Zn501   1.931   .     S
O493   Zn501   1.927   .     S
O494   Zn504   1.929   .     S
O495   Zn502   1.939   .     S
O496   Zn503   1.947   .     S
O497   Zn504   1.944   .     S
O498   Zn501   1.938   .     S
O499   Zn502   1.932   .     S
O500   Zn503   1.928   .     S
C505   C515    1.432   .     S
C505   O558    1.268   .     A
C505   O560    1.268   .     A
C506   H538    1.079   .     S
C506   C507    1.386   .     A
C506   C531    1.412   .     A
C507   H548    1.084   .     S
C507   C1076   1.391   .     S
C508   O559    1.290   .     A
C508   C514    1.458   .     S
C508   O561    1.268   .     A
C509   C510    1.421   .     A
C509   C511    1.403   .     A
C509   C1074   1.391   1_554 S
C510   C513    1.408   .     A
C510   C532    1.424   .     A
C511   C512    1.391   .     A
C511   H542    1.084   .     S
C512   H547    1.083   .     S
C512   C524    1.395   .     A
C513   C524    1.392   .     A
C513   H546    1.079   .     S
C514   C389    1.353   1_655 S
C514   H417    1.088   1_655 S
C516   H536    1.083   .     S
C516   C525    1.390   .     A
C516   C523    1.401   .     A
C517   C520    1.451   .     S
C517   C140    1.331   1_565 S
C517   H166    1.088   1_565 S
C518   C519    1.435   .     S
C519   O556    1.279   .     A
C519   O562    1.278   .     A
C520   O557    1.275   .     A
C520   O563    1.275   .     A
C521   O554    1.275   .     A
C521   O552    1.277   .     A
C521   C524    1.450   .     S
C522   O555    1.284   .     A
C522   O553    1.281   .     A
C522   C523    1.471   .     S
C523   C527    1.407   .     A
C525   C530    1.400   .     A
C525   H549    1.084   .     S
C526   H540    1.110   .     S
C526   H541    1.110   .     S
C526   C389    1.514   1_655 S
C526   H413    1.112   1_655 S
C527   C528    1.452   .     S
C527   C529    1.419   .     A
C528   N550    1.158   .     T
C529   C531    1.425   .     A
C529   C530    1.419   .     A
C530   C1101   1.393   .     S
C531   C1099   1.422   .     S
C532   C533    1.413   .     A
C532   C1098   1.422   1_554 S
C533   C534    1.388   .     A
C533   H537    1.077   .     S
C534   H535    1.084   .     S
C534   C1097   1.393   1_554 S
H545   C140    1.086   1_565 S
O551   Zn565   1.947   .     S
O551   Zn564   1.958   .     S
O551   Zn566   1.941   .     S
O551   Zn567   1.938   .     S
O552   Zn565   1.934   .     S
O553   Zn567   1.941   .     S
O554   Zn566   1.937   .     S
O555   Zn564   1.931   .     S
O556   Zn564   1.927   .     S
O557   Zn567   1.929   .     S
O558   Zn565   1.939   .     S
O559   Zn566   1.947   .     S
O560   Zn567   1.944   .     S
O561   Zn564   1.938   .     S
O562   Zn565   1.932   .     S
O563   Zn566   1.928   .     S
C568   C578    1.432   .     S
C568   O621    1.268   .     A
C568   O623    1.268   .     A
C569   H601    1.079   .     S
C569   C570    1.386   .     A
C569   C594    1.412   .     A
C570   H611    1.084   .     S
C570   C5      1.391   1_556 S
C571   O622    1.290   .     A
C571   C577    1.458   .     S
C571   O624    1.268   .     A
C572   C573    1.421   .     A
C572   C574    1.403   .     A
C573   C576    1.408   .     A
C573   C595    1.424   .     A
C574   C575    1.391   .     A
C574   H605    1.084   .     S
C575   H610    1.083   .     S
C575   C587    1.395   .     A
C576   C587    1.392   .     A
C576   H609    1.079   .     S
C577   C641    1.353   .     S
C577   H669    1.088   .     S
C578   C703    1.353   1_455 S
C578   C715    1.514   1_455 S
C579   H599    1.083   .     S
C579   C588    1.390   .     A
C579   C586    1.401   .     A
C580   C583    1.451   .     S
C580   C770    1.331   .     S
C580   H796    1.088   .     S
C581   C582    1.435   .     S
C581   C958    1.331   1_545 S
C581   H986    1.086   1_545 S
C582   O619    1.279   .     A
C582   O625    1.278   .     A
C583   O620    1.275   .     A
C583   O626    1.275   .     A
C584   O617    1.275   .     A
C584   O615    1.277   .     A
C584   C587    1.450   .     S
C585   O618    1.284   .     A
C585   O616    1.281   .     A
C585   C586    1.471   .     S
C586   C590    1.407   .     A
C588   C593    1.400   .     A
C588   H612    1.084   .     S
C589   H603    1.110   .     S
C589   H604    1.110   .     S
C589   C641    1.514   .     S
C589   H665    1.112   .     S
C590   C591    1.452   .     S
C590   C592    1.419   .     A
C591   N613    1.158   .     T
C592   C594    1.425   .     A
C592   C593    1.419   .     A
C593   C30     1.393   1_556 S
C594   C28     1.422   1_556 S
C595   C596    1.413   .     A
C596   C597    1.388   .     A
C596   H600    1.077   .     S
C597   H598    1.084   .     S
H602   C715    1.112   1_455 S
H606   C703    1.088   1_455 S
H607   C958    1.088   1_545 S
H608   C770    1.086   .     S
O614   Zn628   1.947   .     S
O614   Zn627   1.958   .     S
O614   Zn629   1.941   .     S
O614   Zn630   1.938   .     S
O615   Zn628   1.934   .     S
O616   Zn630   1.941   .     S
O617   Zn629   1.937   .     S
O618   Zn627   1.931   .     S
O619   Zn627   1.927   .     S
O620   Zn630   1.929   .     S
O621   Zn628   1.939   .     S
O622   Zn629   1.947   .     S
O623   Zn630   1.944   .     S
O624   Zn627   1.938   .     S
O625   Zn628   1.932   .     S
O626   Zn629   1.928   .     S
C631   C641    1.432   .     S
C631   O684    1.268   .     A
C631   O686    1.268   .     A
C632   H664    1.079   .     S
C632   C633    1.386   .     A
C632   C657    1.412   .     A
C633   H674    1.084   .     S
C633   C68     1.391   1_556 S
C634   O685    1.290   .     A
C634   C640    1.458   .     S
C634   O687    1.268   .     A
C635   C636    1.421   .     A
C635   C637    1.403   .     A
C636   C639    1.408   .     A
C636   C658    1.424   .     A
C637   C638    1.391   .     A
C637   H668    1.084   .     S
C638   H673    1.083   .     S
C638   C650    1.395   .     A
C639   C650    1.392   .     A
C639   H672    1.079   .     S
C640   C704    1.353   .     S
C640   H732    1.088   .     S
C642   H662    1.083   .     S
C642   C651    1.390   .     A
C642   C649    1.401   .     A
C643   C646    1.451   .     S
C643   C833    1.331   .     S
C643   H859    1.088   .     S
C644   C645    1.435   .     S
C644   C1021   1.331   1_545 S
C644   H1049   1.086   1_545 S
C645   O682    1.279   .     A
C645   O688    1.278   .     A
C646   O683    1.275   .     A
C646   O689    1.275   .     A
C647   O680    1.275   .     A
C647   O678    1.277   .     A
C647   C650    1.450   .     S
C648   O681    1.284   .     A
C648   O679    1.281   .     A
C648   C649    1.471   .     S
C649   C653    1.407   .     A
C651   C656    1.400   .     A
C651   H675    1.084   .     S
C652   H666    1.110   .     S
C652   H667    1.110   .     S
C652   C704    1.514   .     S
C652   H728    1.112   .     S
C653   C654    1.452   .     S
C653   C655    1.419   .     A
C654   N676    1.158   .     T
C655   C657    1.425   .     A
C655   C656    1.419   .     A
C656   C93     1.393   1_556 S
C657   C91     1.422   1_556 S
C658   C659    1.413   .     A
C659   C660    1.388   .     A
C659   H663    1.077   .     S
C660   H661    1.084   .     S
H670   C1021   1.088   1_545 S
H671   C833    1.086   .     S
O677   Zn691   1.947   .     S
O677   Zn690   1.958   .     S
O677   Zn692   1.941   .     S
O677   Zn693   1.938   .     S
O678   Zn691   1.934   .     S
O679   Zn693   1.941   .     S
O680   Zn692   1.937   .     S
O681   Zn690   1.931   .     S
O682   Zn690   1.927   .     S
O683   Zn693   1.929   .     S
O684   Zn691   1.939   .     S
O685   Zn692   1.947   .     S
O686   Zn693   1.944   .     S
O687   Zn690   1.938   .     S
O688   Zn691   1.932   .     S
O689   Zn692   1.928   .     S
C694   C704    1.432   .     S
C694   O747    1.268   .     A
C694   O749    1.268   .     A
C695   H727    1.079   .     S
C695   C696    1.386   .     A
C695   C720    1.412   .     A
C696   H737    1.084   .     S
C696   C131    1.391   1_556 S
C697   O748    1.290   .     A
C697   C703    1.458   .     S
C697   O750    1.268   .     A
C698   C699    1.421   .     A
C698   C700    1.403   .     A
C699   C702    1.408   .     A
C699   C721    1.424   .     A
C700   C701    1.391   .     A
C700   H731    1.084   .     S
C701   H736    1.083   .     S
C701   C713    1.395   .     A
C702   C713    1.392   .     A
C702   H735    1.079   .     S
C703   C578    1.353   1_655 S
C703   H606    1.088   1_655 S
C705   H725    1.083   .     S
C705   C714    1.390   .     A
C705   C712    1.401   .     A
C706   C709    1.451   .     S
C706   C896    1.331   .     S
C706   H922    1.088   .     S
C707   C708    1.435   .     S
C707   C1084   1.331   1_545 S
C707   H1112   1.086   1_545 S
C708   O745    1.279   .     A
C708   O751    1.278   .     A
C709   O746    1.275   .     A
C709   O752    1.275   .     A
C710   O743    1.275   .     A
C710   O741    1.277   .     A
C710   C713    1.450   .     S
C711   O744    1.284   .     A
C711   O742    1.281   .     A
C711   C712    1.471   .     S
C712   C716    1.407   .     A
C714   C719    1.400   .     A
C714   H738    1.084   .     S
C715   H729    1.110   .     S
C715   H730    1.110   .     S
C715   C578    1.514   1_655 S
C715   H602    1.112   1_655 S
C716   C717    1.452   .     S
C716   C718    1.419   .     A
C717   N739    1.158   .     T
C718   C720    1.425   .     A
C718   C719    1.419   .     A
C719   C156    1.393   1_556 S
C720   C154    1.422   1_556 S
C721   C722    1.413   .     A
C722   C723    1.388   .     A
C722   H726    1.077   .     S
C723   H724    1.084   .     S
H733   C1084   1.088   1_545 S
H734   C896    1.086   .     S
O740   Zn754   1.947   .     S
O740   Zn753   1.958   .     S
O740   Zn755   1.941   .     S
O740   Zn756   1.938   .     S
O741   Zn754   1.934   .     S
O742   Zn756   1.941   .     S
O743   Zn755   1.937   .     S
O744   Zn753   1.931   .     S
O745   Zn753   1.927   .     S
O746   Zn756   1.929   .     S
O747   Zn754   1.939   .     S
O748   Zn755   1.947   .     S
O749   Zn756   1.944   .     S
O750   Zn753   1.938   .     S
O751   Zn754   1.932   .     S
O752   Zn755   1.928   .     S
C757   C767    1.432   .     S
C757   O810    1.268   .     A
C757   O812    1.268   .     A
C758   H790    1.079   .     S
C758   C759    1.386   .     A
C758   C783    1.412   .     A
C759   H800    1.084   .     S
C759   C194    1.391   1_556 S
C760   O811    1.290   .     A
C760   C766    1.458   .     S
C760   O813    1.268   .     A
C761   C762    1.421   .     A
C761   C763    1.403   .     A
C762   C765    1.408   .     A
C762   C784    1.424   .     A
C763   C764    1.391   .     A
C763   H794    1.084   .     S
C764   H799    1.083   .     S
C764   C776    1.395   .     A
C765   C776    1.392   .     A
C765   H798    1.079   .     S
C766   C830    1.353   .     S
C766   H858    1.088   .     S
C767   C892    1.353   1_455 S
C767   C904    1.514   1_455 S
C768   H788    1.083   .     S
C768   C777    1.390   .     A
C768   C775    1.401   .     A
C769   C772    1.451   .     S
C769   C959    1.331   .     S
C769   H985    1.088   .     S
C770   C771    1.435   .     S
C771   O808    1.279   .     A
C771   O814    1.278   .     A
C772   O809    1.275   .     A
C772   O815    1.275   .     A
C773   O806    1.275   .     A
C773   O804    1.277   .     A
C773   C776    1.450   .     S
C774   O807    1.284   .     A
C774   O805    1.281   .     A
C774   C775    1.471   .     S
C775   C779    1.407   .     A
C777   C782    1.400   .     A
C777   H801    1.084   .     S
C778   H792    1.110   .     S
C778   H793    1.110   .     S
C778   C830    1.514   .     S
C778   H854    1.112   .     S
C779   C780    1.452   .     S
C779   C781    1.419   .     A
C780   N802    1.158   .     T
C781   C783    1.425   .     A
C781   C782    1.419   .     A
C782   C219    1.393   1_556 S
C783   C217    1.422   1_556 S
C784   C785    1.413   .     A
C785   C786    1.388   .     A
C785   H789    1.077   .     S
C786   H787    1.084   .     S
H791   C904    1.112   1_455 S
H795   C892    1.088   1_455 S
H797   C959    1.086   .     S
O803   Zn817   1.947   .     S
O803   Zn816   1.958   .     S
O803   Zn818   1.941   .     S
O803   Zn819   1.938   .     S
O804   Zn817   1.934   .     S
O805   Zn819   1.941   .     S
O806   Zn818   1.937   .     S
O807   Zn816   1.931   .     S
O808   Zn816   1.927   .     S
O809   Zn819   1.929   .     S
O810   Zn817   1.939   .     S
O811   Zn818   1.947   .     S
O812   Zn819   1.944   .     S
O813   Zn816   1.938   .     S
O814   Zn817   1.932   .     S
O815   Zn818   1.928   .     S
C820   C830    1.432   .     S
C820   O873    1.268   .     A
C820   O875    1.268   .     A
C821   H853    1.079   .     S
C821   C822    1.386   .     A
C821   C846    1.412   .     A
C822   H863    1.084   .     S
C822   C257    1.391   1_556 S
C823   O874    1.290   .     A
C823   C829    1.458   .     S
C823   O876    1.268   .     A
C824   C825    1.421   .     A
C824   C826    1.403   .     A
C825   C828    1.408   .     A
C825   C847    1.424   .     A
C826   C827    1.391   .     A
C826   H857    1.084   .     S
C827   H862    1.083   .     S
C827   C839    1.395   .     A
C828   C839    1.392   .     A
C828   H861    1.079   .     S
C829   C893    1.353   .     S
C829   H921    1.088   .     S
C831   H851    1.083   .     S
C831   C840    1.390   .     A
C831   C838    1.401   .     A
C832   C835    1.451   .     S
C832   C1022   1.331   .     S
C832   H1048   1.088   .     S
C833   C834    1.435   .     S
C834   O871    1.279   .     A
C834   O877    1.278   .     A
C835   O872    1.275   .     A
C835   O878    1.275   .     A
C836   O869    1.275   .     A
C836   O867    1.277   .     A
C836   C839    1.450   .     S
C837   O870    1.284   .     A
C837   O868    1.281   .     A
C837   C838    1.471   .     S
C838   C842    1.407   .     A
C840   C845    1.400   .     A
C840   H864    1.084   .     S
C841   H855    1.110   .     S
C841   H856    1.110   .     S
C841   C893    1.514   .     S
C841   H917    1.112   .     S
C842   C843    1.452   .     S
C842   C844    1.419   .     A
C843   N865    1.158   .     T
C844   C846    1.425   .     A
C844   C845    1.419   .     A
C845   C282    1.393   1_556 S
C846   C280    1.422   1_556 S
C847   C848    1.413   .     A
C848   C849    1.388   .     A
C848   H852    1.077   .     S
C849   H850    1.084   .     S
H860   C1022   1.086   .     S
O866   Zn880   1.947   .     S
O866   Zn879   1.958   .     S
O866   Zn881   1.941   .     S
O866   Zn882   1.938   .     S
O867   Zn880   1.934   .     S
O868   Zn882   1.941   .     S
O869   Zn881   1.937   .     S
O870   Zn879   1.931   .     S
O871   Zn879   1.927   .     S
O872   Zn882   1.929   .     S
O873   Zn880   1.939   .     S
O874   Zn881   1.947   .     S
O875   Zn882   1.944   .     S
O876   Zn879   1.938   .     S
O877   Zn880   1.932   .     S
O878   Zn881   1.928   .     S
C883   C893    1.432   .     S
C883   O936    1.268   .     A
C883   O938    1.268   .     A
C884   H916    1.079   .     S
C884   C885    1.386   .     A
C884   C909    1.412   .     A
C885   H926    1.084   .     S
C885   C320    1.391   1_556 S
C886   O937    1.290   .     A
C886   C892    1.458   .     S
C886   O939    1.268   .     A
C887   C888    1.421   .     A
C887   C889    1.403   .     A
C888   C891    1.408   .     A
C888   C910    1.424   .     A
C889   C890    1.391   .     A
C889   H920    1.084   .     S
C890   H925    1.083   .     S
C890   C902    1.395   .     A
C891   C902    1.392   .     A
C891   H924    1.079   .     S
C892   C767    1.353   1_655 S
C892   H795    1.088   1_655 S
C894   H914    1.083   .     S
C894   C903    1.390   .     A
C894   C901    1.401   .     A
C895   C898    1.451   .     S
C895   C1085   1.331   .     S
C895   H1111   1.088   .     S
C896   C897    1.435   .     S
C897   O934    1.279   .     A
C897   O940    1.278   .     A
C898   O935    1.275   .     A
C898   O941    1.275   .     A
C899   O932    1.275   .     A
C899   O930    1.277   .     A
C899   C902    1.450   .     S
C900   O933    1.284   .     A
C900   O931    1.281   .     A
C900   C901    1.471   .     S
C901   C905    1.407   .     A
C903   C908    1.400   .     A
C903   H927    1.084   .     S
C904   H918    1.110   .     S
C904   H919    1.110   .     S
C904   C767    1.514   1_655 S
C904   H791    1.112   1_655 S
C905   C906    1.452   .     S
C905   C907    1.419   .     A
C906   N928    1.158   .     T
C907   C909    1.425   .     A
C907   C908    1.419   .     A
C908   C345    1.393   1_556 S
C909   C343    1.422   1_556 S
C910   C911    1.413   .     A
C911   C912    1.388   .     A
C911   H915    1.077   .     S
C912   H913    1.084   .     S
H923   C1085   1.086   .     S
O929   Zn943   1.947   .     S
O929   Zn942   1.958   .     S
O929   Zn944   1.941   .     S
O929   Zn945   1.938   .     S
O930   Zn943   1.934   .     S
O931   Zn945   1.941   .     S
O932   Zn944   1.937   .     S
O933   Zn942   1.931   .     S
O934   Zn942   1.927   .     S
O935   Zn945   1.929   .     S
O936   Zn943   1.939   .     S
O937   Zn944   1.947   .     S
O938   Zn945   1.944   .     S
O939   Zn942   1.938   .     S
O940   Zn943   1.932   .     S
O941   Zn944   1.928   .     S
C946   C956    1.432   .     S
C946   O999    1.268   .     A
C946   O1001   1.268   .     A
C947   H979    1.079   .     S
C947   C948    1.386   .     A
C947   C972    1.412   .     A
C948   H989    1.084   .     S
C948   C383    1.391   1_556 S
C949   O1000   1.290   .     A
C949   C955    1.458   .     S
C949   O1002   1.268   .     A
C950   C951    1.421   .     A
C950   C952    1.403   .     A
C951   C954    1.408   .     A
C951   C973    1.424   .     A
C952   C953    1.391   .     A
C952   H983    1.084   .     S
C953   H988    1.083   .     S
C953   C965    1.395   .     A
C954   C965    1.392   .     A
C954   H987    1.079   .     S
C955   C1019   1.353   .     S
C955   H1047   1.088   .     S
C956   C1081   1.353   1_455 S
C956   C1093   1.514   1_455 S
C957   H977    1.083   .     S
C957   C966    1.390   .     A
C957   C964    1.401   .     A
C958   C961    1.451   .     S
C958   C581    1.331   1_565 S
C958   H607    1.088   1_565 S
C959   C960    1.435   .     S
C960   O997    1.279   .     A
C960   O1003   1.278   .     A
C961   O998    1.275   .     A
C961   O1004   1.275   .     A
C962   O995    1.275   .     A
C962   O993    1.277   .     A
C962   C965    1.450   .     S
C963   O996    1.284   .     A
C963   O994    1.281   .     A
C963   C964    1.471   .     S
C964   C968    1.407   .     A
C966   C971    1.400   .     A
C966   H990    1.084   .     S
C967   H981    1.110   .     S
C967   H982    1.110   .     S
C967   C1019   1.514   .     S
C967   H1043   1.112   .     S
C968   C969    1.452   .     S
C968   C970    1.419   .     A
C969   N991    1.158   .     T
C970   C972    1.425   .     A
C970   C971    1.419   .     A
C971   C408    1.393   1_556 S
C972   C406    1.422   1_556 S
C973   C974    1.413   .     A
C974   C975    1.388   .     A
C974   H978    1.077   .     S
C975   H976    1.084   .     S
H980   C1093   1.112   1_455 S
H984   C1081   1.088   1_455 S
H986   C581    1.086   1_565 S
O992   Zn1006  1.947   .     S
O992   Zn1005  1.958   .     S
O992   Zn1007  1.941   .     S
O992   Zn1008  1.938   .     S
O993   Zn1006  1.934   .     S
O994   Zn1008  1.941   .     S
O995   Zn1007  1.937   .     S
O996   Zn1005  1.931   .     S
O997   Zn1005  1.927   .     S
O998   Zn1008  1.929   .     S
O999   Zn1006  1.939   .     S
O1000  Zn1007  1.947   .     S
O1001  Zn1008  1.944   .     S
O1002  Zn1005  1.938   .     S
O1003  Zn1006  1.932   .     S
O1004  Zn1007  1.928   .     S
C1009  C1019   1.432   .     S
C1009  O1062   1.268   .     A
C1009  O1064   1.268   .     A
C1010  H1042   1.079   .     S
C1010  C1011   1.386   .     A
C1010  C1035   1.412   .     A
C1011  H1052   1.084   .     S
C1011  C446    1.391   1_556 S
C1012  O1063   1.290   .     A
C1012  C1018   1.458   .     S
C1012  O1065   1.268   .     A
C1013  C1014   1.421   .     A
C1013  C1015   1.403   .     A
C1014  C1017   1.408   .     A
C1014  C1036   1.424   .     A
C1015  C1016   1.391   .     A
C1015  H1046   1.084   .     S
C1016  H1051   1.083   .     S
C1016  C1028   1.395   .     A
C1017  C1028   1.392   .     A
C1017  H1050   1.079   .     S
C1018  C1082   1.353   .     S
C1018  H1110   1.088   .     S
C1020  H1040   1.083   .     S
C1020  C1029   1.390   .     A
C1020  C1027   1.401   .     A
C1021  C1024   1.451   .     S
C1021  C644    1.331   1_565 S
C1021  H670    1.088   1_565 S
C1022  C1023   1.435   .     S
C1023  O1060   1.279   .     A
C1023  O1066   1.278   .     A
C1024  O1061   1.275   .     A
C1024  O1067   1.275   .     A
C1025  O1058   1.275   .     A
C1025  O1056   1.277   .     A
C1025  C1028   1.450   .     S
C1026  O1059   1.284   .     A
C1026  O1057   1.281   .     A
C1026  C1027   1.471   .     S
C1027  C1031   1.407   .     A
C1029  C1034   1.400   .     A
C1029  H1053   1.084   .     S
C1030  H1044   1.110   .     S
C1030  H1045   1.110   .     S
C1030  C1082   1.514   .     S
C1030  H1106   1.112   .     S
C1031  C1032   1.452   .     S
C1031  C1033   1.419   .     A
C1032  N1054   1.158   .     T
C1033  C1035   1.425   .     A
C1033  C1034   1.419   .     A
C1034  C471    1.393   1_556 S
C1035  C469    1.422   1_556 S
C1036  C1037   1.413   .     A
C1037  C1038   1.388   .     A
C1037  H1041   1.077   .     S
C1038  H1039   1.084   .     S
H1049  C644    1.086   1_565 S
O1055  Zn1069  1.947   .     S
O1055  Zn1068  1.958   .     S
O1055  Zn1070  1.941   .     S
O1055  Zn1071  1.938   .     S
O1056  Zn1069  1.934   .     S
O1057  Zn1071  1.941   .     S
O1058  Zn1070  1.937   .     S
O1059  Zn1068  1.931   .     S
O1060  Zn1068  1.927   .     S
O1061  Zn1071  1.929   .     S
O1062  Zn1069  1.939   .     S
O1063  Zn1070  1.947   .     S
O1064  Zn1071  1.944   .     S
O1065  Zn1068  1.938   .     S
O1066  Zn1069  1.932   .     S
O1067  Zn1070  1.928   .     S
C1072  C1082   1.432   .     S
C1072  O1125   1.268   .     A
C1072  O1127   1.268   .     A
C1073  H1105   1.079   .     S
C1073  C1074   1.386   .     A
C1073  C1098   1.412   .     A
C1074  H1115   1.084   .     S
C1074  C509    1.391   1_556 S
C1075  O1126   1.290   .     A
C1075  C1081   1.458   .     S
C1075  O1128   1.268   .     A
C1076  C1077   1.421   .     A
C1076  C1078   1.403   .     A
C1077  C1080   1.408   .     A
C1077  C1099   1.424   .     A
C1078  C1079   1.391   .     A
C1078  H1109   1.084   .     S
C1079  H1114   1.083   .     S
C1079  C1091   1.395   .     A
C1080  C1091   1.392   .     A
C1080  H1113   1.079   .     S
C1081  C956    1.353   1_655 S
C1081  H984    1.088   1_655 S
C1083  H1103   1.083   .     S
C1083  C1092   1.390   .     A
C1083  C1090   1.401   .     A
C1084  C1087   1.451   .     S
C1084  C707    1.331   1_565 S
C1084  H733    1.088   1_565 S
C1085  C1086   1.435   .     S
C1086  O1123   1.279   .     A
C1086  O1129   1.278   .     A
C1087  O1124   1.275   .     A
C1087  O1130   1.275   .     A
C1088  O1121   1.275   .     A
C1088  O1119   1.277   .     A
C1088  C1091   1.450   .     S
C1089  O1122   1.284   .     A
C1089  O1120   1.281   .     A
C1089  C1090   1.471   .     S
C1090  C1094   1.407   .     A
C1092  C1097   1.400   .     A
C1092  H1116   1.084   .     S
C1093  H1107   1.110   .     S
C1093  H1108   1.110   .     S
C1093  C956    1.514   1_655 S
C1093  H980    1.112   1_655 S
C1094  C1095   1.452   .     S
C1094  C1096   1.419   .     A
C1095  N1117   1.158   .     T
C1096  C1098   1.425   .     A
C1096  C1097   1.419   .     A
C1097  C534    1.393   1_556 S
C1098  C532    1.422   1_556 S
C1099  C1100   1.413   .     A
C1100  C1101   1.388   .     A
C1100  H1104   1.077   .     S
C1101  H1102   1.084   .     S
H1112  C707    1.086   1_565 S
O1118  Zn1132  1.947   .     S
O1118  Zn1131  1.958   .     S
O1118  Zn1133  1.941   .     S
O1118  Zn1134  1.938   .     S
O1119  Zn1132  1.934   .     S
O1120  Zn1134  1.941   .     S
O1121  Zn1133  1.937   .     S
O1122  Zn1131  1.931   .     S
O1123  Zn1131  1.927   .     S
O1124  Zn1134  1.929   .     S
O1125  Zn1132  1.939   .     S
O1126  Zn1133  1.947   .     S
O1127  Zn1134  1.944   .     S
O1128  Zn1131  1.938   .     S
O1129  Zn1132  1.932   .     S
O1130  Zn1133  1.928   .     S
