data_str_m3_o1_o2_pcu_sym.43
_audit_creation_date              2020-01-03
_audit_creation_method            'Materials Studio'
_symmetry_space_group_name_H-M    'P1'
_symmetry_Int_Tables_number       1
_symmetry_cell_setting            triclinic
loop_
_symmetry_equiv_pos_as_xyz
  x,y,z
_cell_length_a                    32.2406
_cell_length_b                    29.7457
_cell_length_c                    30.2279
_cell_angle_alpha                 90.0010
_cell_angle_beta                  92.9776
_cell_angle_gamma                 89.9999
loop_
_atom_site_label
_atom_site_type_symbol
_atom_site_fract_x
_atom_site_fract_y
_atom_site_fract_z
_atom_site_U_iso_or_equiv
_atom_site_adp_type
_atom_site_occupancy
C1     C     0.08673   0.16678   0.25098   0.00000  Uiso   1.00
C2     C     0.31201   0.20828   0.24924   0.00000  Uiso   1.00
C3     C     0.31215   0.12662   0.24756   0.00000  Uiso   1.00
C4     C     0.02132   0.20828   0.25075   0.00000  Uiso   1.00
C5     C     0.16181   0.20519   0.04744   0.00000  Uiso   1.00
C6     C     0.15646   0.12529   0.45172   0.00000  Uiso   1.00
C7     C     0.17154   0.20519   0.45256   0.00000  Uiso   1.00
C8     C     0.17683   0.12528   0.04827   0.00000  Uiso   1.00
C9     C     0.16560   0.20591   0.09289   0.00000  Uiso   1.00
C10    C     0.15645   0.12555   0.40589   0.00000  Uiso   1.00
C11    C     0.16776   0.20591   0.40712   0.00000  Uiso   1.00
C12    C     0.24660   0.16678   0.24902   0.00000  Uiso   1.00
C13    C     0.17685   0.12554   0.09411   0.00000  Uiso   1.00
C14    C     0.17039   0.16595   0.11648   0.00000  Uiso   1.00
C15    C     0.16294   0.16596   0.38352   0.00000  Uiso   1.00
C16    C     0.16787   0.16497   0.02431   0.00000  Uiso   1.00
C17    C     0.16545   0.16497   0.47569   0.00000  Uiso   1.00
C18    C     0.29078   0.16727   0.24804   0.00000  Uiso   1.00
C19    C     0.04255   0.16727   0.25196   0.00000  Uiso   1.00
C20    C     0.25991   0.05093   0.31116   0.00000  Uiso   1.00
C21    C     0.10633   0.28214   0.15289   0.00000  Uiso   1.00
C22    C     0.07342   0.05092   0.18885   0.00000  Uiso   1.00
C23    C     0.16799   0.16653   0.16412   0.00000  Uiso   1.00
C24    C     0.22702   0.28213   0.34710   0.00000  Uiso   1.00
C25    C     0.16534   0.16653   0.33588   0.00000  Uiso   1.00
C26    C     0.19285   0.02415   0.27875   0.00000  Uiso   1.00
C27    C     0.13878   0.30928   0.22314   0.00000  Uiso   1.00
C28    C     0.14049   0.02415   0.22125   0.00000  Uiso   1.00
C29    C     0.19456   0.30928   0.27686   0.00000  Uiso   1.00
C30    C     0.02118   0.12662   0.25245   0.00000  Uiso   1.00
H31    H     0.15367   0.23652   0.03120   0.00000  Uiso   1.00
H32    H     0.29592   0.24019   0.24876   0.00000  Uiso   1.00
H33    H     0.29633   0.09487   0.24386   0.00000  Uiso   1.00
H34    H     0.03741   0.24019   0.25122   0.00000  Uiso   1.00
H35    H     0.20487   0.04318   0.34419   0.00000  Uiso   1.00
H36    H     0.27537   0.03261   0.33931   0.00000  Uiso   1.00
H37    H     0.26947   0.08656   0.31478   0.00000  Uiso   1.00
H38    H     0.27075   0.03683   0.27978   0.00000  Uiso   1.00
H39    H     0.07699   0.29200   0.21200   0.00000  Uiso   1.00
H40    H     0.07938   0.29994   0.13690   0.00000  Uiso   1.00
H41    H     0.10299   0.24633   0.14330   0.00000  Uiso   1.00
H42    H     0.14953   0.09398   0.46790   0.00000  Uiso   1.00
H43    H     0.13522   0.29657   0.14029   0.00000  Uiso   1.00
H44    H     0.12845   0.04318   0.15581   0.00000  Uiso   1.00
H45    H     0.05796   0.03259   0.16072   0.00000  Uiso   1.00
H46    H     0.06386   0.08655   0.18523   0.00000  Uiso   1.00
H47    H     0.06258   0.03683   0.22024   0.00000  Uiso   1.00
H48    H     0.25635   0.29201   0.28798   0.00000  Uiso   1.00
H49    H     0.25399   0.29993   0.36308   0.00000  Uiso   1.00
H50    H     0.23036   0.24632   0.35668   0.00000  Uiso   1.00
H51    H     0.19815   0.29657   0.35971   0.00000  Uiso   1.00
H52    H     0.17969   0.23651   0.46881   0.00000  Uiso   1.00
H53    H     0.18374   0.09396   0.03209   0.00000  Uiso   1.00
H54    H     0.16400   0.23778   0.10934   0.00000  Uiso   1.00
H55    H     0.15100   0.09433   0.38807   0.00000  Uiso   1.00
H56    H     0.16937   0.23778   0.39066   0.00000  Uiso   1.00
H57    H     0.18228   0.09431   0.11192   0.00000  Uiso   1.00
H58    H     0.03701   0.09487   0.25616   0.00000  Uiso   1.00
N59    N     0.16667   0.28573   0.25000   0.00000  Uiso   1.00
N60    N     0.16667   0.04760   0.25000   0.00000  Uiso   1.00
N61    N     0.21524   0.04823   0.31290   0.00000  Uiso   1.00
N62    N     0.10589   0.28540   0.20056   0.00000  Uiso   1.00
N63    N     0.11808   0.04822   0.18711   0.00000  Uiso   1.00
N64    N     0.22745   0.28540   0.29943   0.00000  Uiso   1.00
O65    O     0.10559   0.20487   0.25000   0.00000  Uiso   1.00
O66    O     0.22774   0.12846   0.25001   0.00000  Uiso   1.00
O67    O     0.22774   0.20487   0.25001   0.00000  Uiso   1.00
O68    O     0.10559   0.12846   0.25000   0.00000  Uiso   1.00
O69    O     0.16666   0.20489   0.18453   0.00000  Uiso   1.00
O70    O     0.16667   0.12845   0.31547   0.00000  Uiso   1.00
O71    O     0.16667   0.20489   0.31547   0.00000  Uiso   1.00
O72    O     0.16666   0.12845   0.18453   0.00000  Uiso   1.00
Zn73   Zn    0.16667   0.21771   0.25000   0.00000  Uiso   1.00
Zn74   Zn    0.16667   0.11563   0.25000   0.00000  Uiso   1.00
C75    C     0.42006   0.16678   0.25098   0.00000  Uiso   1.00
C76    C     0.64535   0.20828   0.24924   0.00000  Uiso   1.00
C77    C     0.64548   0.12662   0.24756   0.00000  Uiso   1.00
C78    C     0.35465   0.20828   0.25075   0.00000  Uiso   1.00
C79    C     0.49514   0.20519   0.04744   0.00000  Uiso   1.00
C80    C     0.48980   0.12529   0.45172   0.00000  Uiso   1.00
C81    C     0.50487   0.20519   0.45256   0.00000  Uiso   1.00
C82    C     0.51016   0.12528   0.04827   0.00000  Uiso   1.00
C83    C     0.49893   0.20591   0.09289   0.00000  Uiso   1.00
C84    C     0.48978   0.12555   0.40589   0.00000  Uiso   1.00
C85    C     0.50109   0.20591   0.40712   0.00000  Uiso   1.00
C86    C     0.57993   0.16678   0.24902   0.00000  Uiso   1.00
C87    C     0.51018   0.12554   0.09411   0.00000  Uiso   1.00
C88    C     0.50373   0.16595   0.11648   0.00000  Uiso   1.00
C89    C     0.49627   0.16596   0.38352   0.00000  Uiso   1.00
C90    C     0.50120   0.16497   0.02431   0.00000  Uiso   1.00
C91    C     0.49878   0.16497   0.47569   0.00000  Uiso   1.00
C92    C     0.62411   0.16727   0.24804   0.00000  Uiso   1.00
C93    C     0.37589   0.16727   0.25196   0.00000  Uiso   1.00
C94    C     0.59324   0.05093   0.31116   0.00000  Uiso   1.00
C95    C     0.43967   0.28214   0.15289   0.00000  Uiso   1.00
C96    C     0.40675   0.05092   0.18885   0.00000  Uiso   1.00
C97    C     0.50132   0.16653   0.16412   0.00000  Uiso   1.00
C98    C     0.56035   0.28213   0.34710   0.00000  Uiso   1.00
C99    C     0.49868   0.16653   0.33588   0.00000  Uiso   1.00
C100   C     0.52618   0.02415   0.27875   0.00000  Uiso   1.00
C101   C     0.47211   0.30928   0.22314   0.00000  Uiso   1.00
C102   C     0.47382   0.02415   0.22125   0.00000  Uiso   1.00
C103   C     0.52789   0.30928   0.27686   0.00000  Uiso   1.00
C104   C     0.35452   0.12662   0.25245   0.00000  Uiso   1.00
H105   H     0.48701   0.23652   0.03120   0.00000  Uiso   1.00
H106   H     0.62926   0.24019   0.24876   0.00000  Uiso   1.00
H107   H     0.62966   0.09487   0.24386   0.00000  Uiso   1.00
H108   H     0.37074   0.24019   0.25122   0.00000  Uiso   1.00
H109   H     0.53820   0.04318   0.34419   0.00000  Uiso   1.00
H110   H     0.60870   0.03261   0.33931   0.00000  Uiso   1.00
H111   H     0.60280   0.08656   0.31478   0.00000  Uiso   1.00
H112   H     0.60408   0.03683   0.27978   0.00000  Uiso   1.00
H113   H     0.41032   0.29200   0.21200   0.00000  Uiso   1.00
H114   H     0.41271   0.29994   0.13690   0.00000  Uiso   1.00
H115   H     0.43633   0.24633   0.14330   0.00000  Uiso   1.00
H116   H     0.48287   0.09398   0.46790   0.00000  Uiso   1.00
H117   H     0.46855   0.29657   0.14029   0.00000  Uiso   1.00
H118   H     0.46178   0.04318   0.15581   0.00000  Uiso   1.00
H119   H     0.39129   0.03259   0.16072   0.00000  Uiso   1.00
H120   H     0.39719   0.08655   0.18523   0.00000  Uiso   1.00
H121   H     0.39592   0.03683   0.22024   0.00000  Uiso   1.00
H122   H     0.58968   0.29201   0.28798   0.00000  Uiso   1.00
H123   H     0.58732   0.29993   0.36308   0.00000  Uiso   1.00
H124   H     0.56369   0.24632   0.35668   0.00000  Uiso   1.00
H125   H     0.53148   0.29657   0.35971   0.00000  Uiso   1.00
H126   H     0.51302   0.23651   0.46881   0.00000  Uiso   1.00
H127   H     0.51707   0.09396   0.03209   0.00000  Uiso   1.00
H128   H     0.49734   0.23778   0.10934   0.00000  Uiso   1.00
H129   H     0.48433   0.09433   0.38807   0.00000  Uiso   1.00
H130   H     0.50271   0.23778   0.39066   0.00000  Uiso   1.00
H131   H     0.51562   0.09431   0.11192   0.00000  Uiso   1.00
H132   H     0.37034   0.09487   0.25616   0.00000  Uiso   1.00
N133   N     0.50000   0.28573   0.25000   0.00000  Uiso   1.00
N134   N     0.50000   0.04760   0.25000   0.00000  Uiso   1.00
N135   N     0.54858   0.04823   0.31290   0.00000  Uiso   1.00
N136   N     0.43923   0.28540   0.20056   0.00000  Uiso   1.00
N137   N     0.45142   0.04822   0.18711   0.00000  Uiso   1.00
N138   N     0.56078   0.28540   0.29943   0.00000  Uiso   1.00
O139   O     0.43892   0.20487   0.25000   0.00000  Uiso   1.00
O140   O     0.56108   0.12846   0.25001   0.00000  Uiso   1.00
O141   O     0.56108   0.20487   0.25001   0.00000  Uiso   1.00
O142   O     0.43892   0.12846   0.25000   0.00000  Uiso   1.00
O143   O     0.50000   0.20489   0.18453   0.00000  Uiso   1.00
O144   O     0.50000   0.12845   0.31547   0.00000  Uiso   1.00
O145   O     0.50000   0.20489   0.31547   0.00000  Uiso   1.00
O146   O     0.50000   0.12845   0.18453   0.00000  Uiso   1.00
Zn147  Zn    0.50000   0.21771   0.25000   0.00000  Uiso   1.00
Zn148  Zn    0.50000   0.11563   0.25000   0.00000  Uiso   1.00
C149   C     0.75340   0.16678   0.25098   0.00000  Uiso   1.00
C150   C     0.97868   0.20828   0.24924   0.00000  Uiso   1.00
C151   C     0.97882   0.12662   0.24756   0.00000  Uiso   1.00
C152   C     0.68798   0.20828   0.25075   0.00000  Uiso   1.00
C153   C     0.82848   0.20519   0.04744   0.00000  Uiso   1.00
C154   C     0.82313   0.12529   0.45172   0.00000  Uiso   1.00
C155   C     0.83820   0.20519   0.45256   0.00000  Uiso   1.00
C156   C     0.84350   0.12528   0.04827   0.00000  Uiso   1.00
C157   C     0.83226   0.20591   0.09289   0.00000  Uiso   1.00
C158   C     0.82312   0.12555   0.40589   0.00000  Uiso   1.00
C159   C     0.83442   0.20591   0.40712   0.00000  Uiso   1.00
C160   C     0.91327   0.16678   0.24902   0.00000  Uiso   1.00
C161   C     0.84352   0.12554   0.09411   0.00000  Uiso   1.00
C162   C     0.83706   0.16595   0.11648   0.00000  Uiso   1.00
C163   C     0.82960   0.16596   0.38352   0.00000  Uiso   1.00
C164   C     0.83454   0.16497   0.02431   0.00000  Uiso   1.00
C165   C     0.83211   0.16497   0.47569   0.00000  Uiso   1.00
C166   C     0.95745   0.16727   0.24804   0.00000  Uiso   1.00
C167   C     0.70922   0.16727   0.25196   0.00000  Uiso   1.00
C168   C     0.92658   0.05093   0.31116   0.00000  Uiso   1.00
C169   C     0.77300   0.28214   0.15289   0.00000  Uiso   1.00
C170   C     0.74008   0.05092   0.18885   0.00000  Uiso   1.00
C171   C     0.83465   0.16653   0.16412   0.00000  Uiso   1.00
C172   C     0.89369   0.28213   0.34710   0.00000  Uiso   1.00
C173   C     0.83201   0.16653   0.33588   0.00000  Uiso   1.00
C174   C     0.85951   0.02415   0.27875   0.00000  Uiso   1.00
C175   C     0.80545   0.30928   0.22314   0.00000  Uiso   1.00
C176   C     0.80715   0.02415   0.22125   0.00000  Uiso   1.00
C177   C     0.86122   0.30928   0.27686   0.00000  Uiso   1.00
C178   C     0.68785   0.12662   0.25245   0.00000  Uiso   1.00
H179   H     0.82034   0.23652   0.03120   0.00000  Uiso   1.00
H180   H     0.96259   0.24019   0.24876   0.00000  Uiso   1.00
H181   H     0.96299   0.09487   0.24386   0.00000  Uiso   1.00
H182   H     0.70408   0.24019   0.25122   0.00000  Uiso   1.00
H183   H     0.87154   0.04318   0.34419   0.00000  Uiso   1.00
H184   H     0.94203   0.03261   0.33931   0.00000  Uiso   1.00
H185   H     0.93613   0.08656   0.31478   0.00000  Uiso   1.00
H186   H     0.93742   0.03683   0.27978   0.00000  Uiso   1.00
H187   H     0.74366   0.29200   0.21200   0.00000  Uiso   1.00
H188   H     0.74604   0.29994   0.13690   0.00000  Uiso   1.00
H189   H     0.76966   0.24633   0.14330   0.00000  Uiso   1.00
H190   H     0.81620   0.09398   0.46790   0.00000  Uiso   1.00
H191   H     0.80188   0.29657   0.14029   0.00000  Uiso   1.00
H192   H     0.79512   0.04318   0.15581   0.00000  Uiso   1.00
H193   H     0.72463   0.03259   0.16072   0.00000  Uiso   1.00
H194   H     0.73052   0.08655   0.18523   0.00000  Uiso   1.00
H195   H     0.72925   0.03683   0.22024   0.00000  Uiso   1.00
H196   H     0.92302   0.29201   0.28798   0.00000  Uiso   1.00
H197   H     0.92065   0.29993   0.36308   0.00000  Uiso   1.00
H198   H     0.89703   0.24632   0.35668   0.00000  Uiso   1.00
H199   H     0.86481   0.29657   0.35971   0.00000  Uiso   1.00
H200   H     0.84636   0.23651   0.46881   0.00000  Uiso   1.00
H201   H     0.85040   0.09396   0.03209   0.00000  Uiso   1.00
H202   H     0.83067   0.23778   0.10934   0.00000  Uiso   1.00
H203   H     0.81766   0.09433   0.38807   0.00000  Uiso   1.00
H204   H     0.83604   0.23778   0.39066   0.00000  Uiso   1.00
H205   H     0.84895   0.09431   0.11192   0.00000  Uiso   1.00
H206   H     0.70368   0.09487   0.25616   0.00000  Uiso   1.00
N207   N     0.83333   0.28573   0.25000   0.00000  Uiso   1.00
N208   N     0.83333   0.04760   0.25000   0.00000  Uiso   1.00
N209   N     0.88191   0.04823   0.31290   0.00000  Uiso   1.00
N210   N     0.77256   0.28540   0.20056   0.00000  Uiso   1.00
N211   N     0.78475   0.04822   0.18711   0.00000  Uiso   1.00
N212   N     0.89411   0.28540   0.29943   0.00000  Uiso   1.00
O213   O     0.77226   0.20487   0.25000   0.00000  Uiso   1.00
O214   O     0.89441   0.12846   0.25001   0.00000  Uiso   1.00
O215   O     0.89441   0.20487   0.25001   0.00000  Uiso   1.00
O216   O     0.77226   0.12846   0.25000   0.00000  Uiso   1.00
O217   O     0.83333   0.20489   0.18453   0.00000  Uiso   1.00
O218   O     0.83334   0.12845   0.31547   0.00000  Uiso   1.00
O219   O     0.83334   0.20489   0.31547   0.00000  Uiso   1.00
O220   O     0.83333   0.12845   0.18453   0.00000  Uiso   1.00
Zn221  Zn    0.83333   0.21771   0.25000   0.00000  Uiso   1.00
Zn222  Zn    0.83333   0.11563   0.25000   0.00000  Uiso   1.00
C223   C     0.08673   0.50011   0.25098   0.00000  Uiso   1.00
C224   C     0.31201   0.54162   0.24924   0.00000  Uiso   1.00
C225   C     0.31215   0.45995   0.24756   0.00000  Uiso   1.00
C226   C     0.02132   0.54162   0.25075   0.00000  Uiso   1.00
C227   C     0.16181   0.53853   0.04744   0.00000  Uiso   1.00
C228   C     0.15646   0.45862   0.45172   0.00000  Uiso   1.00
C229   C     0.17154   0.53852   0.45256   0.00000  Uiso   1.00
C230   C     0.17683   0.45861   0.04827   0.00000  Uiso   1.00
C231   C     0.16560   0.53924   0.09289   0.00000  Uiso   1.00
C232   C     0.15645   0.45888   0.40589   0.00000  Uiso   1.00
C233   C     0.16776   0.53924   0.40712   0.00000  Uiso   1.00
C234   C     0.24660   0.50011   0.24902   0.00000  Uiso   1.00
C235   C     0.17685   0.45887   0.09411   0.00000  Uiso   1.00
C236   C     0.17039   0.49929   0.11648   0.00000  Uiso   1.00
C237   C     0.16294   0.49929   0.38352   0.00000  Uiso   1.00
C238   C     0.16787   0.49830   0.02431   0.00000  Uiso   1.00
C239   C     0.16545   0.49830   0.47569   0.00000  Uiso   1.00
C240   C     0.29078   0.50060   0.24804   0.00000  Uiso   1.00
C241   C     0.04255   0.50060   0.25196   0.00000  Uiso   1.00
C242   C     0.25991   0.38427   0.31116   0.00000  Uiso   1.00
C243   C     0.10633   0.61547   0.15289   0.00000  Uiso   1.00
C244   C     0.07342   0.38426   0.18885   0.00000  Uiso   1.00
C245   C     0.16799   0.49986   0.16412   0.00000  Uiso   1.00
C246   C     0.22702   0.61547   0.34710   0.00000  Uiso   1.00
C247   C     0.16534   0.49986   0.33588   0.00000  Uiso   1.00
C248   C     0.19285   0.35748   0.27875   0.00000  Uiso   1.00
C249   C     0.13878   0.64262   0.22314   0.00000  Uiso   1.00
C250   C     0.14049   0.35748   0.22125   0.00000  Uiso   1.00
C251   C     0.19456   0.64262   0.27686   0.00000  Uiso   1.00
C252   C     0.02118   0.45995   0.25245   0.00000  Uiso   1.00
H253   H     0.15367   0.56985   0.03120   0.00000  Uiso   1.00
H254   H     0.29592   0.57352   0.24876   0.00000  Uiso   1.00
H255   H     0.29633   0.42820   0.24386   0.00000  Uiso   1.00
H256   H     0.03741   0.57352   0.25122   0.00000  Uiso   1.00
H257   H     0.20487   0.37652   0.34419   0.00000  Uiso   1.00
H258   H     0.27537   0.36594   0.33931   0.00000  Uiso   1.00
H259   H     0.26947   0.41989   0.31478   0.00000  Uiso   1.00
H260   H     0.27075   0.37016   0.27978   0.00000  Uiso   1.00
H261   H     0.07699   0.62534   0.21200   0.00000  Uiso   1.00
H262   H     0.07938   0.63328   0.13690   0.00000  Uiso   1.00
H263   H     0.10299   0.57966   0.14330   0.00000  Uiso   1.00
H264   H     0.14953   0.42731   0.46790   0.00000  Uiso   1.00
H265   H     0.13522   0.62990   0.14029   0.00000  Uiso   1.00
H266   H     0.12845   0.37652   0.15581   0.00000  Uiso   1.00
H267   H     0.05796   0.36593   0.16072   0.00000  Uiso   1.00
H268   H     0.06386   0.41988   0.18523   0.00000  Uiso   1.00
H269   H     0.06258   0.37016   0.22024   0.00000  Uiso   1.00
H270   H     0.25635   0.62534   0.28798   0.00000  Uiso   1.00
H271   H     0.25399   0.63326   0.36308   0.00000  Uiso   1.00
H272   H     0.23036   0.57966   0.35668   0.00000  Uiso   1.00
H273   H     0.19815   0.62990   0.35971   0.00000  Uiso   1.00
H274   H     0.17969   0.56984   0.46881   0.00000  Uiso   1.00
H275   H     0.18374   0.42730   0.03209   0.00000  Uiso   1.00
H276   H     0.16400   0.57112   0.10934   0.00000  Uiso   1.00
H277   H     0.15100   0.42766   0.38807   0.00000  Uiso   1.00
H278   H     0.16937   0.57111   0.39066   0.00000  Uiso   1.00
H279   H     0.18228   0.42765   0.11192   0.00000  Uiso   1.00
H280   H     0.03701   0.42820   0.25616   0.00000  Uiso   1.00
N281   N     0.16667   0.61907   0.25000   0.00000  Uiso   1.00
N282   N     0.16667   0.38093   0.25000   0.00000  Uiso   1.00
N283   N     0.21524   0.38156   0.31290   0.00000  Uiso   1.00
N284   N     0.10589   0.61873   0.20056   0.00000  Uiso   1.00
N285   N     0.11808   0.38156   0.18711   0.00000  Uiso   1.00
N286   N     0.22745   0.61874   0.29943   0.00000  Uiso   1.00
O287   O     0.10559   0.53821   0.25000   0.00000  Uiso   1.00
O288   O     0.22774   0.46179   0.25001   0.00000  Uiso   1.00
O289   O     0.22774   0.53821   0.25001   0.00000  Uiso   1.00
O290   O     0.10559   0.46179   0.25000   0.00000  Uiso   1.00
O291   O     0.16666   0.53822   0.18453   0.00000  Uiso   1.00
O292   O     0.16667   0.46178   0.31547   0.00000  Uiso   1.00
O293   O     0.16667   0.53822   0.31547   0.00000  Uiso   1.00
O294   O     0.16666   0.46178   0.18453   0.00000  Uiso   1.00
Zn295  Zn    0.16667   0.55104   0.25000   0.00000  Uiso   1.00
Zn296  Zn    0.16667   0.44896   0.25000   0.00000  Uiso   1.00
C297   C     0.42006   0.50011   0.25098   0.00000  Uiso   1.00
C298   C     0.64535   0.54162   0.24924   0.00000  Uiso   1.00
C299   C     0.64548   0.45995   0.24756   0.00000  Uiso   1.00
C300   C     0.35465   0.54162   0.25075   0.00000  Uiso   1.00
C301   C     0.49514   0.53853   0.04744   0.00000  Uiso   1.00
C302   C     0.48980   0.45862   0.45172   0.00000  Uiso   1.00
C303   C     0.50487   0.53852   0.45256   0.00000  Uiso   1.00
C304   C     0.51016   0.45861   0.04827   0.00000  Uiso   1.00
C305   C     0.49893   0.53924   0.09289   0.00000  Uiso   1.00
C306   C     0.48978   0.45888   0.40589   0.00000  Uiso   1.00
C307   C     0.50109   0.53924   0.40712   0.00000  Uiso   1.00
C308   C     0.57993   0.50011   0.24902   0.00000  Uiso   1.00
C309   C     0.51018   0.45887   0.09411   0.00000  Uiso   1.00
C310   C     0.50373   0.49929   0.11648   0.00000  Uiso   1.00
C311   C     0.49627   0.49929   0.38352   0.00000  Uiso   1.00
C312   C     0.50120   0.49830   0.02431   0.00000  Uiso   1.00
C313   C     0.49878   0.49830   0.47569   0.00000  Uiso   1.00
C314   C     0.62411   0.50060   0.24804   0.00000  Uiso   1.00
C315   C     0.37589   0.50060   0.25196   0.00000  Uiso   1.00
C316   C     0.59324   0.38427   0.31116   0.00000  Uiso   1.00
C317   C     0.43967   0.61547   0.15289   0.00000  Uiso   1.00
C318   C     0.40675   0.38426   0.18885   0.00000  Uiso   1.00
C319   C     0.50132   0.49986   0.16412   0.00000  Uiso   1.00
C320   C     0.56035   0.61547   0.34710   0.00000  Uiso   1.00
C321   C     0.49868   0.49986   0.33588   0.00000  Uiso   1.00
C322   C     0.52618   0.35748   0.27875   0.00000  Uiso   1.00
C323   C     0.47211   0.64262   0.22314   0.00000  Uiso   1.00
C324   C     0.47382   0.35748   0.22125   0.00000  Uiso   1.00
C325   C     0.52789   0.64262   0.27686   0.00000  Uiso   1.00
C326   C     0.35452   0.45995   0.25245   0.00000  Uiso   1.00
H327   H     0.48701   0.56985   0.03120   0.00000  Uiso   1.00
H328   H     0.62926   0.57352   0.24876   0.00000  Uiso   1.00
H329   H     0.62966   0.42820   0.24386   0.00000  Uiso   1.00
H330   H     0.37074   0.57352   0.25122   0.00000  Uiso   1.00
H331   H     0.53820   0.37652   0.34419   0.00000  Uiso   1.00
H332   H     0.60870   0.36594   0.33931   0.00000  Uiso   1.00
H333   H     0.60280   0.41989   0.31478   0.00000  Uiso   1.00
H334   H     0.60408   0.37016   0.27978   0.00000  Uiso   1.00
H335   H     0.41032   0.62534   0.21200   0.00000  Uiso   1.00
H336   H     0.41271   0.63328   0.13690   0.00000  Uiso   1.00
H337   H     0.43633   0.57966   0.14330   0.00000  Uiso   1.00
H338   H     0.48287   0.42731   0.46790   0.00000  Uiso   1.00
H339   H     0.46855   0.62990   0.14029   0.00000  Uiso   1.00
H340   H     0.46178   0.37652   0.15581   0.00000  Uiso   1.00
H341   H     0.39129   0.36593   0.16072   0.00000  Uiso   1.00
H342   H     0.39719   0.41988   0.18523   0.00000  Uiso   1.00
H343   H     0.39592   0.37016   0.22024   0.00000  Uiso   1.00
H344   H     0.58968   0.62534   0.28798   0.00000  Uiso   1.00
H345   H     0.58732   0.63326   0.36308   0.00000  Uiso   1.00
H346   H     0.56369   0.57966   0.35668   0.00000  Uiso   1.00
H347   H     0.53148   0.62990   0.35971   0.00000  Uiso   1.00
H348   H     0.51302   0.56984   0.46881   0.00000  Uiso   1.00
H349   H     0.51707   0.42730   0.03209   0.00000  Uiso   1.00
H350   H     0.49734   0.57112   0.10934   0.00000  Uiso   1.00
H351   H     0.48433   0.42766   0.38807   0.00000  Uiso   1.00
H352   H     0.50271   0.57111   0.39066   0.00000  Uiso   1.00
H353   H     0.51562   0.42765   0.11192   0.00000  Uiso   1.00
H354   H     0.37034   0.42820   0.25616   0.00000  Uiso   1.00
N355   N     0.50000   0.61907   0.25000   0.00000  Uiso   1.00
N356   N     0.50000   0.38093   0.25000   0.00000  Uiso   1.00
N357   N     0.54858   0.38156   0.31290   0.00000  Uiso   1.00
N358   N     0.43923   0.61873   0.20056   0.00000  Uiso   1.00
N359   N     0.45142   0.38156   0.18711   0.00000  Uiso   1.00
N360   N     0.56078   0.61874   0.29943   0.00000  Uiso   1.00
O361   O     0.43892   0.53821   0.25000   0.00000  Uiso   1.00
O362   O     0.56108   0.46179   0.25001   0.00000  Uiso   1.00
O363   O     0.56108   0.53821   0.25001   0.00000  Uiso   1.00
O364   O     0.43892   0.46179   0.25000   0.00000  Uiso   1.00
O365   O     0.50000   0.53822   0.18453   0.00000  Uiso   1.00
O366   O     0.50000   0.46178   0.31547   0.00000  Uiso   1.00
O367   O     0.50000   0.53822   0.31547   0.00000  Uiso   1.00
O368   O     0.50000   0.46178   0.18453   0.00000  Uiso   1.00
Zn369  Zn    0.50000   0.55104   0.25000   0.00000  Uiso   1.00
Zn370  Zn    0.50000   0.44896   0.25000   0.00000  Uiso   1.00
C371   C     0.75340   0.50011   0.25098   0.00000  Uiso   1.00
C372   C     0.97868   0.54162   0.24924   0.00000  Uiso   1.00
C373   C     0.97882   0.45995   0.24756   0.00000  Uiso   1.00
C374   C     0.68798   0.54162   0.25075   0.00000  Uiso   1.00
C375   C     0.82848   0.53853   0.04744   0.00000  Uiso   1.00
C376   C     0.82313   0.45862   0.45172   0.00000  Uiso   1.00
C377   C     0.83820   0.53852   0.45256   0.00000  Uiso   1.00
C378   C     0.84350   0.45861   0.04827   0.00000  Uiso   1.00
C379   C     0.83226   0.53924   0.09289   0.00000  Uiso   1.00
C380   C     0.82312   0.45888   0.40589   0.00000  Uiso   1.00
C381   C     0.83442   0.53924   0.40712   0.00000  Uiso   1.00
C382   C     0.91327   0.50011   0.24902   0.00000  Uiso   1.00
C383   C     0.84352   0.45887   0.09411   0.00000  Uiso   1.00
C384   C     0.83706   0.49929   0.11648   0.00000  Uiso   1.00
C385   C     0.82960   0.49929   0.38352   0.00000  Uiso   1.00
C386   C     0.83454   0.49830   0.02431   0.00000  Uiso   1.00
C387   C     0.83211   0.49830   0.47569   0.00000  Uiso   1.00
C388   C     0.95745   0.50060   0.24804   0.00000  Uiso   1.00
C389   C     0.70922   0.50060   0.25196   0.00000  Uiso   1.00
C390   C     0.92658   0.38427   0.31116   0.00000  Uiso   1.00
C391   C     0.77300   0.61547   0.15289   0.00000  Uiso   1.00
C392   C     0.74008   0.38426   0.18885   0.00000  Uiso   1.00
C393   C     0.83465   0.49986   0.16412   0.00000  Uiso   1.00
C394   C     0.89369   0.61547   0.34710   0.00000  Uiso   1.00
C395   C     0.83201   0.49986   0.33588   0.00000  Uiso   1.00
C396   C     0.85951   0.35748   0.27875   0.00000  Uiso   1.00
C397   C     0.80545   0.64262   0.22314   0.00000  Uiso   1.00
C398   C     0.80715   0.35748   0.22125   0.00000  Uiso   1.00
C399   C     0.86122   0.64262   0.27686   0.00000  Uiso   1.00
C400   C     0.68785   0.45995   0.25245   0.00000  Uiso   1.00
H401   H     0.82034   0.56985   0.03120   0.00000  Uiso   1.00
H402   H     0.96259   0.57352   0.24876   0.00000  Uiso   1.00
H403   H     0.96299   0.42820   0.24386   0.00000  Uiso   1.00
H404   H     0.70408   0.57352   0.25122   0.00000  Uiso   1.00
H405   H     0.87154   0.37652   0.34419   0.00000  Uiso   1.00
H406   H     0.94203   0.36594   0.33931   0.00000  Uiso   1.00
H407   H     0.93613   0.41989   0.31478   0.00000  Uiso   1.00
H408   H     0.93742   0.37016   0.27978   0.00000  Uiso   1.00
H409   H     0.74366   0.62534   0.21200   0.00000  Uiso   1.00
H410   H     0.74604   0.63328   0.13690   0.00000  Uiso   1.00
H411   H     0.76966   0.57966   0.14330   0.00000  Uiso   1.00
H412   H     0.81620   0.42731   0.46790   0.00000  Uiso   1.00
H413   H     0.80188   0.62990   0.14029   0.00000  Uiso   1.00
H414   H     0.79512   0.37652   0.15581   0.00000  Uiso   1.00
H415   H     0.72463   0.36593   0.16072   0.00000  Uiso   1.00
H416   H     0.73052   0.41988   0.18523   0.00000  Uiso   1.00
H417   H     0.72925   0.37016   0.22024   0.00000  Uiso   1.00
H418   H     0.92302   0.62534   0.28798   0.00000  Uiso   1.00
H419   H     0.92065   0.63326   0.36308   0.00000  Uiso   1.00
H420   H     0.89703   0.57966   0.35668   0.00000  Uiso   1.00
H421   H     0.86481   0.62990   0.35971   0.00000  Uiso   1.00
H422   H     0.84636   0.56984   0.46881   0.00000  Uiso   1.00
H423   H     0.85040   0.42730   0.03209   0.00000  Uiso   1.00
H424   H     0.83067   0.57112   0.10934   0.00000  Uiso   1.00
H425   H     0.81766   0.42766   0.38807   0.00000  Uiso   1.00
H426   H     0.83604   0.57111   0.39066   0.00000  Uiso   1.00
H427   H     0.84895   0.42765   0.11192   0.00000  Uiso   1.00
H428   H     0.70368   0.42820   0.25616   0.00000  Uiso   1.00
N429   N     0.83333   0.61907   0.25000   0.00000  Uiso   1.00
N430   N     0.83333   0.38093   0.25000   0.00000  Uiso   1.00
N431   N     0.88191   0.38156   0.31290   0.00000  Uiso   1.00
N432   N     0.77256   0.61873   0.20056   0.00000  Uiso   1.00
N433   N     0.78475   0.38156   0.18711   0.00000  Uiso   1.00
N434   N     0.89411   0.61874   0.29943   0.00000  Uiso   1.00
O435   O     0.77226   0.53821   0.25000   0.00000  Uiso   1.00
O436   O     0.89441   0.46179   0.25001   0.00000  Uiso   1.00
O437   O     0.89441   0.53821   0.25001   0.00000  Uiso   1.00
O438   O     0.77226   0.46179   0.25000   0.00000  Uiso   1.00
O439   O     0.83333   0.53822   0.18453   0.00000  Uiso   1.00
O440   O     0.83334   0.46178   0.31547   0.00000  Uiso   1.00
O441   O     0.83334   0.53822   0.31547   0.00000  Uiso   1.00
O442   O     0.83333   0.46178   0.18453   0.00000  Uiso   1.00
Zn443  Zn    0.83333   0.55104   0.25000   0.00000  Uiso   1.00
Zn444  Zn    0.83333   0.44896   0.25000   0.00000  Uiso   1.00
C445   C     0.08673   0.83345   0.25098   0.00000  Uiso   1.00
C446   C     0.31201   0.87495   0.24924   0.00000  Uiso   1.00
C447   C     0.31215   0.79328   0.24756   0.00000  Uiso   1.00
C448   C     0.02132   0.87495   0.25075   0.00000  Uiso   1.00
C449   C     0.16181   0.87186   0.04744   0.00000  Uiso   1.00
C450   C     0.15646   0.79195   0.45172   0.00000  Uiso   1.00
C451   C     0.17154   0.87186   0.45256   0.00000  Uiso   1.00
C452   C     0.17683   0.79195   0.04827   0.00000  Uiso   1.00
C453   C     0.16560   0.87257   0.09289   0.00000  Uiso   1.00
C454   C     0.15645   0.79221   0.40589   0.00000  Uiso   1.00
C455   C     0.16776   0.87257   0.40712   0.00000  Uiso   1.00
C456   C     0.24660   0.83345   0.24902   0.00000  Uiso   1.00
C457   C     0.17685   0.79221   0.09411   0.00000  Uiso   1.00
C458   C     0.17039   0.83262   0.11648   0.00000  Uiso   1.00
C459   C     0.16294   0.83262   0.38352   0.00000  Uiso   1.00
C460   C     0.16787   0.83163   0.02431   0.00000  Uiso   1.00
C461   C     0.16545   0.83163   0.47569   0.00000  Uiso   1.00
C462   C     0.29078   0.83394   0.24804   0.00000  Uiso   1.00
C463   C     0.04255   0.83394   0.25196   0.00000  Uiso   1.00
C464   C     0.25991   0.71760   0.31116   0.00000  Uiso   1.00
C465   C     0.10633   0.94880   0.15289   0.00000  Uiso   1.00
C466   C     0.07342   0.71759   0.18885   0.00000  Uiso   1.00
C467   C     0.16799   0.83320   0.16412   0.00000  Uiso   1.00
C468   C     0.22702   0.94880   0.34710   0.00000  Uiso   1.00
C469   C     0.16534   0.83320   0.33588   0.00000  Uiso   1.00
C470   C     0.19285   0.69082   0.27875   0.00000  Uiso   1.00
C471   C     0.13878   0.97595   0.22314   0.00000  Uiso   1.00
C472   C     0.14049   0.69082   0.22125   0.00000  Uiso   1.00
C473   C     0.19456   0.97595   0.27686   0.00000  Uiso   1.00
C474   C     0.02118   0.79328   0.25245   0.00000  Uiso   1.00
H475   H     0.15367   0.90318   0.03120   0.00000  Uiso   1.00
H476   H     0.29592   0.90686   0.24876   0.00000  Uiso   1.00
H477   H     0.29633   0.76153   0.24386   0.00000  Uiso   1.00
H478   H     0.03741   0.90686   0.25122   0.00000  Uiso   1.00
H479   H     0.20487   0.70985   0.34419   0.00000  Uiso   1.00
H480   H     0.27537   0.69928   0.33931   0.00000  Uiso   1.00
H481   H     0.26947   0.75322   0.31478   0.00000  Uiso   1.00
H482   H     0.27075   0.70350   0.27978   0.00000  Uiso   1.00
H483   H     0.07699   0.95867   0.21200   0.00000  Uiso   1.00
H484   H     0.07938   0.96661   0.13690   0.00000  Uiso   1.00
H485   H     0.10299   0.91300   0.14330   0.00000  Uiso   1.00
H486   H     0.14953   0.76064   0.46790   0.00000  Uiso   1.00
H487   H     0.13522   0.96324   0.14029   0.00000  Uiso   1.00
H488   H     0.12845   0.70985   0.15581   0.00000  Uiso   1.00
H489   H     0.05796   0.69926   0.16072   0.00000  Uiso   1.00
H490   H     0.06386   0.75321   0.18523   0.00000  Uiso   1.00
H491   H     0.06258   0.70349   0.22024   0.00000  Uiso   1.00
H492   H     0.25635   0.95868   0.28798   0.00000  Uiso   1.00
H493   H     0.25399   0.96660   0.36308   0.00000  Uiso   1.00
H494   H     0.23036   0.91299   0.35668   0.00000  Uiso   1.00
H495   H     0.19815   0.96324   0.35971   0.00000  Uiso   1.00
H496   H     0.17969   0.90317   0.46881   0.00000  Uiso   1.00
H497   H     0.18374   0.76063   0.03209   0.00000  Uiso   1.00
H498   H     0.16400   0.90445   0.10934   0.00000  Uiso   1.00
H499   H     0.15100   0.76099   0.38807   0.00000  Uiso   1.00
H500   H     0.16937   0.90445   0.39066   0.00000  Uiso   1.00
H501   H     0.18228   0.76098   0.11192   0.00000  Uiso   1.00
H502   H     0.03701   0.76153   0.25616   0.00000  Uiso   1.00
N503   N     0.16667   0.95240   0.25000   0.00000  Uiso   1.00
N504   N     0.16667   0.71427   0.25000   0.00000  Uiso   1.00
N505   N     0.21524   0.71489   0.31290   0.00000  Uiso   1.00
N506   N     0.10589   0.95207   0.20056   0.00000  Uiso   1.00
N507   N     0.11808   0.71489   0.18711   0.00000  Uiso   1.00
N508   N     0.22745   0.95207   0.29943   0.00000  Uiso   1.00
O509   O     0.10559   0.87154   0.25000   0.00000  Uiso   1.00
O510   O     0.22774   0.79513   0.25001   0.00000  Uiso   1.00
O511   O     0.22774   0.87154   0.25001   0.00000  Uiso   1.00
O512   O     0.10559   0.79513   0.25000   0.00000  Uiso   1.00
O513   O     0.16666   0.87155   0.18453   0.00000  Uiso   1.00
O514   O     0.16667   0.79511   0.31547   0.00000  Uiso   1.00
O515   O     0.16667   0.87155   0.31547   0.00000  Uiso   1.00
O516   O     0.16666   0.79511   0.18453   0.00000  Uiso   1.00
Zn517  Zn    0.16667   0.88437   0.25000   0.00000  Uiso   1.00
Zn518  Zn    0.16667   0.78229   0.25000   0.00000  Uiso   1.00
C519   C     0.42006   0.83345   0.25098   0.00000  Uiso   1.00
C520   C     0.64535   0.87495   0.24924   0.00000  Uiso   1.00
C521   C     0.64548   0.79328   0.24756   0.00000  Uiso   1.00
C522   C     0.35465   0.87495   0.25075   0.00000  Uiso   1.00
C523   C     0.49514   0.87186   0.04744   0.00000  Uiso   1.00
C524   C     0.48980   0.79195   0.45172   0.00000  Uiso   1.00
C525   C     0.50487   0.87186   0.45256   0.00000  Uiso   1.00
C526   C     0.51016   0.79195   0.04827   0.00000  Uiso   1.00
C527   C     0.49893   0.87257   0.09289   0.00000  Uiso   1.00
C528   C     0.48978   0.79221   0.40589   0.00000  Uiso   1.00
C529   C     0.50109   0.87257   0.40712   0.00000  Uiso   1.00
C530   C     0.57993   0.83345   0.24902   0.00000  Uiso   1.00
C531   C     0.51018   0.79221   0.09411   0.00000  Uiso   1.00
C532   C     0.50373   0.83262   0.11648   0.00000  Uiso   1.00
C533   C     0.49627   0.83262   0.38352   0.00000  Uiso   1.00
C534   C     0.50120   0.83163   0.02431   0.00000  Uiso   1.00
C535   C     0.49878   0.83163   0.47569   0.00000  Uiso   1.00
C536   C     0.62411   0.83394   0.24804   0.00000  Uiso   1.00
C537   C     0.37589   0.83394   0.25196   0.00000  Uiso   1.00
C538   C     0.59324   0.71760   0.31116   0.00000  Uiso   1.00
C539   C     0.43967   0.94880   0.15289   0.00000  Uiso   1.00
C540   C     0.40675   0.71759   0.18885   0.00000  Uiso   1.00
C541   C     0.50132   0.83320   0.16412   0.00000  Uiso   1.00
C542   C     0.56035   0.94880   0.34710   0.00000  Uiso   1.00
C543   C     0.49868   0.83320   0.33588   0.00000  Uiso   1.00
C544   C     0.52618   0.69082   0.27875   0.00000  Uiso   1.00
C545   C     0.47211   0.97595   0.22314   0.00000  Uiso   1.00
C546   C     0.47382   0.69082   0.22125   0.00000  Uiso   1.00
C547   C     0.52789   0.97595   0.27686   0.00000  Uiso   1.00
C548   C     0.35452   0.79328   0.25245   0.00000  Uiso   1.00
H549   H     0.48701   0.90318   0.03120   0.00000  Uiso   1.00
H550   H     0.62926   0.90686   0.24876   0.00000  Uiso   1.00
H551   H     0.62966   0.76153   0.24386   0.00000  Uiso   1.00
H552   H     0.37074   0.90686   0.25122   0.00000  Uiso   1.00
H553   H     0.53820   0.70985   0.34419   0.00000  Uiso   1.00
H554   H     0.60870   0.69928   0.33931   0.00000  Uiso   1.00
H555   H     0.60280   0.75322   0.31478   0.00000  Uiso   1.00
H556   H     0.60408   0.70350   0.27978   0.00000  Uiso   1.00
H557   H     0.41032   0.95867   0.21200   0.00000  Uiso   1.00
H558   H     0.41271   0.96661   0.13690   0.00000  Uiso   1.00
H559   H     0.43633   0.91300   0.14330   0.00000  Uiso   1.00
H560   H     0.48287   0.76064   0.46790   0.00000  Uiso   1.00
H561   H     0.46855   0.96324   0.14029   0.00000  Uiso   1.00
H562   H     0.46178   0.70985   0.15581   0.00000  Uiso   1.00
H563   H     0.39129   0.69926   0.16072   0.00000  Uiso   1.00
H564   H     0.39719   0.75321   0.18523   0.00000  Uiso   1.00
H565   H     0.39592   0.70349   0.22024   0.00000  Uiso   1.00
H566   H     0.58968   0.95868   0.28798   0.00000  Uiso   1.00
H567   H     0.58732   0.96660   0.36308   0.00000  Uiso   1.00
H568   H     0.56369   0.91299   0.35668   0.00000  Uiso   1.00
H569   H     0.53148   0.96324   0.35971   0.00000  Uiso   1.00
H570   H     0.51302   0.90317   0.46881   0.00000  Uiso   1.00
H571   H     0.51707   0.76063   0.03209   0.00000  Uiso   1.00
H572   H     0.49734   0.90445   0.10934   0.00000  Uiso   1.00
H573   H     0.48433   0.76099   0.38807   0.00000  Uiso   1.00
H574   H     0.50271   0.90445   0.39066   0.00000  Uiso   1.00
H575   H     0.51562   0.76098   0.11192   0.00000  Uiso   1.00
H576   H     0.37034   0.76153   0.25616   0.00000  Uiso   1.00
N577   N     0.50000   0.95240   0.25000   0.00000  Uiso   1.00
N578   N     0.50000   0.71427   0.25000   0.00000  Uiso   1.00
N579   N     0.54858   0.71489   0.31290   0.00000  Uiso   1.00
N580   N     0.43923   0.95207   0.20056   0.00000  Uiso   1.00
N581   N     0.45142   0.71489   0.18711   0.00000  Uiso   1.00
N582   N     0.56078   0.95207   0.29943   0.00000  Uiso   1.00
O583   O     0.43892   0.87154   0.25000   0.00000  Uiso   1.00
O584   O     0.56108   0.79513   0.25001   0.00000  Uiso   1.00
O585   O     0.56108   0.87154   0.25001   0.00000  Uiso   1.00
O586   O     0.43892   0.79513   0.25000   0.00000  Uiso   1.00
O587   O     0.50000   0.87155   0.18453   0.00000  Uiso   1.00
O588   O     0.50000   0.79511   0.31547   0.00000  Uiso   1.00
O589   O     0.50000   0.87155   0.31547   0.00000  Uiso   1.00
O590   O     0.50000   0.79511   0.18453   0.00000  Uiso   1.00
Zn591  Zn    0.50000   0.88437   0.25000   0.00000  Uiso   1.00
Zn592  Zn    0.50000   0.78229   0.25000   0.00000  Uiso   1.00
C593   C     0.75340   0.83345   0.25098   0.00000  Uiso   1.00
C594   C     0.97868   0.87495   0.24924   0.00000  Uiso   1.00
C595   C     0.97882   0.79328   0.24756   0.00000  Uiso   1.00
C596   C     0.68798   0.87495   0.25075   0.00000  Uiso   1.00
C597   C     0.82848   0.87186   0.04744   0.00000  Uiso   1.00
C598   C     0.82313   0.79195   0.45172   0.00000  Uiso   1.00
C599   C     0.83820   0.87186   0.45256   0.00000  Uiso   1.00
C600   C     0.84350   0.79195   0.04827   0.00000  Uiso   1.00
C601   C     0.83226   0.87257   0.09289   0.00000  Uiso   1.00
C602   C     0.82312   0.79221   0.40589   0.00000  Uiso   1.00
C603   C     0.83442   0.87257   0.40712   0.00000  Uiso   1.00
C604   C     0.91327   0.83345   0.24902   0.00000  Uiso   1.00
C605   C     0.84352   0.79221   0.09411   0.00000  Uiso   1.00
C606   C     0.83706   0.83262   0.11648   0.00000  Uiso   1.00
C607   C     0.82960   0.83262   0.38352   0.00000  Uiso   1.00
C608   C     0.83454   0.83163   0.02431   0.00000  Uiso   1.00
C609   C     0.83211   0.83163   0.47569   0.00000  Uiso   1.00
C610   C     0.95745   0.83394   0.24804   0.00000  Uiso   1.00
C611   C     0.70922   0.83394   0.25196   0.00000  Uiso   1.00
C612   C     0.92658   0.71760   0.31116   0.00000  Uiso   1.00
C613   C     0.77300   0.94880   0.15289   0.00000  Uiso   1.00
C614   C     0.74008   0.71759   0.18885   0.00000  Uiso   1.00
C615   C     0.83465   0.83320   0.16412   0.00000  Uiso   1.00
C616   C     0.89369   0.94880   0.34710   0.00000  Uiso   1.00
C617   C     0.83201   0.83320   0.33588   0.00000  Uiso   1.00
C618   C     0.85951   0.69082   0.27875   0.00000  Uiso   1.00
C619   C     0.80545   0.97595   0.22314   0.00000  Uiso   1.00
C620   C     0.80715   0.69082   0.22125   0.00000  Uiso   1.00
C621   C     0.86122   0.97595   0.27686   0.00000  Uiso   1.00
C622   C     0.68785   0.79328   0.25245   0.00000  Uiso   1.00
H623   H     0.82034   0.90318   0.03120   0.00000  Uiso   1.00
H624   H     0.96259   0.90686   0.24876   0.00000  Uiso   1.00
H625   H     0.96299   0.76153   0.24386   0.00000  Uiso   1.00
H626   H     0.70408   0.90686   0.25122   0.00000  Uiso   1.00
H627   H     0.87154   0.70985   0.34419   0.00000  Uiso   1.00
H628   H     0.94203   0.69928   0.33931   0.00000  Uiso   1.00
H629   H     0.93613   0.75322   0.31478   0.00000  Uiso   1.00
H630   H     0.93742   0.70350   0.27978   0.00000  Uiso   1.00
H631   H     0.74366   0.95867   0.21200   0.00000  Uiso   1.00
H632   H     0.74604   0.96661   0.13690   0.00000  Uiso   1.00
H633   H     0.76966   0.91300   0.14330   0.00000  Uiso   1.00
H634   H     0.81620   0.76064   0.46790   0.00000  Uiso   1.00
H635   H     0.80188   0.96324   0.14029   0.00000  Uiso   1.00
H636   H     0.79512   0.70985   0.15581   0.00000  Uiso   1.00
H637   H     0.72463   0.69926   0.16072   0.00000  Uiso   1.00
H638   H     0.73052   0.75321   0.18523   0.00000  Uiso   1.00
H639   H     0.72925   0.70349   0.22024   0.00000  Uiso   1.00
H640   H     0.92302   0.95868   0.28798   0.00000  Uiso   1.00
H641   H     0.92065   0.96660   0.36308   0.00000  Uiso   1.00
H642   H     0.89703   0.91299   0.35668   0.00000  Uiso   1.00
H643   H     0.86481   0.96324   0.35971   0.00000  Uiso   1.00
H644   H     0.84636   0.90317   0.46881   0.00000  Uiso   1.00
H645   H     0.85040   0.76063   0.03209   0.00000  Uiso   1.00
H646   H     0.83067   0.90445   0.10934   0.00000  Uiso   1.00
H647   H     0.81766   0.76099   0.38807   0.00000  Uiso   1.00
H648   H     0.83604   0.90445   0.39066   0.00000  Uiso   1.00
H649   H     0.84895   0.76098   0.11192   0.00000  Uiso   1.00
H650   H     0.70368   0.76153   0.25616   0.00000  Uiso   1.00
N651   N     0.83333   0.95240   0.25000   0.00000  Uiso   1.00
N652   N     0.83333   0.71427   0.25000   0.00000  Uiso   1.00
N653   N     0.88191   0.71489   0.31290   0.00000  Uiso   1.00
N654   N     0.77256   0.95207   0.20056   0.00000  Uiso   1.00
N655   N     0.78475   0.71489   0.18711   0.00000  Uiso   1.00
N656   N     0.89411   0.95207   0.29943   0.00000  Uiso   1.00
O657   O     0.77226   0.87154   0.25000   0.00000  Uiso   1.00
O658   O     0.89441   0.79513   0.25001   0.00000  Uiso   1.00
O659   O     0.89441   0.87154   0.25001   0.00000  Uiso   1.00
O660   O     0.77226   0.79513   0.25000   0.00000  Uiso   1.00
O661   O     0.83333   0.87155   0.18453   0.00000  Uiso   1.00
O662   O     0.83334   0.79511   0.31547   0.00000  Uiso   1.00
O663   O     0.83334   0.87155   0.31547   0.00000  Uiso   1.00
O664   O     0.83333   0.79511   0.18453   0.00000  Uiso   1.00
Zn665  Zn    0.83333   0.88437   0.25000   0.00000  Uiso   1.00
Zn666  Zn    0.83333   0.78229   0.25000   0.00000  Uiso   1.00
C667   C     0.08673   0.16678   0.75098   0.00000  Uiso   1.00
C668   C     0.31201   0.20828   0.74924   0.00000  Uiso   1.00
C669   C     0.31215   0.12662   0.74756   0.00000  Uiso   1.00
C670   C     0.02132   0.20828   0.75075   0.00000  Uiso   1.00
C671   C     0.16181   0.20519   0.54744   0.00000  Uiso   1.00
C672   C     0.15646   0.12529   0.95172   0.00000  Uiso   1.00
C673   C     0.17154   0.20519   0.95256   0.00000  Uiso   1.00
C674   C     0.17683   0.12528   0.54827   0.00000  Uiso   1.00
C675   C     0.16560   0.20591   0.59289   0.00000  Uiso   1.00
C676   C     0.15645   0.12555   0.90589   0.00000  Uiso   1.00
C677   C     0.16776   0.20591   0.90712   0.00000  Uiso   1.00
C678   C     0.24660   0.16678   0.74902   0.00000  Uiso   1.00
C679   C     0.17685   0.12554   0.59411   0.00000  Uiso   1.00
C680   C     0.17039   0.16595   0.61648   0.00000  Uiso   1.00
C681   C     0.16294   0.16596   0.88352   0.00000  Uiso   1.00
C682   C     0.16787   0.16497   0.52431   0.00000  Uiso   1.00
C683   C     0.16545   0.16497   0.97569   0.00000  Uiso   1.00
C684   C     0.29078   0.16727   0.74804   0.00000  Uiso   1.00
C685   C     0.04255   0.16727   0.75196   0.00000  Uiso   1.00
C686   C     0.25991   0.05093   0.81116   0.00000  Uiso   1.00
C687   C     0.10633   0.28214   0.65289   0.00000  Uiso   1.00
C688   C     0.07342   0.05092   0.68885   0.00000  Uiso   1.00
C689   C     0.16799   0.16653   0.66412   0.00000  Uiso   1.00
C690   C     0.22702   0.28213   0.84710   0.00000  Uiso   1.00
C691   C     0.16534   0.16653   0.83588   0.00000  Uiso   1.00
C692   C     0.19285   0.02415   0.77875   0.00000  Uiso   1.00
C693   C     0.13878   0.30928   0.72314   0.00000  Uiso   1.00
C694   C     0.14049   0.02415   0.72125   0.00000  Uiso   1.00
C695   C     0.19456   0.30928   0.77686   0.00000  Uiso   1.00
C696   C     0.02118   0.12662   0.75245   0.00000  Uiso   1.00
H697   H     0.15367   0.23652   0.53120   0.00000  Uiso   1.00
H698   H     0.29592   0.24019   0.74876   0.00000  Uiso   1.00
H699   H     0.29633   0.09487   0.74386   0.00000  Uiso   1.00
H700   H     0.03741   0.24019   0.75122   0.00000  Uiso   1.00
H701   H     0.20487   0.04318   0.84419   0.00000  Uiso   1.00
H702   H     0.27537   0.03261   0.83931   0.00000  Uiso   1.00
H703   H     0.26947   0.08656   0.81478   0.00000  Uiso   1.00
H704   H     0.27075   0.03683   0.77978   0.00000  Uiso   1.00
H705   H     0.07699   0.29200   0.71200   0.00000  Uiso   1.00
H706   H     0.07938   0.29994   0.63690   0.00000  Uiso   1.00
H707   H     0.10299   0.24633   0.64330   0.00000  Uiso   1.00
H708   H     0.14953   0.09398   0.96790   0.00000  Uiso   1.00
H709   H     0.13522   0.29657   0.64029   0.00000  Uiso   1.00
H710   H     0.12845   0.04318   0.65581   0.00000  Uiso   1.00
H711   H     0.05796   0.03259   0.66072   0.00000  Uiso   1.00
H712   H     0.06386   0.08655   0.68523   0.00000  Uiso   1.00
H713   H     0.06258   0.03683   0.72024   0.00000  Uiso   1.00
H714   H     0.25635   0.29201   0.78798   0.00000  Uiso   1.00
H715   H     0.25399   0.29993   0.86308   0.00000  Uiso   1.00
H716   H     0.23036   0.24632   0.85668   0.00000  Uiso   1.00
H717   H     0.19815   0.29657   0.85971   0.00000  Uiso   1.00
H718   H     0.17969   0.23651   0.96881   0.00000  Uiso   1.00
H719   H     0.18374   0.09396   0.53209   0.00000  Uiso   1.00
H720   H     0.16400   0.23778   0.60934   0.00000  Uiso   1.00
H721   H     0.15100   0.09433   0.88807   0.00000  Uiso   1.00
H722   H     0.16937   0.23778   0.89066   0.00000  Uiso   1.00
H723   H     0.18228   0.09431   0.61192   0.00000  Uiso   1.00
H724   H     0.03701   0.09487   0.75616   0.00000  Uiso   1.00
N725   N     0.16667   0.28573   0.75000   0.00000  Uiso   1.00
N726   N     0.16667   0.04760   0.75000   0.00000  Uiso   1.00
N727   N     0.21524   0.04823   0.81290   0.00000  Uiso   1.00
N728   N     0.10589   0.28540   0.70056   0.00000  Uiso   1.00
N729   N     0.11808   0.04822   0.68711   0.00000  Uiso   1.00
N730   N     0.22745   0.28540   0.79943   0.00000  Uiso   1.00
O731   O     0.10559   0.20487   0.75000   0.00000  Uiso   1.00
O732   O     0.22774   0.12846   0.75001   0.00000  Uiso   1.00
O733   O     0.22774   0.20487   0.75001   0.00000  Uiso   1.00
O734   O     0.10559   0.12846   0.75000   0.00000  Uiso   1.00
O735   O     0.16666   0.20489   0.68453   0.00000  Uiso   1.00
O736   O     0.16667   0.12845   0.81547   0.00000  Uiso   1.00
O737   O     0.16667   0.20489   0.81547   0.00000  Uiso   1.00
O738   O     0.16666   0.12845   0.68453   0.00000  Uiso   1.00
Zn739  Zn    0.16667   0.21771   0.75000   0.00000  Uiso   1.00
Zn740  Zn    0.16667   0.11563   0.75000   0.00000  Uiso   1.00
C741   C     0.42006   0.16678   0.75098   0.00000  Uiso   1.00
C742   C     0.64535   0.20828   0.74924   0.00000  Uiso   1.00
C743   C     0.64548   0.12662   0.74756   0.00000  Uiso   1.00
C744   C     0.35465   0.20828   0.75075   0.00000  Uiso   1.00
C745   C     0.49514   0.20519   0.54744   0.00000  Uiso   1.00
C746   C     0.48980   0.12529   0.95172   0.00000  Uiso   1.00
C747   C     0.50487   0.20519   0.95256   0.00000  Uiso   1.00
C748   C     0.51016   0.12528   0.54827   0.00000  Uiso   1.00
C749   C     0.49893   0.20591   0.59289   0.00000  Uiso   1.00
C750   C     0.48978   0.12555   0.90589   0.00000  Uiso   1.00
C751   C     0.50109   0.20591   0.90712   0.00000  Uiso   1.00
C752   C     0.57993   0.16678   0.74902   0.00000  Uiso   1.00
C753   C     0.51018   0.12554   0.59411   0.00000  Uiso   1.00
C754   C     0.50373   0.16595   0.61648   0.00000  Uiso   1.00
C755   C     0.49627   0.16596   0.88352   0.00000  Uiso   1.00
C756   C     0.50120   0.16497   0.52431   0.00000  Uiso   1.00
C757   C     0.49878   0.16497   0.97569   0.00000  Uiso   1.00
C758   C     0.62411   0.16727   0.74804   0.00000  Uiso   1.00
C759   C     0.37589   0.16727   0.75196   0.00000  Uiso   1.00
C760   C     0.59324   0.05093   0.81116   0.00000  Uiso   1.00
C761   C     0.43967   0.28214   0.65289   0.00000  Uiso   1.00
C762   C     0.40675   0.05092   0.68885   0.00000  Uiso   1.00
C763   C     0.50132   0.16653   0.66412   0.00000  Uiso   1.00
C764   C     0.56035   0.28213   0.84710   0.00000  Uiso   1.00
C765   C     0.49868   0.16653   0.83588   0.00000  Uiso   1.00
C766   C     0.52618   0.02415   0.77875   0.00000  Uiso   1.00
C767   C     0.47211   0.30928   0.72314   0.00000  Uiso   1.00
C768   C     0.47382   0.02415   0.72125   0.00000  Uiso   1.00
C769   C     0.52789   0.30928   0.77686   0.00000  Uiso   1.00
C770   C     0.35452   0.12662   0.75245   0.00000  Uiso   1.00
H771   H     0.48701   0.23652   0.53120   0.00000  Uiso   1.00
H772   H     0.62926   0.24019   0.74876   0.00000  Uiso   1.00
H773   H     0.62966   0.09487   0.74386   0.00000  Uiso   1.00
H774   H     0.37074   0.24019   0.75122   0.00000  Uiso   1.00
H775   H     0.53820   0.04318   0.84419   0.00000  Uiso   1.00
H776   H     0.60870   0.03261   0.83931   0.00000  Uiso   1.00
H777   H     0.60280   0.08656   0.81478   0.00000  Uiso   1.00
H778   H     0.60408   0.03683   0.77978   0.00000  Uiso   1.00
H779   H     0.41032   0.29200   0.71200   0.00000  Uiso   1.00
H780   H     0.41271   0.29994   0.63690   0.00000  Uiso   1.00
H781   H     0.43633   0.24633   0.64330   0.00000  Uiso   1.00
H782   H     0.48287   0.09398   0.96790   0.00000  Uiso   1.00
H783   H     0.46855   0.29657   0.64029   0.00000  Uiso   1.00
H784   H     0.46178   0.04318   0.65581   0.00000  Uiso   1.00
H785   H     0.39129   0.03259   0.66072   0.00000  Uiso   1.00
H786   H     0.39719   0.08655   0.68523   0.00000  Uiso   1.00
H787   H     0.39592   0.03683   0.72024   0.00000  Uiso   1.00
H788   H     0.58968   0.29201   0.78798   0.00000  Uiso   1.00
H789   H     0.58732   0.29993   0.86308   0.00000  Uiso   1.00
H790   H     0.56369   0.24632   0.85668   0.00000  Uiso   1.00
H791   H     0.53148   0.29657   0.85971   0.00000  Uiso   1.00
H792   H     0.51302   0.23651   0.96881   0.00000  Uiso   1.00
H793   H     0.51707   0.09396   0.53209   0.00000  Uiso   1.00
H794   H     0.49734   0.23778   0.60934   0.00000  Uiso   1.00
H795   H     0.48433   0.09433   0.88807   0.00000  Uiso   1.00
H796   H     0.50271   0.23778   0.89066   0.00000  Uiso   1.00
H797   H     0.51562   0.09431   0.61192   0.00000  Uiso   1.00
H798   H     0.37034   0.09487   0.75616   0.00000  Uiso   1.00
N799   N     0.50000   0.28573   0.75000   0.00000  Uiso   1.00
N800   N     0.50000   0.04760   0.75000   0.00000  Uiso   1.00
N801   N     0.54858   0.04823   0.81290   0.00000  Uiso   1.00
N802   N     0.43923   0.28540   0.70056   0.00000  Uiso   1.00
N803   N     0.45142   0.04822   0.68711   0.00000  Uiso   1.00
N804   N     0.56078   0.28540   0.79943   0.00000  Uiso   1.00
O805   O     0.43892   0.20487   0.75000   0.00000  Uiso   1.00
O806   O     0.56108   0.12846   0.75001   0.00000  Uiso   1.00
O807   O     0.56108   0.20487   0.75001   0.00000  Uiso   1.00
O808   O     0.43892   0.12846   0.75000   0.00000  Uiso   1.00
O809   O     0.50000   0.20489   0.68453   0.00000  Uiso   1.00
O810   O     0.50000   0.12845   0.81547   0.00000  Uiso   1.00
O811   O     0.50000   0.20489   0.81547   0.00000  Uiso   1.00
O812   O     0.50000   0.12845   0.68453   0.00000  Uiso   1.00
Zn813  Zn    0.50000   0.21771   0.75000   0.00000  Uiso   1.00
Zn814  Zn    0.50000   0.11563   0.75000   0.00000  Uiso   1.00
C815   C     0.75340   0.16678   0.75098   0.00000  Uiso   1.00
C816   C     0.97868   0.20828   0.74924   0.00000  Uiso   1.00
C817   C     0.97882   0.12662   0.74756   0.00000  Uiso   1.00
C818   C     0.68798   0.20828   0.75075   0.00000  Uiso   1.00
C819   C     0.82848   0.20519   0.54744   0.00000  Uiso   1.00
C820   C     0.82313   0.12529   0.95172   0.00000  Uiso   1.00
C821   C     0.83820   0.20519   0.95256   0.00000  Uiso   1.00
C822   C     0.84350   0.12528   0.54827   0.00000  Uiso   1.00
C823   C     0.83226   0.20591   0.59289   0.00000  Uiso   1.00
C824   C     0.82312   0.12555   0.90589   0.00000  Uiso   1.00
C825   C     0.83442   0.20591   0.90712   0.00000  Uiso   1.00
C826   C     0.91327   0.16678   0.74902   0.00000  Uiso   1.00
C827   C     0.84352   0.12554   0.59411   0.00000  Uiso   1.00
C828   C     0.83706   0.16595   0.61648   0.00000  Uiso   1.00
C829   C     0.82960   0.16596   0.88352   0.00000  Uiso   1.00
C830   C     0.83454   0.16497   0.52431   0.00000  Uiso   1.00
C831   C     0.83211   0.16497   0.97569   0.00000  Uiso   1.00
C832   C     0.95745   0.16727   0.74804   0.00000  Uiso   1.00
C833   C     0.70922   0.16727   0.75196   0.00000  Uiso   1.00
C834   C     0.92658   0.05093   0.81116   0.00000  Uiso   1.00
C835   C     0.77300   0.28214   0.65289   0.00000  Uiso   1.00
C836   C     0.74008   0.05092   0.68885   0.00000  Uiso   1.00
C837   C     0.83465   0.16653   0.66412   0.00000  Uiso   1.00
C838   C     0.89369   0.28213   0.84710   0.00000  Uiso   1.00
C839   C     0.83201   0.16653   0.83588   0.00000  Uiso   1.00
C840   C     0.85951   0.02415   0.77875   0.00000  Uiso   1.00
C841   C     0.80545   0.30928   0.72314   0.00000  Uiso   1.00
C842   C     0.80715   0.02415   0.72125   0.00000  Uiso   1.00
C843   C     0.86122   0.30928   0.77686   0.00000  Uiso   1.00
C844   C     0.68785   0.12662   0.75245   0.00000  Uiso   1.00
H845   H     0.82034   0.23652   0.53120   0.00000  Uiso   1.00
H846   H     0.96259   0.24019   0.74876   0.00000  Uiso   1.00
H847   H     0.96299   0.09487   0.74386   0.00000  Uiso   1.00
H848   H     0.70408   0.24019   0.75122   0.00000  Uiso   1.00
H849   H     0.87154   0.04318   0.84419   0.00000  Uiso   1.00
H850   H     0.94203   0.03261   0.83931   0.00000  Uiso   1.00
H851   H     0.93613   0.08656   0.81478   0.00000  Uiso   1.00
H852   H     0.93742   0.03683   0.77978   0.00000  Uiso   1.00
H853   H     0.74366   0.29200   0.71200   0.00000  Uiso   1.00
H854   H     0.74604   0.29994   0.63690   0.00000  Uiso   1.00
H855   H     0.76966   0.24633   0.64330   0.00000  Uiso   1.00
H856   H     0.81620   0.09398   0.96790   0.00000  Uiso   1.00
H857   H     0.80188   0.29657   0.64029   0.00000  Uiso   1.00
H858   H     0.79512   0.04318   0.65581   0.00000  Uiso   1.00
H859   H     0.72463   0.03259   0.66072   0.00000  Uiso   1.00
H860   H     0.73052   0.08655   0.68523   0.00000  Uiso   1.00
H861   H     0.72925   0.03683   0.72024   0.00000  Uiso   1.00
H862   H     0.92302   0.29201   0.78798   0.00000  Uiso   1.00
H863   H     0.92065   0.29993   0.86308   0.00000  Uiso   1.00
H864   H     0.89703   0.24632   0.85668   0.00000  Uiso   1.00
H865   H     0.86481   0.29657   0.85971   0.00000  Uiso   1.00
H866   H     0.84636   0.23651   0.96881   0.00000  Uiso   1.00
H867   H     0.85040   0.09396   0.53209   0.00000  Uiso   1.00
H868   H     0.83067   0.23778   0.60934   0.00000  Uiso   1.00
H869   H     0.81766   0.09433   0.88807   0.00000  Uiso   1.00
H870   H     0.83604   0.23778   0.89066   0.00000  Uiso   1.00
H871   H     0.84895   0.09431   0.61192   0.00000  Uiso   1.00
H872   H     0.70368   0.09487   0.75616   0.00000  Uiso   1.00
N873   N     0.83333   0.28573   0.75000   0.00000  Uiso   1.00
N874   N     0.83333   0.04760   0.75000   0.00000  Uiso   1.00
N875   N     0.88191   0.04823   0.81290   0.00000  Uiso   1.00
N876   N     0.77256   0.28540   0.70056   0.00000  Uiso   1.00
N877   N     0.78475   0.04822   0.68711   0.00000  Uiso   1.00
N878   N     0.89411   0.28540   0.79943   0.00000  Uiso   1.00
O879   O     0.77226   0.20487   0.75000   0.00000  Uiso   1.00
O880   O     0.89441   0.12846   0.75001   0.00000  Uiso   1.00
O881   O     0.89441   0.20487   0.75001   0.00000  Uiso   1.00
O882   O     0.77226   0.12846   0.75000   0.00000  Uiso   1.00
O883   O     0.83333   0.20489   0.68453   0.00000  Uiso   1.00
O884   O     0.83334   0.12845   0.81547   0.00000  Uiso   1.00
O885   O     0.83334   0.20489   0.81547   0.00000  Uiso   1.00
O886   O     0.83333   0.12845   0.68453   0.00000  Uiso   1.00
Zn887  Zn    0.83333   0.21771   0.75000   0.00000  Uiso   1.00
Zn888  Zn    0.83333   0.11563   0.75000   0.00000  Uiso   1.00
C889   C     0.08673   0.50011   0.75098   0.00000  Uiso   1.00
C890   C     0.31201   0.54162   0.74924   0.00000  Uiso   1.00
C891   C     0.31215   0.45995   0.74756   0.00000  Uiso   1.00
C892   C     0.02132   0.54162   0.75075   0.00000  Uiso   1.00
C893   C     0.16181   0.53853   0.54744   0.00000  Uiso   1.00
C894   C     0.15646   0.45862   0.95172   0.00000  Uiso   1.00
C895   C     0.17154   0.53852   0.95256   0.00000  Uiso   1.00
C896   C     0.17683   0.45861   0.54827   0.00000  Uiso   1.00
C897   C     0.16560   0.53924   0.59289   0.00000  Uiso   1.00
C898   C     0.15645   0.45888   0.90589   0.00000  Uiso   1.00
C899   C     0.16776   0.53924   0.90712   0.00000  Uiso   1.00
C900   C     0.24660   0.50011   0.74902   0.00000  Uiso   1.00
C901   C     0.17685   0.45887   0.59411   0.00000  Uiso   1.00
C902   C     0.17039   0.49929   0.61648   0.00000  Uiso   1.00
C903   C     0.16294   0.49929   0.88352   0.00000  Uiso   1.00
C904   C     0.16787   0.49830   0.52431   0.00000  Uiso   1.00
C905   C     0.16545   0.49830   0.97569   0.00000  Uiso   1.00
C906   C     0.29078   0.50060   0.74804   0.00000  Uiso   1.00
C907   C     0.04255   0.50060   0.75196   0.00000  Uiso   1.00
C908   C     0.25991   0.38427   0.81116   0.00000  Uiso   1.00
C909   C     0.10633   0.61547   0.65289   0.00000  Uiso   1.00
C910   C     0.07342   0.38426   0.68885   0.00000  Uiso   1.00
C911   C     0.16799   0.49986   0.66412   0.00000  Uiso   1.00
C912   C     0.22702   0.61547   0.84710   0.00000  Uiso   1.00
C913   C     0.16534   0.49986   0.83588   0.00000  Uiso   1.00
C914   C     0.19285   0.35748   0.77875   0.00000  Uiso   1.00
C915   C     0.13878   0.64262   0.72314   0.00000  Uiso   1.00
C916   C     0.14049   0.35748   0.72125   0.00000  Uiso   1.00
C917   C     0.19456   0.64262   0.77686   0.00000  Uiso   1.00
C918   C     0.02118   0.45995   0.75245   0.00000  Uiso   1.00
H919   H     0.15367   0.56985   0.53120   0.00000  Uiso   1.00
H920   H     0.29592   0.57352   0.74876   0.00000  Uiso   1.00
H921   H     0.29633   0.42820   0.74386   0.00000  Uiso   1.00
H922   H     0.03741   0.57352   0.75122   0.00000  Uiso   1.00
H923   H     0.20487   0.37652   0.84419   0.00000  Uiso   1.00
H924   H     0.27537   0.36594   0.83931   0.00000  Uiso   1.00
H925   H     0.26947   0.41989   0.81478   0.00000  Uiso   1.00
H926   H     0.27075   0.37016   0.77978   0.00000  Uiso   1.00
H927   H     0.07699   0.62534   0.71200   0.00000  Uiso   1.00
H928   H     0.07938   0.63328   0.63690   0.00000  Uiso   1.00
H929   H     0.10299   0.57966   0.64330   0.00000  Uiso   1.00
H930   H     0.14953   0.42731   0.96790   0.00000  Uiso   1.00
H931   H     0.13522   0.62990   0.64029   0.00000  Uiso   1.00
H932   H     0.12845   0.37652   0.65581   0.00000  Uiso   1.00
H933   H     0.05796   0.36593   0.66072   0.00000  Uiso   1.00
H934   H     0.06386   0.41988   0.68523   0.00000  Uiso   1.00
H935   H     0.06258   0.37016   0.72024   0.00000  Uiso   1.00
H936   H     0.25635   0.62534   0.78798   0.00000  Uiso   1.00
H937   H     0.25399   0.63326   0.86308   0.00000  Uiso   1.00
H938   H     0.23036   0.57966   0.85668   0.00000  Uiso   1.00
H939   H     0.19815   0.62990   0.85971   0.00000  Uiso   1.00
H940   H     0.17969   0.56984   0.96881   0.00000  Uiso   1.00
H941   H     0.18374   0.42730   0.53209   0.00000  Uiso   1.00
H942   H     0.16400   0.57112   0.60934   0.00000  Uiso   1.00
H943   H     0.15100   0.42766   0.88807   0.00000  Uiso   1.00
H944   H     0.16937   0.57111   0.89066   0.00000  Uiso   1.00
H945   H     0.18228   0.42765   0.61192   0.00000  Uiso   1.00
H946   H     0.03701   0.42820   0.75616   0.00000  Uiso   1.00
N947   N     0.16667   0.61907   0.75000   0.00000  Uiso   1.00
N948   N     0.16667   0.38093   0.75000   0.00000  Uiso   1.00
N949   N     0.21524   0.38156   0.81290   0.00000  Uiso   1.00
N950   N     0.10589   0.61873   0.70056   0.00000  Uiso   1.00
N951   N     0.11808   0.38156   0.68711   0.00000  Uiso   1.00
N952   N     0.22745   0.61874   0.79943   0.00000  Uiso   1.00
O953   O     0.10559   0.53821   0.75000   0.00000  Uiso   1.00
O954   O     0.22774   0.46179   0.75001   0.00000  Uiso   1.00
O955   O     0.22774   0.53821   0.75001   0.00000  Uiso   1.00
O956   O     0.10559   0.46179   0.75000   0.00000  Uiso   1.00
O957   O     0.16666   0.53822   0.68453   0.00000  Uiso   1.00
O958   O     0.16667   0.46178   0.81547   0.00000  Uiso   1.00
O959   O     0.16667   0.53822   0.81547   0.00000  Uiso   1.00
O960   O     0.16666   0.46178   0.68453   0.00000  Uiso   1.00
Zn961  Zn    0.16667   0.55104   0.75000   0.00000  Uiso   1.00
Zn962  Zn    0.16667   0.44896   0.75000   0.00000  Uiso   1.00
C963   C     0.42006   0.50011   0.75098   0.00000  Uiso   1.00
C964   C     0.64535   0.54162   0.74924   0.00000  Uiso   1.00
C965   C     0.64548   0.45995   0.74756   0.00000  Uiso   1.00
C966   C     0.35465   0.54162   0.75075   0.00000  Uiso   1.00
C967   C     0.49514   0.53853   0.54744   0.00000  Uiso   1.00
C968   C     0.48980   0.45862   0.95172   0.00000  Uiso   1.00
C969   C     0.50487   0.53852   0.95256   0.00000  Uiso   1.00
C970   C     0.51016   0.45861   0.54827   0.00000  Uiso   1.00
C971   C     0.49893   0.53924   0.59289   0.00000  Uiso   1.00
C972   C     0.48978   0.45888   0.90589   0.00000  Uiso   1.00
C973   C     0.50109   0.53924   0.90712   0.00000  Uiso   1.00
C974   C     0.57993   0.50011   0.74902   0.00000  Uiso   1.00
C975   C     0.51018   0.45887   0.59411   0.00000  Uiso   1.00
C976   C     0.50373   0.49929   0.61648   0.00000  Uiso   1.00
C977   C     0.49627   0.49929   0.88352   0.00000  Uiso   1.00
C978   C     0.50120   0.49830   0.52431   0.00000  Uiso   1.00
C979   C     0.49878   0.49830   0.97569   0.00000  Uiso   1.00
C980   C     0.62411   0.50060   0.74804   0.00000  Uiso   1.00
C981   C     0.37589   0.50060   0.75196   0.00000  Uiso   1.00
C982   C     0.59324   0.38427   0.81116   0.00000  Uiso   1.00
C983   C     0.43967   0.61547   0.65289   0.00000  Uiso   1.00
C984   C     0.40675   0.38426   0.68885   0.00000  Uiso   1.00
C985   C     0.50132   0.49986   0.66412   0.00000  Uiso   1.00
C986   C     0.56035   0.61547   0.84710   0.00000  Uiso   1.00
C987   C     0.49868   0.49986   0.83588   0.00000  Uiso   1.00
C988   C     0.52618   0.35748   0.77875   0.00000  Uiso   1.00
C989   C     0.47211   0.64262   0.72314   0.00000  Uiso   1.00
C990   C     0.47382   0.35748   0.72125   0.00000  Uiso   1.00
C991   C     0.52789   0.64262   0.77686   0.00000  Uiso   1.00
C992   C     0.35452   0.45995   0.75245   0.00000  Uiso   1.00
H993   H     0.48701   0.56985   0.53120   0.00000  Uiso   1.00
H994   H     0.62926   0.57352   0.74876   0.00000  Uiso   1.00
H995   H     0.62966   0.42820   0.74386   0.00000  Uiso   1.00
H996   H     0.37074   0.57352   0.75122   0.00000  Uiso   1.00
H997   H     0.53820   0.37652   0.84419   0.00000  Uiso   1.00
H998   H     0.60870   0.36594   0.83931   0.00000  Uiso   1.00
H999   H     0.60280   0.41989   0.81478   0.00000  Uiso   1.00
H1000  H     0.60408   0.37016   0.77978   0.00000  Uiso   1.00
H1001  H     0.41032   0.62534   0.71200   0.00000  Uiso   1.00
H1002  H     0.41271   0.63328   0.63690   0.00000  Uiso   1.00
H1003  H     0.43633   0.57966   0.64330   0.00000  Uiso   1.00
H1004  H     0.48287   0.42731   0.96790   0.00000  Uiso   1.00
H1005  H     0.46855   0.62990   0.64029   0.00000  Uiso   1.00
H1006  H     0.46178   0.37652   0.65581   0.00000  Uiso   1.00
H1007  H     0.39129   0.36593   0.66072   0.00000  Uiso   1.00
H1008  H     0.39719   0.41988   0.68523   0.00000  Uiso   1.00
H1009  H     0.39592   0.37016   0.72024   0.00000  Uiso   1.00
H1010  H     0.58968   0.62534   0.78798   0.00000  Uiso   1.00
H1011  H     0.58732   0.63326   0.86308   0.00000  Uiso   1.00
H1012  H     0.56369   0.57966   0.85668   0.00000  Uiso   1.00
H1013  H     0.53148   0.62990   0.85971   0.00000  Uiso   1.00
H1014  H     0.51302   0.56984   0.96881   0.00000  Uiso   1.00
H1015  H     0.51707   0.42730   0.53209   0.00000  Uiso   1.00
H1016  H     0.49734   0.57112   0.60934   0.00000  Uiso   1.00
H1017  H     0.48433   0.42766   0.88807   0.00000  Uiso   1.00
H1018  H     0.50271   0.57111   0.89066   0.00000  Uiso   1.00
H1019  H     0.51562   0.42765   0.61192   0.00000  Uiso   1.00
H1020  H     0.37034   0.42820   0.75616   0.00000  Uiso   1.00
N1021  N     0.50000   0.61907   0.75000   0.00000  Uiso   1.00
N1022  N     0.50000   0.38093   0.75000   0.00000  Uiso   1.00
N1023  N     0.54858   0.38156   0.81290   0.00000  Uiso   1.00
N1024  N     0.43923   0.61873   0.70056   0.00000  Uiso   1.00
N1025  N     0.45142   0.38156   0.68711   0.00000  Uiso   1.00
N1026  N     0.56078   0.61874   0.79943   0.00000  Uiso   1.00
O1027  O     0.43892   0.53821   0.75000   0.00000  Uiso   1.00
O1028  O     0.56108   0.46179   0.75001   0.00000  Uiso   1.00
O1029  O     0.56108   0.53821   0.75001   0.00000  Uiso   1.00
O1030  O     0.43892   0.46179   0.75000   0.00000  Uiso   1.00
O1031  O     0.50000   0.53822   0.68453   0.00000  Uiso   1.00
O1032  O     0.50000   0.46178   0.81547   0.00000  Uiso   1.00
O1033  O     0.50000   0.53822   0.81547   0.00000  Uiso   1.00
O1034  O     0.50000   0.46178   0.68453   0.00000  Uiso   1.00
Zn1035 Zn    0.50000   0.55104   0.75000   0.00000  Uiso   1.00
Zn1036 Zn    0.50000   0.44896   0.75000   0.00000  Uiso   1.00
C1037  C     0.75340   0.50011   0.75098   0.00000  Uiso   1.00
C1038  C     0.97868   0.54162   0.74924   0.00000  Uiso   1.00
C1039  C     0.97882   0.45995   0.74756   0.00000  Uiso   1.00
C1040  C     0.68798   0.54162   0.75075   0.00000  Uiso   1.00
C1041  C     0.82848   0.53853   0.54744   0.00000  Uiso   1.00
C1042  C     0.82313   0.45862   0.95172   0.00000  Uiso   1.00
C1043  C     0.83820   0.53852   0.95256   0.00000  Uiso   1.00
C1044  C     0.84350   0.45861   0.54827   0.00000  Uiso   1.00
C1045  C     0.83226   0.53924   0.59289   0.00000  Uiso   1.00
C1046  C     0.82312   0.45888   0.90589   0.00000  Uiso   1.00
C1047  C     0.83442   0.53924   0.90712   0.00000  Uiso   1.00
C1048  C     0.91327   0.50011   0.74902   0.00000  Uiso   1.00
C1049  C     0.84352   0.45887   0.59411   0.00000  Uiso   1.00
C1050  C     0.83706   0.49929   0.61648   0.00000  Uiso   1.00
C1051  C     0.82960   0.49929   0.88352   0.00000  Uiso   1.00
C1052  C     0.83454   0.49830   0.52431   0.00000  Uiso   1.00
C1053  C     0.83211   0.49830   0.97569   0.00000  Uiso   1.00
C1054  C     0.95745   0.50060   0.74804   0.00000  Uiso   1.00
C1055  C     0.70922   0.50060   0.75196   0.00000  Uiso   1.00
C1056  C     0.92658   0.38427   0.81116   0.00000  Uiso   1.00
C1057  C     0.77300   0.61547   0.65289   0.00000  Uiso   1.00
C1058  C     0.74008   0.38426   0.68885   0.00000  Uiso   1.00
C1059  C     0.83465   0.49986   0.66412   0.00000  Uiso   1.00
C1060  C     0.89369   0.61547   0.84710   0.00000  Uiso   1.00
C1061  C     0.83201   0.49986   0.83588   0.00000  Uiso   1.00
C1062  C     0.85951   0.35748   0.77875   0.00000  Uiso   1.00
C1063  C     0.80545   0.64262   0.72314   0.00000  Uiso   1.00
C1064  C     0.80715   0.35748   0.72125   0.00000  Uiso   1.00
C1065  C     0.86122   0.64262   0.77686   0.00000  Uiso   1.00
C1066  C     0.68785   0.45995   0.75245   0.00000  Uiso   1.00
H1067  H     0.82034   0.56985   0.53120   0.00000  Uiso   1.00
H1068  H     0.96259   0.57352   0.74876   0.00000  Uiso   1.00
H1069  H     0.96299   0.42820   0.74386   0.00000  Uiso   1.00
H1070  H     0.70408   0.57352   0.75122   0.00000  Uiso   1.00
H1071  H     0.87154   0.37652   0.84419   0.00000  Uiso   1.00
H1072  H     0.94203   0.36594   0.83931   0.00000  Uiso   1.00
H1073  H     0.93613   0.41989   0.81478   0.00000  Uiso   1.00
H1074  H     0.93742   0.37016   0.77978   0.00000  Uiso   1.00
H1075  H     0.74366   0.62534   0.71200   0.00000  Uiso   1.00
H1076  H     0.74604   0.63328   0.63690   0.00000  Uiso   1.00
H1077  H     0.76966   0.57966   0.64330   0.00000  Uiso   1.00
H1078  H     0.81620   0.42731   0.96790   0.00000  Uiso   1.00
H1079  H     0.80188   0.62990   0.64029   0.00000  Uiso   1.00
H1080  H     0.79512   0.37652   0.65581   0.00000  Uiso   1.00
H1081  H     0.72463   0.36593   0.66072   0.00000  Uiso   1.00
H1082  H     0.73052   0.41988   0.68523   0.00000  Uiso   1.00
H1083  H     0.72925   0.37016   0.72024   0.00000  Uiso   1.00
H1084  H     0.92302   0.62534   0.78798   0.00000  Uiso   1.00
H1085  H     0.92065   0.63326   0.86308   0.00000  Uiso   1.00
H1086  H     0.89703   0.57966   0.85668   0.00000  Uiso   1.00
H1087  H     0.86481   0.62990   0.85971   0.00000  Uiso   1.00
H1088  H     0.84636   0.56984   0.96881   0.00000  Uiso   1.00
H1089  H     0.85040   0.42730   0.53209   0.00000  Uiso   1.00
H1090  H     0.83067   0.57112   0.60934   0.00000  Uiso   1.00
H1091  H     0.81766   0.42766   0.88807   0.00000  Uiso   1.00
H1092  H     0.83604   0.57111   0.89066   0.00000  Uiso   1.00
H1093  H     0.84895   0.42765   0.61192   0.00000  Uiso   1.00
H1094  H     0.70368   0.42820   0.75616   0.00000  Uiso   1.00
N1095  N     0.83333   0.61907   0.75000   0.00000  Uiso   1.00
N1096  N     0.83333   0.38093   0.75000   0.00000  Uiso   1.00
N1097  N     0.88191   0.38156   0.81290   0.00000  Uiso   1.00
N1098  N     0.77256   0.61873   0.70056   0.00000  Uiso   1.00
N1099  N     0.78475   0.38156   0.68711   0.00000  Uiso   1.00
N1100  N     0.89411   0.61874   0.79943   0.00000  Uiso   1.00
O1101  O     0.77226   0.53821   0.75000   0.00000  Uiso   1.00
O1102  O     0.89441   0.46179   0.75001   0.00000  Uiso   1.00
O1103  O     0.89441   0.53821   0.75001   0.00000  Uiso   1.00
O1104  O     0.77226   0.46179   0.75000   0.00000  Uiso   1.00
O1105  O     0.83333   0.53822   0.68453   0.00000  Uiso   1.00
O1106  O     0.83334   0.46178   0.81547   0.00000  Uiso   1.00
O1107  O     0.83334   0.53822   0.81547   0.00000  Uiso   1.00
O1108  O     0.83333   0.46178   0.68453   0.00000  Uiso   1.00
Zn1109 Zn    0.83333   0.55104   0.75000   0.00000  Uiso   1.00
Zn1110 Zn    0.83333   0.44896   0.75000   0.00000  Uiso   1.00
C1111  C     0.08673   0.83345   0.75098   0.00000  Uiso   1.00
C1112  C     0.31201   0.87495   0.74924   0.00000  Uiso   1.00
C1113  C     0.31215   0.79328   0.74756   0.00000  Uiso   1.00
C1114  C     0.02132   0.87495   0.75075   0.00000  Uiso   1.00
C1115  C     0.16181   0.87186   0.54744   0.00000  Uiso   1.00
C1116  C     0.15646   0.79195   0.95172   0.00000  Uiso   1.00
C1117  C     0.17154   0.87186   0.95256   0.00000  Uiso   1.00
C1118  C     0.17683   0.79195   0.54827   0.00000  Uiso   1.00
C1119  C     0.16560   0.87257   0.59289   0.00000  Uiso   1.00
C1120  C     0.15645   0.79221   0.90589   0.00000  Uiso   1.00
C1121  C     0.16776   0.87257   0.90712   0.00000  Uiso   1.00
C1122  C     0.24660   0.83345   0.74902   0.00000  Uiso   1.00
C1123  C     0.17685   0.79221   0.59411   0.00000  Uiso   1.00
C1124  C     0.17039   0.83262   0.61648   0.00000  Uiso   1.00
C1125  C     0.16294   0.83262   0.88352   0.00000  Uiso   1.00
C1126  C     0.16787   0.83163   0.52431   0.00000  Uiso   1.00
C1127  C     0.16545   0.83163   0.97569   0.00000  Uiso   1.00
C1128  C     0.29078   0.83394   0.74804   0.00000  Uiso   1.00
C1129  C     0.04255   0.83394   0.75196   0.00000  Uiso   1.00
C1130  C     0.25991   0.71760   0.81116   0.00000  Uiso   1.00
C1131  C     0.10633   0.94880   0.65289   0.00000  Uiso   1.00
C1132  C     0.07342   0.71759   0.68885   0.00000  Uiso   1.00
C1133  C     0.16799   0.83320   0.66412   0.00000  Uiso   1.00
C1134  C     0.22702   0.94880   0.84710   0.00000  Uiso   1.00
C1135  C     0.16534   0.83320   0.83588   0.00000  Uiso   1.00
C1136  C     0.19285   0.69082   0.77875   0.00000  Uiso   1.00
C1137  C     0.13878   0.97595   0.72314   0.00000  Uiso   1.00
C1138  C     0.14049   0.69082   0.72125   0.00000  Uiso   1.00
C1139  C     0.19456   0.97595   0.77686   0.00000  Uiso   1.00
C1140  C     0.02118   0.79328   0.75245   0.00000  Uiso   1.00
H1141  H     0.15367   0.90318   0.53120   0.00000  Uiso   1.00
H1142  H     0.29592   0.90686   0.74876   0.00000  Uiso   1.00
H1143  H     0.29633   0.76153   0.74386   0.00000  Uiso   1.00
H1144  H     0.03741   0.90686   0.75122   0.00000  Uiso   1.00
H1145  H     0.20487   0.70985   0.84419   0.00000  Uiso   1.00
H1146  H     0.27537   0.69928   0.83931   0.00000  Uiso   1.00
H1147  H     0.26947   0.75322   0.81478   0.00000  Uiso   1.00
H1148  H     0.27075   0.70350   0.77978   0.00000  Uiso   1.00
H1149  H     0.07699   0.95867   0.71200   0.00000  Uiso   1.00
H1150  H     0.07938   0.96661   0.63690   0.00000  Uiso   1.00
H1151  H     0.10299   0.91300   0.64330   0.00000  Uiso   1.00
H1152  H     0.14953   0.76064   0.96790   0.00000  Uiso   1.00
H1153  H     0.13522   0.96324   0.64029   0.00000  Uiso   1.00
H1154  H     0.12845   0.70985   0.65581   0.00000  Uiso   1.00
H1155  H     0.05796   0.69926   0.66072   0.00000  Uiso   1.00
H1156  H     0.06386   0.75321   0.68523   0.00000  Uiso   1.00
H1157  H     0.06258   0.70349   0.72024   0.00000  Uiso   1.00
H1158  H     0.25635   0.95868   0.78798   0.00000  Uiso   1.00
H1159  H     0.25399   0.96660   0.86308   0.00000  Uiso   1.00
H1160  H     0.23036   0.91299   0.85668   0.00000  Uiso   1.00
H1161  H     0.19815   0.96324   0.85971   0.00000  Uiso   1.00
H1162  H     0.17969   0.90317   0.96881   0.00000  Uiso   1.00
H1163  H     0.18374   0.76063   0.53209   0.00000  Uiso   1.00
H1164  H     0.16400   0.90445   0.60934   0.00000  Uiso   1.00
H1165  H     0.15100   0.76099   0.88807   0.00000  Uiso   1.00
H1166  H     0.16937   0.90445   0.89066   0.00000  Uiso   1.00
H1167  H     0.18228   0.76098   0.61192   0.00000  Uiso   1.00
H1168  H     0.03701   0.76153   0.75616   0.00000  Uiso   1.00
N1169  N     0.16667   0.95240   0.75000   0.00000  Uiso   1.00
N1170  N     0.16667   0.71427   0.75000   0.00000  Uiso   1.00
N1171  N     0.21524   0.71489   0.81290   0.00000  Uiso   1.00
N1172  N     0.10589   0.95207   0.70056   0.00000  Uiso   1.00
N1173  N     0.11808   0.71489   0.68711   0.00000  Uiso   1.00
N1174  N     0.22745   0.95207   0.79943   0.00000  Uiso   1.00
O1175  O     0.10559   0.87154   0.75000   0.00000  Uiso   1.00
O1176  O     0.22774   0.79513   0.75001   0.00000  Uiso   1.00
O1177  O     0.22774   0.87154   0.75001   0.00000  Uiso   1.00
O1178  O     0.10559   0.79513   0.75000   0.00000  Uiso   1.00
O1179  O     0.16666   0.87155   0.68453   0.00000  Uiso   1.00
O1180  O     0.16667   0.79511   0.81547   0.00000  Uiso   1.00
O1181  O     0.16667   0.87155   0.81547   0.00000  Uiso   1.00
O1182  O     0.16666   0.79511   0.68453   0.00000  Uiso   1.00
Zn1183 Zn    0.16667   0.88437   0.75000   0.00000  Uiso   1.00
Zn1184 Zn    0.16667   0.78229   0.75000   0.00000  Uiso   1.00
C1185  C     0.42006   0.83345   0.75098   0.00000  Uiso   1.00
C1186  C     0.64535   0.87495   0.74924   0.00000  Uiso   1.00
C1187  C     0.64548   0.79328   0.74756   0.00000  Uiso   1.00
C1188  C     0.35465   0.87495   0.75075   0.00000  Uiso   1.00
C1189  C     0.49514   0.87186   0.54744   0.00000  Uiso   1.00
C1190  C     0.48980   0.79195   0.95172   0.00000  Uiso   1.00
C1191  C     0.50487   0.87186   0.95256   0.00000  Uiso   1.00
C1192  C     0.51016   0.79195   0.54827   0.00000  Uiso   1.00
C1193  C     0.49893   0.87257   0.59289   0.00000  Uiso   1.00
C1194  C     0.48978   0.79221   0.90589   0.00000  Uiso   1.00
C1195  C     0.50109   0.87257   0.90712   0.00000  Uiso   1.00
C1196  C     0.57993   0.83345   0.74902   0.00000  Uiso   1.00
C1197  C     0.51018   0.79221   0.59411   0.00000  Uiso   1.00
C1198  C     0.50373   0.83262   0.61648   0.00000  Uiso   1.00
C1199  C     0.49627   0.83262   0.88352   0.00000  Uiso   1.00
C1200  C     0.50120   0.83163   0.52431   0.00000  Uiso   1.00
C1201  C     0.49878   0.83163   0.97569   0.00000  Uiso   1.00
C1202  C     0.62411   0.83394   0.74804   0.00000  Uiso   1.00
C1203  C     0.37589   0.83394   0.75196   0.00000  Uiso   1.00
C1204  C     0.59324   0.71760   0.81116   0.00000  Uiso   1.00
C1205  C     0.43967   0.94880   0.65289   0.00000  Uiso   1.00
C1206  C     0.40675   0.71759   0.68885   0.00000  Uiso   1.00
C1207  C     0.50132   0.83320   0.66412   0.00000  Uiso   1.00
C1208  C     0.56035   0.94880   0.84710   0.00000  Uiso   1.00
C1209  C     0.49868   0.83320   0.83588   0.00000  Uiso   1.00
C1210  C     0.52618   0.69082   0.77875   0.00000  Uiso   1.00
C1211  C     0.47211   0.97595   0.72314   0.00000  Uiso   1.00
C1212  C     0.47382   0.69082   0.72125   0.00000  Uiso   1.00
C1213  C     0.52789   0.97595   0.77686   0.00000  Uiso   1.00
C1214  C     0.35452   0.79328   0.75245   0.00000  Uiso   1.00
H1215  H     0.48701   0.90318   0.53120   0.00000  Uiso   1.00
H1216  H     0.62926   0.90686   0.74876   0.00000  Uiso   1.00
H1217  H     0.62966   0.76153   0.74386   0.00000  Uiso   1.00
H1218  H     0.37074   0.90686   0.75122   0.00000  Uiso   1.00
H1219  H     0.53820   0.70985   0.84419   0.00000  Uiso   1.00
H1220  H     0.60870   0.69928   0.83931   0.00000  Uiso   1.00
H1221  H     0.60280   0.75322   0.81478   0.00000  Uiso   1.00
H1222  H     0.60408   0.70350   0.77978   0.00000  Uiso   1.00
H1223  H     0.41032   0.95867   0.71200   0.00000  Uiso   1.00
H1224  H     0.41271   0.96661   0.63690   0.00000  Uiso   1.00
H1225  H     0.43633   0.91300   0.64330   0.00000  Uiso   1.00
H1226  H     0.48287   0.76064   0.96790   0.00000  Uiso   1.00
H1227  H     0.46855   0.96324   0.64029   0.00000  Uiso   1.00
H1228  H     0.46178   0.70985   0.65581   0.00000  Uiso   1.00
H1229  H     0.39129   0.69926   0.66072   0.00000  Uiso   1.00
H1230  H     0.39719   0.75321   0.68523   0.00000  Uiso   1.00
H1231  H     0.39592   0.70349   0.72024   0.00000  Uiso   1.00
H1232  H     0.58968   0.95868   0.78798   0.00000  Uiso   1.00
H1233  H     0.58732   0.96660   0.86308   0.00000  Uiso   1.00
H1234  H     0.56369   0.91299   0.85668   0.00000  Uiso   1.00
H1235  H     0.53148   0.96324   0.85971   0.00000  Uiso   1.00
H1236  H     0.51302   0.90317   0.96881   0.00000  Uiso   1.00
H1237  H     0.51707   0.76063   0.53209   0.00000  Uiso   1.00
H1238  H     0.49734   0.90445   0.60934   0.00000  Uiso   1.00
H1239  H     0.48433   0.76099   0.88807   0.00000  Uiso   1.00
H1240  H     0.50271   0.90445   0.89066   0.00000  Uiso   1.00
H1241  H     0.51562   0.76098   0.61192   0.00000  Uiso   1.00
H1242  H     0.37034   0.76153   0.75616   0.00000  Uiso   1.00
N1243  N     0.50000   0.95240   0.75000   0.00000  Uiso   1.00
N1244  N     0.50000   0.71427   0.75000   0.00000  Uiso   1.00
N1245  N     0.54858   0.71489   0.81290   0.00000  Uiso   1.00
N1246  N     0.43923   0.95207   0.70056   0.00000  Uiso   1.00
N1247  N     0.45142   0.71489   0.68711   0.00000  Uiso   1.00
N1248  N     0.56078   0.95207   0.79943   0.00000  Uiso   1.00
O1249  O     0.43892   0.87154   0.75000   0.00000  Uiso   1.00
O1250  O     0.56108   0.79513   0.75001   0.00000  Uiso   1.00
O1251  O     0.56108   0.87154   0.75001   0.00000  Uiso   1.00
O1252  O     0.43892   0.79513   0.75000   0.00000  Uiso   1.00
O1253  O     0.50000   0.87155   0.68453   0.00000  Uiso   1.00
O1254  O     0.50000   0.79511   0.81547   0.00000  Uiso   1.00
O1255  O     0.50000   0.87155   0.81547   0.00000  Uiso   1.00
O1256  O     0.50000   0.79511   0.68453   0.00000  Uiso   1.00
Zn1257 Zn    0.50000   0.88437   0.75000   0.00000  Uiso   1.00
Zn1258 Zn    0.50000   0.78229   0.75000   0.00000  Uiso   1.00
C1259  C     0.75340   0.83345   0.75098   0.00000  Uiso   1.00
C1260  C     0.97868   0.87495   0.74924   0.00000  Uiso   1.00
C1261  C     0.97882   0.79328   0.74756   0.00000  Uiso   1.00
C1262  C     0.68798   0.87495   0.75075   0.00000  Uiso   1.00
C1263  C     0.82848   0.87186   0.54744   0.00000  Uiso   1.00
C1264  C     0.82313   0.79195   0.95172   0.00000  Uiso   1.00
C1265  C     0.83820   0.87186   0.95256   0.00000  Uiso   1.00
C1266  C     0.84350   0.79195   0.54827   0.00000  Uiso   1.00
C1267  C     0.83226   0.87257   0.59289   0.00000  Uiso   1.00
C1268  C     0.82312   0.79221   0.90589   0.00000  Uiso   1.00
C1269  C     0.83442   0.87257   0.90712   0.00000  Uiso   1.00
C1270  C     0.91327   0.83345   0.74902   0.00000  Uiso   1.00
C1271  C     0.84352   0.79221   0.59411   0.00000  Uiso   1.00
C1272  C     0.83706   0.83262   0.61648   0.00000  Uiso   1.00
C1273  C     0.82960   0.83262   0.88352   0.00000  Uiso   1.00
C1274  C     0.83454   0.83163   0.52431   0.00000  Uiso   1.00
C1275  C     0.83211   0.83163   0.97569   0.00000  Uiso   1.00
C1276  C     0.95745   0.83394   0.74804   0.00000  Uiso   1.00
C1277  C     0.70922   0.83394   0.75196   0.00000  Uiso   1.00
C1278  C     0.92658   0.71760   0.81116   0.00000  Uiso   1.00
C1279  C     0.77300   0.94880   0.65289   0.00000  Uiso   1.00
C1280  C     0.74008   0.71759   0.68885   0.00000  Uiso   1.00
C1281  C     0.83465   0.83320   0.66412   0.00000  Uiso   1.00
C1282  C     0.89369   0.94880   0.84710   0.00000  Uiso   1.00
C1283  C     0.83201   0.83320   0.83588   0.00000  Uiso   1.00
C1284  C     0.85951   0.69082   0.77875   0.00000  Uiso   1.00
C1285  C     0.80545   0.97595   0.72314   0.00000  Uiso   1.00
C1286  C     0.80715   0.69082   0.72125   0.00000  Uiso   1.00
C1287  C     0.86122   0.97595   0.77686   0.00000  Uiso   1.00
C1288  C     0.68785   0.79328   0.75245   0.00000  Uiso   1.00
H1289  H     0.82034   0.90318   0.53120   0.00000  Uiso   1.00
H1290  H     0.96259   0.90686   0.74876   0.00000  Uiso   1.00
H1291  H     0.96299   0.76153   0.74386   0.00000  Uiso   1.00
H1292  H     0.70408   0.90686   0.75122   0.00000  Uiso   1.00
H1293  H     0.87154   0.70985   0.84419   0.00000  Uiso   1.00
H1294  H     0.94203   0.69928   0.83931   0.00000  Uiso   1.00
H1295  H     0.93613   0.75322   0.81478   0.00000  Uiso   1.00
H1296  H     0.93742   0.70350   0.77978   0.00000  Uiso   1.00
H1297  H     0.74366   0.95867   0.71200   0.00000  Uiso   1.00
H1298  H     0.74604   0.96661   0.63690   0.00000  Uiso   1.00
H1299  H     0.76966   0.91300   0.64330   0.00000  Uiso   1.00
H1300  H     0.81620   0.76064   0.96790   0.00000  Uiso   1.00
H1301  H     0.80188   0.96324   0.64029   0.00000  Uiso   1.00
H1302  H     0.79512   0.70985   0.65581   0.00000  Uiso   1.00
H1303  H     0.72463   0.69926   0.66072   0.00000  Uiso   1.00
H1304  H     0.73052   0.75321   0.68523   0.00000  Uiso   1.00
H1305  H     0.72925   0.70349   0.72024   0.00000  Uiso   1.00
H1306  H     0.92302   0.95868   0.78798   0.00000  Uiso   1.00
H1307  H     0.92065   0.96660   0.86308   0.00000  Uiso   1.00
H1308  H     0.89703   0.91299   0.85668   0.00000  Uiso   1.00
H1309  H     0.86481   0.96324   0.85971   0.00000  Uiso   1.00
H1310  H     0.84636   0.90317   0.96881   0.00000  Uiso   1.00
H1311  H     0.85040   0.76063   0.53209   0.00000  Uiso   1.00
H1312  H     0.83067   0.90445   0.60934   0.00000  Uiso   1.00
H1313  H     0.81766   0.76099   0.88807   0.00000  Uiso   1.00
H1314  H     0.83604   0.90445   0.89066   0.00000  Uiso   1.00
H1315  H     0.84895   0.76098   0.61192   0.00000  Uiso   1.00
H1316  H     0.70368   0.76153   0.75616   0.00000  Uiso   1.00
N1317  N     0.83333   0.95240   0.75000   0.00000  Uiso   1.00
N1318  N     0.83333   0.71427   0.75000   0.00000  Uiso   1.00
N1319  N     0.88191   0.71489   0.81290   0.00000  Uiso   1.00
N1320  N     0.77256   0.95207   0.70056   0.00000  Uiso   1.00
N1321  N     0.78475   0.71489   0.68711   0.00000  Uiso   1.00
N1322  N     0.89411   0.95207   0.79943   0.00000  Uiso   1.00
O1323  O     0.77226   0.87154   0.75000   0.00000  Uiso   1.00
O1324  O     0.89441   0.79513   0.75001   0.00000  Uiso   1.00
O1325  O     0.89441   0.87154   0.75001   0.00000  Uiso   1.00
O1326  O     0.77226   0.79513   0.75000   0.00000  Uiso   1.00
O1327  O     0.83333   0.87155   0.68453   0.00000  Uiso   1.00
O1328  O     0.83334   0.79511   0.81547   0.00000  Uiso   1.00
O1329  O     0.83334   0.87155   0.81547   0.00000  Uiso   1.00
O1330  O     0.83333   0.79511   0.68453   0.00000  Uiso   1.00
Zn1331 Zn    0.83333   0.88437   0.75000   0.00000  Uiso   1.00
Zn1332 Zn    0.83333   0.78229   0.75000   0.00000  Uiso   1.00
loop_
_geom_bond_atom_site_label_1
_geom_bond_atom_site_label_2
_geom_bond_distance
_geom_bond_site_symmetry_2
_ccdc_geom_bond_type
C1     O65     1.287   .     A
C1     O68     1.293   .     A
C1     C19     1.426   .     S
C2     C18     1.398   .     A
C2     H32     1.081   .     S
C2     C78     1.373   .     S
C3     H33     1.077   .     S
C3     C18     1.392   .     A
C3     C104    1.366   .     S
C4     H34     1.081   .     S
C4     C19     1.398   .     A
C4     C150    1.373   1_455 S
C5     C9      1.373   .     A
C5     C16     1.405   .     A
C5     H31     1.079   .     S
C6     C10     1.386   .     A
C6     H42     1.081   .     S
C6     C17     1.407   .     A
C7     H52     1.079   .     S
C7     C11     1.373   .     A
C7     C17     1.405   .     A
C8     H53     1.081   .     S
C8     C13     1.386   .     A
C8     C16     1.407   .     A
C9     C14     1.391   .     A
C9     H54     1.073   .     S
C10    C15     1.400   .     A
C10    H55     1.083   .     S
C11    C15     1.391   .     A
C11    H56     1.073   .     S
C12    O67     1.287   .     A
C12    C18     1.426   .     S
C12    O66     1.293   .     A
C13    C14     1.400   .     A
C13    H57     1.083   .     S
C14    C23     1.446   .     S
C15    C25     1.446   .     S
C16    C683    1.468   1_554 S
C17    C682    1.468   .     S
C19    C30     1.392   .     A
C20    H38     1.110   .     S
C20    H37     1.107   .     S
C20    H36     1.107   .     S
C20    N61     1.446   .     S
C21    N62     1.445   .     S
C21    H40     1.107   .     S
C21    H41     1.108   .     S
C21    H43     1.111   .     S
C22    H45     1.107   .     S
C22    H47     1.110   .     S
C22    H46     1.107   .     S
C22    N63     1.446   .     S
C23    O69     1.299   .     A
C23    O72     1.292   .     A
C24    H51     1.111   .     S
C24    N64     1.445   .     S
C24    H50     1.108   .     S
C24    H49     1.107   .     S
C25    O71     1.299   .     A
C25    O70     1.292   .     A
C26    N61     1.422   .     S
C26    N60     1.370   .     A
C26    C473    1.436   1_545 S
C27    N62     1.421   .     S
C27    N59     1.372   .     A
C27    C250    1.436   .     S
C28    N60     1.370   .     A
C28    N63     1.422   .     S
C28    C471    1.436   1_545 S
C29    N64     1.421   .     S
C29    N59     1.372   .     A
C29    C248    1.436   .     S
C30    H58     1.077   .     S
C30    C151    1.366   1_455 S
H35    N61     1.031   .     S
H39    N62     1.030   .     S
H44    N63     1.031   .     S
H48    N64     1.030   .     S
N59    Zn73    2.023   .     S
N60    Zn74    2.023   .     S
O65    Zn73    2.006   .     S
O66    Zn74    2.006   .     S
O67    Zn73    2.006   .     S
O68    Zn74    2.006   .     S
O69    Zn73    2.015   .     S
O70    Zn74    2.015   .     S
O71    Zn73    2.015   .     S
O72    Zn74    2.015   .     S
C75    O139    1.287   .     A
C75    O142    1.293   .     A
C75    C93     1.426   .     S
C76    C92     1.398   .     A
C76    H106    1.081   .     S
C76    C152    1.373   .     S
C77    H107    1.077   .     S
C77    C92     1.392   .     A
C77    C178    1.366   .     S
C78    H108    1.081   .     S
C78    C93     1.398   .     A
C79    C83     1.373   .     A
C79    C90     1.405   .     A
C79    H105    1.079   .     S
C80    C84     1.386   .     A
C80    H116    1.081   .     S
C80    C91     1.407   .     A
C81    H126    1.079   .     S
C81    C85     1.373   .     A
C81    C91     1.405   .     A
C82    H127    1.081   .     S
C82    C87     1.386   .     A
C82    C90     1.407   .     A
C83    C88     1.391   .     A
C83    H128    1.073   .     S
C84    C89     1.400   .     A
C84    H129    1.083   .     S
C85    C89     1.391   .     A
C85    H130    1.073   .     S
C86    O141    1.287   .     A
C86    C92     1.426   .     S
C86    O140    1.293   .     A
C87    C88     1.400   .     A
C87    H131    1.083   .     S
C88    C97     1.446   .     S
C89    C99     1.446   .     S
C90    C757    1.468   1_554 S
C91    C756    1.468   .     S
C93    C104    1.392   .     A
C94    H112    1.110   .     S
C94    H111    1.107   .     S
C94    H110    1.107   .     S
C94    N135    1.446   .     S
C95    N136    1.445   .     S
C95    H114    1.107   .     S
C95    H115    1.108   .     S
C95    H117    1.111   .     S
C96    H119    1.107   .     S
C96    H121    1.110   .     S
C96    H120    1.107   .     S
C96    N137    1.446   .     S
C97    O143    1.299   .     A
C97    O146    1.292   .     A
C98    H125    1.111   .     S
C98    N138    1.445   .     S
C98    H124    1.108   .     S
C98    H123    1.107   .     S
C99    O145    1.299   .     A
C99    O144    1.292   .     A
C100   N135    1.422   .     S
C100   N134    1.370   .     A
C100   C547    1.436   1_545 S
C101   N136    1.421   .     S
C101   N133    1.372   .     A
C101   C324    1.436   .     S
C102   N134    1.370   .     A
C102   N137    1.422   .     S
C102   C545    1.436   1_545 S
C103   N138    1.421   .     S
C103   N133    1.372   .     A
C103   C322    1.436   .     S
C104   H132    1.077   .     S
H109   N135    1.031   .     S
H113   N136    1.030   .     S
H118   N137    1.031   .     S
H122   N138    1.030   .     S
N133   Zn147   2.023   .     S
N134   Zn148   2.023   .     S
O139   Zn147   2.006   .     S
O140   Zn148   2.006   .     S
O141   Zn147   2.006   .     S
O142   Zn148   2.006   .     S
O143   Zn147   2.015   .     S
O144   Zn148   2.015   .     S
O145   Zn147   2.015   .     S
O146   Zn148   2.015   .     S
C149   O213    1.287   .     A
C149   O216    1.293   .     A
C149   C167    1.426   .     S
C150   C166    1.398   .     A
C150   H180    1.081   .     S
C150   C4      1.373   1_655 S
C151   H181    1.077   .     S
C151   C166    1.392   .     A
C151   C30     1.366   1_655 S
C152   H182    1.081   .     S
C152   C167    1.398   .     A
C153   C157    1.373   .     A
C153   C164    1.405   .     A
C153   H179    1.079   .     S
C154   C158    1.386   .     A
C154   H190    1.081   .     S
C154   C165    1.407   .     A
C155   H200    1.079   .     S
C155   C159    1.373   .     A
C155   C165    1.405   .     A
C156   H201    1.081   .     S
C156   C161    1.386   .     A
C156   C164    1.407   .     A
C157   C162    1.391   .     A
C157   H202    1.073   .     S
C158   C163    1.400   .     A
C158   H203    1.083   .     S
C159   C163    1.391   .     A
C159   H204    1.073   .     S
C160   O215    1.287   .     A
C160   C166    1.426   .     S
C160   O214    1.293   .     A
C161   C162    1.400   .     A
C161   H205    1.083   .     S
C162   C171    1.446   .     S
C163   C173    1.446   .     S
C164   C831    1.468   1_554 S
C165   C830    1.468   .     S
C167   C178    1.392   .     A
C168   H186    1.110   .     S
C168   H185    1.107   .     S
C168   H184    1.107   .     S
C168   N209    1.446   .     S
C169   N210    1.445   .     S
C169   H188    1.107   .     S
C169   H189    1.108   .     S
C169   H191    1.111   .     S
C170   H193    1.107   .     S
C170   H195    1.110   .     S
C170   H194    1.107   .     S
C170   N211    1.446   .     S
C171   O217    1.299   .     A
C171   O220    1.292   .     A
C172   H199    1.111   .     S
C172   N212    1.445   .     S
C172   H198    1.108   .     S
C172   H197    1.107   .     S
C173   O219    1.299   .     A
C173   O218    1.292   .     A
C174   N209    1.422   .     S
C174   N208    1.370   .     A
C174   C621    1.436   1_545 S
C175   N210    1.421   .     S
C175   N207    1.372   .     A
C175   C398    1.436   .     S
C176   N208    1.370   .     A
C176   N211    1.422   .     S
C176   C619    1.436   1_545 S
C177   N212    1.421   .     S
C177   N207    1.372   .     A
C177   C396    1.436   .     S
C178   H206    1.077   .     S
H183   N209    1.031   .     S
H187   N210    1.030   .     S
H192   N211    1.031   .     S
H196   N212    1.030   .     S
N207   Zn221   2.023   .     S
N208   Zn222   2.023   .     S
O213   Zn221   2.006   .     S
O214   Zn222   2.006   .     S
O215   Zn221   2.006   .     S
O216   Zn222   2.006   .     S
O217   Zn221   2.015   .     S
O218   Zn222   2.015   .     S
O219   Zn221   2.015   .     S
O220   Zn222   2.015   .     S
C223   O287    1.287   .     A
C223   O290    1.293   .     A
C223   C241    1.426   .     S
C224   C240    1.398   .     A
C224   H254    1.081   .     S
C224   C300    1.373   .     S
C225   H255    1.077   .     S
C225   C240    1.392   .     A
C225   C326    1.366   .     S
C226   H256    1.081   .     S
C226   C241    1.398   .     A
C226   C372    1.373   1_455 S
C227   C231    1.373   .     A
C227   C238    1.405   .     A
C227   H253    1.079   .     S
C228   C232    1.386   .     A
C228   H264    1.081   .     S
C228   C239    1.407   .     A
C229   H274    1.079   .     S
C229   C233    1.373   .     A
C229   C239    1.405   .     A
C230   H275    1.081   .     S
C230   C235    1.386   .     A
C230   C238    1.407   .     A
C231   C236    1.391   .     A
C231   H276    1.073   .     S
C232   C237    1.400   .     A
C232   H277    1.083   .     S
C233   C237    1.391   .     A
C233   H278    1.073   .     S
C234   O289    1.287   .     A
C234   C240    1.426   .     S
C234   O288    1.293   .     A
C235   C236    1.400   .     A
C235   H279    1.083   .     S
C236   C245    1.446   .     S
C237   C247    1.446   .     S
C238   C905    1.468   1_554 S
C239   C904    1.468   .     S
C241   C252    1.392   .     A
C242   H260    1.110   .     S
C242   H259    1.107   .     S
C242   H258    1.107   .     S
C242   N283    1.446   .     S
C243   N284    1.445   .     S
C243   H262    1.107   .     S
C243   H263    1.108   .     S
C243   H265    1.111   .     S
C244   H267    1.107   .     S
C244   H269    1.110   .     S
C244   H268    1.107   .     S
C244   N285    1.446   .     S
C245   O291    1.299   .     A
C245   O294    1.292   .     A
C246   H273    1.111   .     S
C246   N286    1.445   .     S
C246   H272    1.108   .     S
C246   H271    1.107   .     S
C247   O293    1.299   .     A
C247   O292    1.292   .     A
C248   N283    1.422   .     S
C248   N282    1.370   .     A
C249   N284    1.421   .     S
C249   N281    1.372   .     A
C249   C472    1.436   .     S
C250   N282    1.370   .     A
C250   N285    1.422   .     S
C251   N286    1.421   .     S
C251   N281    1.372   .     A
C251   C470    1.436   .     S
C252   H280    1.077   .     S
C252   C373    1.366   1_455 S
H257   N283    1.031   .     S
H261   N284    1.030   .     S
H266   N285    1.031   .     S
H270   N286    1.030   .     S
N281   Zn295   2.023   .     S
N282   Zn296   2.023   .     S
O287   Zn295   2.006   .     S
O288   Zn296   2.006   .     S
O289   Zn295   2.006   .     S
O290   Zn296   2.006   .     S
O291   Zn295   2.015   .     S
O292   Zn296   2.015   .     S
O293   Zn295   2.015   .     S
O294   Zn296   2.015   .     S
C297   O361    1.287   .     A
C297   O364    1.293   .     A
C297   C315    1.426   .     S
C298   C314    1.398   .     A
C298   H328    1.081   .     S
C298   C374    1.373   .     S
C299   H329    1.077   .     S
C299   C314    1.392   .     A
C299   C400    1.366   .     S
C300   H330    1.081   .     S
C300   C315    1.398   .     A
C301   C305    1.373   .     A
C301   C312    1.405   .     A
C301   H327    1.079   .     S
C302   C306    1.386   .     A
C302   H338    1.081   .     S
C302   C313    1.407   .     A
C303   H348    1.079   .     S
C303   C307    1.373   .     A
C303   C313    1.405   .     A
C304   H349    1.081   .     S
C304   C309    1.386   .     A
C304   C312    1.407   .     A
C305   C310    1.391   .     A
C305   H350    1.073   .     S
C306   C311    1.400   .     A
C306   H351    1.083   .     S
C307   C311    1.391   .     A
C307   H352    1.073   .     S
C308   O363    1.287   .     A
C308   C314    1.426   .     S
C308   O362    1.293   .     A
C309   C310    1.400   .     A
C309   H353    1.083   .     S
C310   C319    1.446   .     S
C311   C321    1.446   .     S
C312   C979    1.468   1_554 S
C313   C978    1.468   .     S
C315   C326    1.392   .     A
C316   H334    1.110   .     S
C316   H333    1.107   .     S
C316   H332    1.107   .     S
C316   N357    1.446   .     S
C317   N358    1.445   .     S
C317   H336    1.107   .     S
C317   H337    1.108   .     S
C317   H339    1.111   .     S
C318   H341    1.107   .     S
C318   H343    1.110   .     S
C318   H342    1.107   .     S
C318   N359    1.446   .     S
C319   O365    1.299   .     A
C319   O368    1.292   .     A
C320   H347    1.111   .     S
C320   N360    1.445   .     S
C320   H346    1.108   .     S
C320   H345    1.107   .     S
C321   O367    1.299   .     A
C321   O366    1.292   .     A
C322   N357    1.422   .     S
C322   N356    1.370   .     A
C323   N358    1.421   .     S
C323   N355    1.372   .     A
C323   C546    1.436   .     S
C324   N356    1.370   .     A
C324   N359    1.422   .     S
C325   N360    1.421   .     S
C325   N355    1.372   .     A
C325   C544    1.436   .     S
C326   H354    1.077   .     S
H331   N357    1.031   .     S
H335   N358    1.030   .     S
H340   N359    1.031   .     S
H344   N360    1.030   .     S
N355   Zn369   2.023   .     S
N356   Zn370   2.023   .     S
O361   Zn369   2.006   .     S
O362   Zn370   2.006   .     S
O363   Zn369   2.006   .     S
O364   Zn370   2.006   .     S
O365   Zn369   2.015   .     S
O366   Zn370   2.015   .     S
O367   Zn369   2.015   .     S
O368   Zn370   2.015   .     S
C371   O435    1.287   .     A
C371   O438    1.293   .     A
C371   C389    1.426   .     S
C372   C388    1.398   .     A
C372   H402    1.081   .     S
C372   C226    1.373   1_655 S
C373   H403    1.077   .     S
C373   C388    1.392   .     A
C373   C252    1.366   1_655 S
C374   H404    1.081   .     S
C374   C389    1.398   .     A
C375   C379    1.373   .     A
C375   C386    1.405   .     A
C375   H401    1.079   .     S
C376   C380    1.386   .     A
C376   H412    1.081   .     S
C376   C387    1.407   .     A
C377   H422    1.079   .     S
C377   C381    1.373   .     A
C377   C387    1.405   .     A
C378   H423    1.081   .     S
C378   C383    1.386   .     A
C378   C386    1.407   .     A
C379   C384    1.391   .     A
C379   H424    1.073   .     S
C380   C385    1.400   .     A
C380   H425    1.083   .     S
C381   C385    1.391   .     A
C381   H426    1.073   .     S
C382   O437    1.287   .     A
C382   C388    1.426   .     S
C382   O436    1.293   .     A
C383   C384    1.400   .     A
C383   H427    1.083   .     S
C384   C393    1.446   .     S
C385   C395    1.446   .     S
C386   C1053   1.468   1_554 S
C387   C1052   1.468   .     S
C389   C400    1.392   .     A
C390   H408    1.110   .     S
C390   H407    1.107   .     S
C390   H406    1.107   .     S
C390   N431    1.446   .     S
C391   N432    1.445   .     S
C391   H410    1.107   .     S
C391   H411    1.108   .     S
C391   H413    1.111   .     S
C392   H415    1.107   .     S
C392   H417    1.110   .     S
C392   H416    1.107   .     S
C392   N433    1.446   .     S
C393   O439    1.299   .     A
C393   O442    1.292   .     A
C394   H421    1.111   .     S
C394   N434    1.445   .     S
C394   H420    1.108   .     S
C394   H419    1.107   .     S
C395   O441    1.299   .     A
C395   O440    1.292   .     A
C396   N431    1.422   .     S
C396   N430    1.370   .     A
C397   N432    1.421   .     S
C397   N429    1.372   .     A
C397   C620    1.436   .     S
C398   N430    1.370   .     A
C398   N433    1.422   .     S
C399   N434    1.421   .     S
C399   N429    1.372   .     A
C399   C618    1.436   .     S
C400   H428    1.077   .     S
H405   N431    1.031   .     S
H409   N432    1.030   .     S
H414   N433    1.031   .     S
H418   N434    1.030   .     S
N429   Zn443   2.023   .     S
N430   Zn444   2.023   .     S
O435   Zn443   2.006   .     S
O436   Zn444   2.006   .     S
O437   Zn443   2.006   .     S
O438   Zn444   2.006   .     S
O439   Zn443   2.015   .     S
O440   Zn444   2.015   .     S
O441   Zn443   2.015   .     S
O442   Zn444   2.015   .     S
C445   O509    1.287   .     A
C445   O512    1.293   .     A
C445   C463    1.426   .     S
C446   C462    1.398   .     A
C446   H476    1.081   .     S
C446   C522    1.373   .     S
C447   H477    1.077   .     S
C447   C462    1.392   .     A
C447   C548    1.366   .     S
C448   H478    1.081   .     S
C448   C463    1.398   .     A
C448   C594    1.373   1_455 S
C449   C453    1.373   .     A
C449   C460    1.405   .     A
C449   H475    1.079   .     S
C450   C454    1.386   .     A
C450   H486    1.081   .     S
C450   C461    1.407   .     A
C451   H496    1.079   .     S
C451   C455    1.373   .     A
C451   C461    1.405   .     A
C452   H497    1.081   .     S
C452   C457    1.386   .     A
C452   C460    1.407   .     A
C453   C458    1.391   .     A
C453   H498    1.073   .     S
C454   C459    1.400   .     A
C454   H499    1.083   .     S
C455   C459    1.391   .     A
C455   H500    1.073   .     S
C456   O511    1.287   .     A
C456   C462    1.426   .     S
C456   O510    1.293   .     A
C457   C458    1.400   .     A
C457   H501    1.083   .     S
C458   C467    1.446   .     S
C459   C469    1.446   .     S
C460   C1127   1.468   1_554 S
C461   C1126   1.468   .     S
C463   C474    1.392   .     A
C464   H482    1.110   .     S
C464   H481    1.107   .     S
C464   H480    1.107   .     S
C464   N505    1.446   .     S
C465   N506    1.445   .     S
C465   H484    1.107   .     S
C465   H485    1.108   .     S
C465   H487    1.111   .     S
C466   H489    1.107   .     S
C466   H491    1.110   .     S
C466   H490    1.107   .     S
C466   N507    1.446   .     S
C467   O513    1.299   .     A
C467   O516    1.292   .     A
C468   H495    1.111   .     S
C468   N508    1.445   .     S
C468   H494    1.108   .     S
C468   H493    1.107   .     S
C469   O515    1.299   .     A
C469   O514    1.292   .     A
C470   N505    1.422   .     S
C470   N504    1.370   .     A
C471   N506    1.421   .     S
C471   N503    1.372   .     A
C471   C28     1.436   1_565 S
C472   N504    1.370   .     A
C472   N507    1.422   .     S
C473   N508    1.421   .     S
C473   N503    1.372   .     A
C473   C26     1.436   1_565 S
C474   H502    1.077   .     S
C474   C595    1.366   1_455 S
H479   N505    1.031   .     S
H483   N506    1.030   .     S
H488   N507    1.031   .     S
H492   N508    1.030   .     S
N503   Zn517   2.023   .     S
N504   Zn518   2.023   .     S
O509   Zn517   2.006   .     S
O510   Zn518   2.006   .     S
O511   Zn517   2.006   .     S
O512   Zn518   2.006   .     S
O513   Zn517   2.015   .     S
O514   Zn518   2.015   .     S
O515   Zn517   2.015   .     S
O516   Zn518   2.015   .     S
C519   O583    1.287   .     A
C519   O586    1.293   .     A
C519   C537    1.426   .     S
C520   C536    1.398   .     A
C520   H550    1.081   .     S
C520   C596    1.373   .     S
C521   H551    1.077   .     S
C521   C536    1.392   .     A
C521   C622    1.366   .     S
C522   H552    1.081   .     S
C522   C537    1.398   .     A
C523   C527    1.373   .     A
C523   C534    1.405   .     A
C523   H549    1.079   .     S
C524   C528    1.386   .     A
C524   H560    1.081   .     S
C524   C535    1.407   .     A
C525   H570    1.079   .     S
C525   C529    1.373   .     A
C525   C535    1.405   .     A
C526   H571    1.081   .     S
C526   C531    1.386   .     A
C526   C534    1.407   .     A
C527   C532    1.391   .     A
C527   H572    1.073   .     S
C528   C533    1.400   .     A
C528   H573    1.083   .     S
C529   C533    1.391   .     A
C529   H574    1.073   .     S
C530   O585    1.287   .     A
C530   C536    1.426   .     S
C530   O584    1.293   .     A
C531   C532    1.400   .     A
C531   H575    1.083   .     S
C532   C541    1.446   .     S
C533   C543    1.446   .     S
C534   C1201   1.468   1_554 S
C535   C1200   1.468   .     S
C537   C548    1.392   .     A
C538   H556    1.110   .     S
C538   H555    1.107   .     S
C538   H554    1.107   .     S
C538   N579    1.446   .     S
C539   N580    1.445   .     S
C539   H558    1.107   .     S
C539   H559    1.108   .     S
C539   H561    1.111   .     S
C540   H563    1.107   .     S
C540   H565    1.110   .     S
C540   H564    1.107   .     S
C540   N581    1.446   .     S
C541   O587    1.299   .     A
C541   O590    1.292   .     A
C542   H569    1.111   .     S
C542   N582    1.445   .     S
C542   H568    1.108   .     S
C542   H567    1.107   .     S
C543   O589    1.299   .     A
C543   O588    1.292   .     A
C544   N579    1.422   .     S
C544   N578    1.370   .     A
C545   N580    1.421   .     S
C545   N577    1.372   .     A
C545   C102    1.436   1_565 S
C546   N578    1.370   .     A
C546   N581    1.422   .     S
C547   N582    1.421   .     S
C547   N577    1.372   .     A
C547   C100    1.436   1_565 S
C548   H576    1.077   .     S
H553   N579    1.031   .     S
H557   N580    1.030   .     S
H562   N581    1.031   .     S
H566   N582    1.030   .     S
N577   Zn591   2.023   .     S
N578   Zn592   2.023   .     S
O583   Zn591   2.006   .     S
O584   Zn592   2.006   .     S
O585   Zn591   2.006   .     S
O586   Zn592   2.006   .     S
O587   Zn591   2.015   .     S
O588   Zn592   2.015   .     S
O589   Zn591   2.015   .     S
O590   Zn592   2.015   .     S
C593   O657    1.287   .     A
C593   O660    1.293   .     A
C593   C611    1.426   .     S
C594   C610    1.398   .     A
C594   H624    1.081   .     S
C594   C448    1.373   1_655 S
C595   H625    1.077   .     S
C595   C610    1.392   .     A
C595   C474    1.366   1_655 S
C596   H626    1.081   .     S
C596   C611    1.398   .     A
C597   C601    1.373   .     A
C597   C608    1.405   .     A
C597   H623    1.079   .     S
C598   C602    1.386   .     A
C598   H634    1.081   .     S
C598   C609    1.407   .     A
C599   H644    1.079   .     S
C599   C603    1.373   .     A
C599   C609    1.405   .     A
C600   H645    1.081   .     S
C600   C605    1.386   .     A
C600   C608    1.407   .     A
C601   C606    1.391   .     A
C601   H646    1.073   .     S
C602   C607    1.400   .     A
C602   H647    1.083   .     S
C603   C607    1.391   .     A
C603   H648    1.073   .     S
C604   O659    1.287   .     A
C604   C610    1.426   .     S
C604   O658    1.293   .     A
C605   C606    1.400   .     A
C605   H649    1.083   .     S
C606   C615    1.446   .     S
C607   C617    1.446   .     S
C608   C1275   1.468   1_554 S
C609   C1274   1.468   .     S
C611   C622    1.392   .     A
C612   H630    1.110   .     S
C612   H629    1.107   .     S
C612   H628    1.107   .     S
C612   N653    1.446   .     S
C613   N654    1.445   .     S
C613   H632    1.107   .     S
C613   H633    1.108   .     S
C613   H635    1.111   .     S
C614   H637    1.107   .     S
C614   H639    1.110   .     S
C614   H638    1.107   .     S
C614   N655    1.446   .     S
C615   O661    1.299   .     A
C615   O664    1.292   .     A
C616   H643    1.111   .     S
C616   N656    1.445   .     S
C616   H642    1.108   .     S
C616   H641    1.107   .     S
C617   O663    1.299   .     A
C617   O662    1.292   .     A
C618   N653    1.422   .     S
C618   N652    1.370   .     A
C619   N654    1.421   .     S
C619   N651    1.372   .     A
C619   C176    1.436   1_565 S
C620   N652    1.370   .     A
C620   N655    1.422   .     S
C621   N656    1.421   .     S
C621   N651    1.372   .     A
C621   C174    1.436   1_565 S
C622   H650    1.077   .     S
H627   N653    1.031   .     S
H631   N654    1.030   .     S
H636   N655    1.031   .     S
H640   N656    1.030   .     S
N651   Zn665   2.023   .     S
N652   Zn666   2.023   .     S
O657   Zn665   2.006   .     S
O658   Zn666   2.006   .     S
O659   Zn665   2.006   .     S
O660   Zn666   2.006   .     S
O661   Zn665   2.015   .     S
O662   Zn666   2.015   .     S
O663   Zn665   2.015   .     S
O664   Zn666   2.015   .     S
C667   O731    1.287   .     A
C667   O734    1.293   .     A
C667   C685    1.426   .     S
C668   C684    1.398   .     A
C668   H698    1.081   .     S
C668   C744    1.373   .     S
C669   H699    1.077   .     S
C669   C684    1.392   .     A
C669   C770    1.366   .     S
C670   H700    1.081   .     S
C670   C685    1.398   .     A
C670   C816    1.373   1_455 S
C671   C675    1.373   .     A
C671   C682    1.405   .     A
C671   H697    1.079   .     S
C672   C676    1.386   .     A
C672   H708    1.081   .     S
C672   C683    1.407   .     A
C673   H718    1.079   .     S
C673   C677    1.373   .     A
C673   C683    1.405   .     A
C674   H719    1.081   .     S
C674   C679    1.386   .     A
C674   C682    1.407   .     A
C675   C680    1.391   .     A
C675   H720    1.073   .     S
C676   C681    1.400   .     A
C676   H721    1.083   .     S
C677   C681    1.391   .     A
C677   H722    1.073   .     S
C678   O733    1.287   .     A
C678   C684    1.426   .     S
C678   O732    1.293   .     A
C679   C680    1.400   .     A
C679   H723    1.083   .     S
C680   C689    1.446   .     S
C681   C691    1.446   .     S
C683   C16     1.468   1_556 S
C685   C696    1.392   .     A
C686   H704    1.110   .     S
C686   H703    1.107   .     S
C686   H702    1.107   .     S
C686   N727    1.446   .     S
C687   N728    1.445   .     S
C687   H706    1.107   .     S
C687   H707    1.108   .     S
C687   H709    1.111   .     S
C688   H711    1.107   .     S
C688   H713    1.110   .     S
C688   H712    1.107   .     S
C688   N729    1.446   .     S
C689   O735    1.299   .     A
C689   O738    1.292   .     A
C690   H717    1.111   .     S
C690   N730    1.445   .     S
C690   H716    1.108   .     S
C690   H715    1.107   .     S
C691   O737    1.299   .     A
C691   O736    1.292   .     A
C692   N727    1.422   .     S
C692   N726    1.370   .     A
C692   C1139   1.436   1_545 S
C693   N728    1.421   .     S
C693   N725    1.372   .     A
C693   C916    1.436   .     S
C694   N726    1.370   .     A
C694   N729    1.422   .     S
C694   C1137   1.436   1_545 S
C695   N730    1.421   .     S
C695   N725    1.372   .     A
C695   C914    1.436   .     S
C696   H724    1.077   .     S
C696   C817    1.366   1_455 S
H701   N727    1.031   .     S
H705   N728    1.030   .     S
H710   N729    1.031   .     S
H714   N730    1.030   .     S
N725   Zn739   2.023   .     S
N726   Zn740   2.023   .     S
O731   Zn739   2.006   .     S
O732   Zn740   2.006   .     S
O733   Zn739   2.006   .     S
O734   Zn740   2.006   .     S
O735   Zn739   2.015   .     S
O736   Zn740   2.015   .     S
O737   Zn739   2.015   .     S
O738   Zn740   2.015   .     S
C741   O805    1.287   .     A
C741   O808    1.293   .     A
C741   C759    1.426   .     S
C742   C758    1.398   .     A
C742   H772    1.081   .     S
C742   C818    1.373   .     S
C743   H773    1.077   .     S
C743   C758    1.392   .     A
C743   C844    1.366   .     S
C744   H774    1.081   .     S
C744   C759    1.398   .     A
C745   C749    1.373   .     A
C745   C756    1.405   .     A
C745   H771    1.079   .     S
C746   C750    1.386   .     A
C746   H782    1.081   .     S
C746   C757    1.407   .     A
C747   H792    1.079   .     S
C747   C751    1.373   .     A
C747   C757    1.405   .     A
C748   H793    1.081   .     S
C748   C753    1.386   .     A
C748   C756    1.407   .     A
C749   C754    1.391   .     A
C749   H794    1.073   .     S
C750   C755    1.400   .     A
C750   H795    1.083   .     S
C751   C755    1.391   .     A
C751   H796    1.073   .     S
C752   O807    1.287   .     A
C752   C758    1.426   .     S
C752   O806    1.293   .     A
C753   C754    1.400   .     A
C753   H797    1.083   .     S
C754   C763    1.446   .     S
C755   C765    1.446   .     S
C757   C90     1.468   1_556 S
C759   C770    1.392   .     A
C760   H778    1.110   .     S
C760   H777    1.107   .     S
C760   H776    1.107   .     S
C760   N801    1.446   .     S
C761   N802    1.445   .     S
C761   H780    1.107   .     S
C761   H781    1.108   .     S
C761   H783    1.111   .     S
C762   H785    1.107   .     S
C762   H787    1.110   .     S
C762   H786    1.107   .     S
C762   N803    1.446   .     S
C763   O809    1.299   .     A
C763   O812    1.292   .     A
C764   H791    1.111   .     S
C764   N804    1.445   .     S
C764   H790    1.108   .     S
C764   H789    1.107   .     S
C765   O811    1.299   .     A
C765   O810    1.292   .     A
C766   N801    1.422   .     S
C766   N800    1.370   .     A
C766   C1213   1.436   1_545 S
C767   N802    1.421   .     S
C767   N799    1.372   .     A
C767   C990    1.436   .     S
C768   N800    1.370   .     A
C768   N803    1.422   .     S
C768   C1211   1.436   1_545 S
C769   N804    1.421   .     S
C769   N799    1.372   .     A
C769   C988    1.436   .     S
C770   H798    1.077   .     S
H775   N801    1.031   .     S
H779   N802    1.030   .     S
H784   N803    1.031   .     S
H788   N804    1.030   .     S
N799   Zn813   2.023   .     S
N800   Zn814   2.023   .     S
O805   Zn813   2.006   .     S
O806   Zn814   2.006   .     S
O807   Zn813   2.006   .     S
O808   Zn814   2.006   .     S
O809   Zn813   2.015   .     S
O810   Zn814   2.015   .     S
O811   Zn813   2.015   .     S
O812   Zn814   2.015   .     S
C815   O879    1.287   .     A
C815   O882    1.293   .     A
C815   C833    1.426   .     S
C816   C832    1.398   .     A
C816   H846    1.081   .     S
C816   C670    1.373   1_655 S
C817   H847    1.077   .     S
C817   C832    1.392   .     A
C817   C696    1.366   1_655 S
C818   H848    1.081   .     S
C818   C833    1.398   .     A
C819   C823    1.373   .     A
C819   C830    1.405   .     A
C819   H845    1.079   .     S
C820   C824    1.386   .     A
C820   H856    1.081   .     S
C820   C831    1.407   .     A
C821   H866    1.079   .     S
C821   C825    1.373   .     A
C821   C831    1.405   .     A
C822   H867    1.081   .     S
C822   C827    1.386   .     A
C822   C830    1.407   .     A
C823   C828    1.391   .     A
C823   H868    1.073   .     S
C824   C829    1.400   .     A
C824   H869    1.083   .     S
C825   C829    1.391   .     A
C825   H870    1.073   .     S
C826   O881    1.287   .     A
C826   C832    1.426   .     S
C826   O880    1.293   .     A
C827   C828    1.400   .     A
C827   H871    1.083   .     S
C828   C837    1.446   .     S
C829   C839    1.446   .     S
C831   C164    1.468   1_556 S
C833   C844    1.392   .     A
C834   H852    1.110   .     S
C834   H851    1.107   .     S
C834   H850    1.107   .     S
C834   N875    1.446   .     S
C835   N876    1.445   .     S
C835   H854    1.107   .     S
C835   H855    1.108   .     S
C835   H857    1.111   .     S
C836   H859    1.107   .     S
C836   H861    1.110   .     S
C836   H860    1.107   .     S
C836   N877    1.446   .     S
C837   O883    1.299   .     A
C837   O886    1.292   .     A
C838   H865    1.111   .     S
C838   N878    1.445   .     S
C838   H864    1.108   .     S
C838   H863    1.107   .     S
C839   O885    1.299   .     A
C839   O884    1.292   .     A
C840   N875    1.422   .     S
C840   N874    1.370   .     A
C840   C1287   1.436   1_545 S
C841   N876    1.421   .     S
C841   N873    1.372   .     A
C841   C1064   1.436   .     S
C842   N874    1.370   .     A
C842   N877    1.422   .     S
C842   C1285   1.436   1_545 S
C843   N878    1.421   .     S
C843   N873    1.372   .     A
C843   C1062   1.436   .     S
C844   H872    1.077   .     S
H849   N875    1.031   .     S
H853   N876    1.030   .     S
H858   N877    1.031   .     S
H862   N878    1.030   .     S
N873   Zn887   2.023   .     S
N874   Zn888   2.023   .     S
O879   Zn887   2.006   .     S
O880   Zn888   2.006   .     S
O881   Zn887   2.006   .     S
O882   Zn888   2.006   .     S
O883   Zn887   2.015   .     S
O884   Zn888   2.015   .     S
O885   Zn887   2.015   .     S
O886   Zn888   2.015   .     S
C889   O953    1.287   .     A
C889   O956    1.293   .     A
C889   C907    1.426   .     S
C890   C906    1.398   .     A
C890   H920    1.081   .     S
C890   C966    1.373   .     S
C891   H921    1.077   .     S
C891   C906    1.392   .     A
C891   C992    1.366   .     S
C892   H922    1.081   .     S
C892   C907    1.398   .     A
C892   C1038   1.373   1_455 S
C893   C897    1.373   .     A
C893   C904    1.405   .     A
C893   H919    1.079   .     S
C894   C898    1.386   .     A
C894   H930    1.081   .     S
C894   C905    1.407   .     A
C895   H940    1.079   .     S
C895   C899    1.373   .     A
C895   C905    1.405   .     A
C896   H941    1.081   .     S
C896   C901    1.386   .     A
C896   C904    1.407   .     A
C897   C902    1.391   .     A
C897   H942    1.073   .     S
C898   C903    1.400   .     A
C898   H943    1.083   .     S
C899   C903    1.391   .     A
C899   H944    1.073   .     S
C900   O955    1.287   .     A
C900   C906    1.426   .     S
C900   O954    1.293   .     A
C901   C902    1.400   .     A
C901   H945    1.083   .     S
C902   C911    1.446   .     S
C903   C913    1.446   .     S
C905   C238    1.468   1_556 S
C907   C918    1.392   .     A
C908   H926    1.110   .     S
C908   H925    1.107   .     S
C908   H924    1.107   .     S
C908   N949    1.446   .     S
C909   N950    1.445   .     S
C909   H928    1.107   .     S
C909   H929    1.108   .     S
C909   H931    1.111   .     S
C910   H933    1.107   .     S
C910   H935    1.110   .     S
C910   H934    1.107   .     S
C910   N951    1.446   .     S
C911   O957    1.299   .     A
C911   O960    1.292   .     A
C912   H939    1.111   .     S
C912   N952    1.445   .     S
C912   H938    1.108   .     S
C912   H937    1.107   .     S
C913   O959    1.299   .     A
C913   O958    1.292   .     A
C914   N949    1.422   .     S
C914   N948    1.370   .     A
C915   N950    1.421   .     S
C915   N947    1.372   .     A
C915   C1138   1.436   .     S
C916   N948    1.370   .     A
C916   N951    1.422   .     S
C917   N952    1.421   .     S
C917   N947    1.372   .     A
C917   C1136   1.436   .     S
C918   H946    1.077   .     S
C918   C1039   1.366   1_455 S
H923   N949    1.031   .     S
H927   N950    1.030   .     S
H932   N951    1.031   .     S
H936   N952    1.030   .     S
N947   Zn961   2.023   .     S
N948   Zn962   2.023   .     S
O953   Zn961   2.006   .     S
O954   Zn962   2.006   .     S
O955   Zn961   2.006   .     S
O956   Zn962   2.006   .     S
O957   Zn961   2.015   .     S
O958   Zn962   2.015   .     S
O959   Zn961   2.015   .     S
O960   Zn962   2.015   .     S
C963   O1027   1.287   .     A
C963   O1030   1.293   .     A
C963   C981    1.426   .     S
C964   C980    1.398   .     A
C964   H994    1.081   .     S
C964   C1040   1.373   .     S
C965   H995    1.077   .     S
C965   C980    1.392   .     A
C965   C1066   1.366   .     S
C966   H996    1.081   .     S
C966   C981    1.398   .     A
C967   C971    1.373   .     A
C967   C978    1.405   .     A
C967   H993    1.079   .     S
C968   C972    1.386   .     A
C968   H1004   1.081   .     S
C968   C979    1.407   .     A
C969   H1014   1.079   .     S
C969   C973    1.373   .     A
C969   C979    1.405   .     A
C970   H1015   1.081   .     S
C970   C975    1.386   .     A
C970   C978    1.407   .     A
C971   C976    1.391   .     A
C971   H1016   1.073   .     S
C972   C977    1.400   .     A
C972   H1017   1.083   .     S
C973   C977    1.391   .     A
C973   H1018   1.073   .     S
C974   O1029   1.287   .     A
C974   C980    1.426   .     S
C974   O1028   1.293   .     A
C975   C976    1.400   .     A
C975   H1019   1.083   .     S
C976   C985    1.446   .     S
C977   C987    1.446   .     S
C979   C312    1.468   1_556 S
C981   C992    1.392   .     A
C982   H1000   1.110   .     S
C982   H999    1.107   .     S
C982   H998    1.107   .     S
C982   N1023   1.446   .     S
C983   N1024   1.445   .     S
C983   H1002   1.107   .     S
C983   H1003   1.108   .     S
C983   H1005   1.111   .     S
C984   H1007   1.107   .     S
C984   H1009   1.110   .     S
C984   H1008   1.107   .     S
C984   N1025   1.446   .     S
C985   O1031   1.299   .     A
C985   O1034   1.292   .     A
C986   H1013   1.111   .     S
C986   N1026   1.445   .     S
C986   H1012   1.108   .     S
C986   H1011   1.107   .     S
C987   O1033   1.299   .     A
C987   O1032   1.292   .     A
C988   N1023   1.422   .     S
C988   N1022   1.370   .     A
C989   N1024   1.421   .     S
C989   N1021   1.372   .     A
C989   C1212   1.436   .     S
C990   N1022   1.370   .     A
C990   N1025   1.422   .     S
C991   N1026   1.421   .     S
C991   N1021   1.372   .     A
C991   C1210   1.436   .     S
C992   H1020   1.077   .     S
H997   N1023   1.031   .     S
H1001  N1024   1.030   .     S
H1006  N1025   1.031   .     S
H1010  N1026   1.030   .     S
N1021  Zn1035  2.023   .     S
N1022  Zn1036  2.023   .     S
O1027  Zn1035  2.006   .     S
O1028  Zn1036  2.006   .     S
O1029  Zn1035  2.006   .     S
O1030  Zn1036  2.006   .     S
O1031  Zn1035  2.015   .     S
O1032  Zn1036  2.015   .     S
O1033  Zn1035  2.015   .     S
O1034  Zn1036  2.015   .     S
C1037  O1101   1.287   .     A
C1037  O1104   1.293   .     A
C1037  C1055   1.426   .     S
C1038  C1054   1.398   .     A
C1038  H1068   1.081   .     S
C1038  C892    1.373   1_655 S
C1039  H1069   1.077   .     S
C1039  C1054   1.392   .     A
C1039  C918    1.366   1_655 S
C1040  H1070   1.081   .     S
C1040  C1055   1.398   .     A
C1041  C1045   1.373   .     A
C1041  C1052   1.405   .     A
C1041  H1067   1.079   .     S
C1042  C1046   1.386   .     A
C1042  H1078   1.081   .     S
C1042  C1053   1.407   .     A
C1043  H1088   1.079   .     S
C1043  C1047   1.373   .     A
C1043  C1053   1.405   .     A
C1044  H1089   1.081   .     S
C1044  C1049   1.386   .     A
C1044  C1052   1.407   .     A
C1045  C1050   1.391   .     A
C1045  H1090   1.073   .     S
C1046  C1051   1.400   .     A
C1046  H1091   1.083   .     S
C1047  C1051   1.391   .     A
C1047  H1092   1.073   .     S
C1048  O1103   1.287   .     A
C1048  C1054   1.426   .     S
C1048  O1102   1.293   .     A
C1049  C1050   1.400   .     A
C1049  H1093   1.083   .     S
C1050  C1059   1.446   .     S
C1051  C1061   1.446   .     S
C1053  C386    1.468   1_556 S
C1055  C1066   1.392   .     A
C1056  H1074   1.110   .     S
C1056  H1073   1.107   .     S
C1056  H1072   1.107   .     S
C1056  N1097   1.446   .     S
C1057  N1098   1.445   .     S
C1057  H1076   1.107   .     S
C1057  H1077   1.108   .     S
C1057  H1079   1.111   .     S
C1058  H1081   1.107   .     S
C1058  H1083   1.110   .     S
C1058  H1082   1.107   .     S
C1058  N1099   1.446   .     S
C1059  O1105   1.299   .     A
C1059  O1108   1.292   .     A
C1060  H1087   1.111   .     S
C1060  N1100   1.445   .     S
C1060  H1086   1.108   .     S
C1060  H1085   1.107   .     S
C1061  O1107   1.299   .     A
C1061  O1106   1.292   .     A
C1062  N1097   1.422   .     S
C1062  N1096   1.370   .     A
C1063  N1098   1.421   .     S
C1063  N1095   1.372   .     A
C1063  C1286   1.436   .     S
C1064  N1096   1.370   .     A
C1064  N1099   1.422   .     S
C1065  N1100   1.421   .     S
C1065  N1095   1.372   .     A
C1065  C1284   1.436   .     S
C1066  H1094   1.077   .     S
H1071  N1097   1.031   .     S
H1075  N1098   1.030   .     S
H1080  N1099   1.031   .     S
H1084  N1100   1.030   .     S
N1095  Zn1109  2.023   .     S
N1096  Zn1110  2.023   .     S
O1101  Zn1109  2.006   .     S
O1102  Zn1110  2.006   .     S
O1103  Zn1109  2.006   .     S
O1104  Zn1110  2.006   .     S
O1105  Zn1109  2.015   .     S
O1106  Zn1110  2.015   .     S
O1107  Zn1109  2.015   .     S
O1108  Zn1110  2.015   .     S
C1111  O1175   1.287   .     A
C1111  O1178   1.293   .     A
C1111  C1129   1.426   .     S
C1112  C1128   1.398   .     A
C1112  H1142   1.081   .     S
C1112  C1188   1.373   .     S
C1113  H1143   1.077   .     S
C1113  C1128   1.392   .     A
C1113  C1214   1.366   .     S
C1114  H1144   1.081   .     S
C1114  C1129   1.398   .     A
C1114  C1260   1.373   1_455 S
C1115  C1119   1.373   .     A
C1115  C1126   1.405   .     A
C1115  H1141   1.079   .     S
C1116  C1120   1.386   .     A
C1116  H1152   1.081   .     S
C1116  C1127   1.407   .     A
C1117  H1162   1.079   .     S
C1117  C1121   1.373   .     A
C1117  C1127   1.405   .     A
C1118  H1163   1.081   .     S
C1118  C1123   1.386   .     A
C1118  C1126   1.407   .     A
C1119  C1124   1.391   .     A
C1119  H1164   1.073   .     S
C1120  C1125   1.400   .     A
C1120  H1165   1.083   .     S
C1121  C1125   1.391   .     A
C1121  H1166   1.073   .     S
C1122  O1177   1.287   .     A
C1122  C1128   1.426   .     S
C1122  O1176   1.293   .     A
C1123  C1124   1.400   .     A
C1123  H1167   1.083   .     S
C1124  C1133   1.446   .     S
C1125  C1135   1.446   .     S
C1127  C460    1.468   1_556 S
C1129  C1140   1.392   .     A
C1130  H1148   1.110   .     S
C1130  H1147   1.107   .     S
C1130  H1146   1.107   .     S
C1130  N1171   1.446   .     S
C1131  N1172   1.445   .     S
C1131  H1150   1.107   .     S
C1131  H1151   1.108   .     S
C1131  H1153   1.111   .     S
C1132  H1155   1.107   .     S
C1132  H1157   1.110   .     S
C1132  H1156   1.107   .     S
C1132  N1173   1.446   .     S
C1133  O1179   1.299   .     A
C1133  O1182   1.292   .     A
C1134  H1161   1.111   .     S
C1134  N1174   1.445   .     S
C1134  H1160   1.108   .     S
C1134  H1159   1.107   .     S
C1135  O1181   1.299   .     A
C1135  O1180   1.292   .     A
C1136  N1171   1.422   .     S
C1136  N1170   1.370   .     A
C1137  N1172   1.421   .     S
C1137  N1169   1.372   .     A
C1137  C694    1.436   1_565 S
C1138  N1170   1.370   .     A
C1138  N1173   1.422   .     S
C1139  N1174   1.421   .     S
C1139  N1169   1.372   .     A
C1139  C692    1.436   1_565 S
C1140  H1168   1.077   .     S
C1140  C1261   1.366   1_455 S
H1145  N1171   1.031   .     S
H1149  N1172   1.030   .     S
H1154  N1173   1.031   .     S
H1158  N1174   1.030   .     S
N1169  Zn1183  2.023   .     S
N1170  Zn1184  2.023   .     S
O1175  Zn1183  2.006   .     S
O1176  Zn1184  2.006   .     S
O1177  Zn1183  2.006   .     S
O1178  Zn1184  2.006   .     S
O1179  Zn1183  2.015   .     S
O1180  Zn1184  2.015   .     S
O1181  Zn1183  2.015   .     S
O1182  Zn1184  2.015   .     S
C1185  O1249   1.287   .     A
C1185  O1252   1.293   .     A
C1185  C1203   1.426   .     S
C1186  C1202   1.398   .     A
C1186  H1216   1.081   .     S
C1186  C1262   1.373   .     S
C1187  H1217   1.077   .     S
C1187  C1202   1.392   .     A
C1187  C1288   1.366   .     S
C1188  H1218   1.081   .     S
C1188  C1203   1.398   .     A
C1189  C1193   1.373   .     A
C1189  C1200   1.405   .     A
C1189  H1215   1.079   .     S
C1190  C1194   1.386   .     A
C1190  H1226   1.081   .     S
C1190  C1201   1.407   .     A
C1191  H1236   1.079   .     S
C1191  C1195   1.373   .     A
C1191  C1201   1.405   .     A
C1192  H1237   1.081   .     S
C1192  C1197   1.386   .     A
C1192  C1200   1.407   .     A
C1193  C1198   1.391   .     A
C1193  H1238   1.073   .     S
C1194  C1199   1.400   .     A
C1194  H1239   1.083   .     S
C1195  C1199   1.391   .     A
C1195  H1240   1.073   .     S
C1196  O1251   1.287   .     A
C1196  C1202   1.426   .     S
C1196  O1250   1.293   .     A
C1197  C1198   1.400   .     A
C1197  H1241   1.083   .     S
C1198  C1207   1.446   .     S
C1199  C1209   1.446   .     S
C1201  C534    1.468   1_556 S
C1203  C1214   1.392   .     A
C1204  H1222   1.110   .     S
C1204  H1221   1.107   .     S
C1204  H1220   1.107   .     S
C1204  N1245   1.446   .     S
C1205  N1246   1.445   .     S
C1205  H1224   1.107   .     S
C1205  H1225   1.108   .     S
C1205  H1227   1.111   .     S
C1206  H1229   1.107   .     S
C1206  H1231   1.110   .     S
C1206  H1230   1.107   .     S
C1206  N1247   1.446   .     S
C1207  O1253   1.299   .     A
C1207  O1256   1.292   .     A
C1208  H1235   1.111   .     S
C1208  N1248   1.445   .     S
C1208  H1234   1.108   .     S
C1208  H1233   1.107   .     S
C1209  O1255   1.299   .     A
C1209  O1254   1.292   .     A
C1210  N1245   1.422   .     S
C1210  N1244   1.370   .     A
C1211  N1246   1.421   .     S
C1211  N1243   1.372   .     A
C1211  C768    1.436   1_565 S
C1212  N1244   1.370   .     A
C1212  N1247   1.422   .     S
C1213  N1248   1.421   .     S
C1213  N1243   1.372   .     A
C1213  C766    1.436   1_565 S
C1214  H1242   1.077   .     S
H1219  N1245   1.031   .     S
H1223  N1246   1.030   .     S
H1228  N1247   1.031   .     S
H1232  N1248   1.030   .     S
N1243  Zn1257  2.023   .     S
N1244  Zn1258  2.023   .     S
O1249  Zn1257  2.006   .     S
O1250  Zn1258  2.006   .     S
O1251  Zn1257  2.006   .     S
O1252  Zn1258  2.006   .     S
O1253  Zn1257  2.015   .     S
O1254  Zn1258  2.015   .     S
O1255  Zn1257  2.015   .     S
O1256  Zn1258  2.015   .     S
C1259  O1323   1.287   .     A
C1259  O1326   1.293   .     A
C1259  C1277   1.426   .     S
C1260  C1276   1.398   .     A
C1260  H1290   1.081   .     S
C1260  C1114   1.373   1_655 S
C1261  H1291   1.077   .     S
C1261  C1276   1.392   .     A
C1261  C1140   1.366   1_655 S
C1262  H1292   1.081   .     S
C1262  C1277   1.398   .     A
C1263  C1267   1.373   .     A
C1263  C1274   1.405   .     A
C1263  H1289   1.079   .     S
C1264  C1268   1.386   .     A
C1264  H1300   1.081   .     S
C1264  C1275   1.407   .     A
C1265  H1310   1.079   .     S
C1265  C1269   1.373   .     A
C1265  C1275   1.405   .     A
C1266  H1311   1.081   .     S
C1266  C1271   1.386   .     A
C1266  C1274   1.407   .     A
C1267  C1272   1.391   .     A
C1267  H1312   1.073   .     S
C1268  C1273   1.400   .     A
C1268  H1313   1.083   .     S
C1269  C1273   1.391   .     A
C1269  H1314   1.073   .     S
C1270  O1325   1.287   .     A
C1270  C1276   1.426   .     S
C1270  O1324   1.293   .     A
C1271  C1272   1.400   .     A
C1271  H1315   1.083   .     S
C1272  C1281   1.446   .     S
C1273  C1283   1.446   .     S
C1275  C608    1.468   1_556 S
C1277  C1288   1.392   .     A
C1278  H1296   1.110   .     S
C1278  H1295   1.107   .     S
C1278  H1294   1.107   .     S
C1278  N1319   1.446   .     S
C1279  N1320   1.445   .     S
C1279  H1298   1.107   .     S
C1279  H1299   1.108   .     S
C1279  H1301   1.111   .     S
C1280  H1303   1.107   .     S
C1280  H1305   1.110   .     S
C1280  H1304   1.107   .     S
C1280  N1321   1.446   .     S
C1281  O1327   1.299   .     A
C1281  O1330   1.292   .     A
C1282  H1309   1.111   .     S
C1282  N1322   1.445   .     S
C1282  H1308   1.108   .     S
C1282  H1307   1.107   .     S
C1283  O1329   1.299   .     A
C1283  O1328   1.292   .     A
C1284  N1319   1.422   .     S
C1284  N1318   1.370   .     A
C1285  N1320   1.421   .     S
C1285  N1317   1.372   .     A
C1285  C842    1.436   1_565 S
C1286  N1318   1.370   .     A
C1286  N1321   1.422   .     S
C1287  N1322   1.421   .     S
C1287  N1317   1.372   .     A
C1287  C840    1.436   1_565 S
C1288  H1316   1.077   .     S
H1293  N1319   1.031   .     S
H1297  N1320   1.030   .     S
H1302  N1321   1.031   .     S
H1306  N1322   1.030   .     S
N1317  Zn1331  2.023   .     S
N1318  Zn1332  2.023   .     S
O1323  Zn1331  2.006   .     S
O1324  Zn1332  2.006   .     S
O1325  Zn1331  2.006   .     S
O1326  Zn1332  2.006   .     S
O1327  Zn1331  2.015   .     S
O1328  Zn1332  2.015   .     S
O1329  Zn1331  2.015   .     S
O1330  Zn1332  2.015   .     S
