data_str_m3_o1_o16_pcu_sym.156
_audit_creation_date              2020-01-03
_audit_creation_method            'Materials Studio'
_symmetry_space_group_name_H-M    'P1'
_symmetry_Int_Tables_number       1
_symmetry_cell_setting            triclinic
loop_
_symmetry_equiv_pos_as_xyz
  x,y,z
_cell_length_a                    29.7462
_cell_length_b                    31.8868
_cell_length_c                    26.5932
_cell_angle_alpha                 91.1311
_cell_angle_beta                  71.1599
_cell_angle_gamma                 90.2481
loop_
_atom_site_label
_atom_site_type_symbol
_atom_site_fract_x
_atom_site_fract_y
_atom_site_fract_z
_atom_site_U_iso_or_equiv
_atom_site_adp_type
_atom_site_occupancy
C1     C     0.16695   0.24641   0.24948   0.00000  Uiso   1.00
C2     C     0.14714   0.17758   0.49142   0.00000  Uiso   1.00
C3     C     0.16120   0.18205   0.43592   0.00000  Uiso   1.00
C4     C     0.18357   0.17354   0.01468   0.00000  Uiso   1.00
C5     C     0.23013   0.16214   0.48265   0.00000  Uiso   1.00
C6     C     0.24410   0.17260   0.42937   0.00000  Uiso   1.00
C7     C     0.21032   0.18759   0.40864   0.00000  Uiso   1.00
C8     C     0.17698   0.18489   0.06720   0.00000  Uiso   1.00
C9     C     0.25032   0.14853   0.06156   0.00000  Uiso   1.00
C10    C     0.12636   0.18012   0.40970   0.00000  Uiso   1.00
C11    C     0.19472   0.31135   0.20433   0.00000  Uiso   1.00
C12    C     0.14087   0.17097   0.35165   0.00000  Uiso   1.00
C13    C     0.19578   0.02169   0.20620   0.00000  Uiso   1.00
C14    C     0.16599   0.04271   0.25117   0.00000  Uiso   1.00
C15    C     0.13680   0.02215   0.29632   0.00000  Uiso   1.00
C16    C     0.13881   0.31198   0.29663   0.00000  Uiso   1.00
C17    C     0.16724   0.29061   0.25033   0.00000  Uiso   1.00
C18    C     0.31613   0.13543   0.22491   0.00000  Uiso   1.00
C19    C     0.03072   0.13565   0.22359   0.00000  Uiso   1.00
C20    C     0.01592   0.19762   0.27644   0.00000  Uiso   1.00
C21    C     0.30227   0.19816   0.27451   0.00000  Uiso   1.00
C22    C     0.16643   0.08690   0.25039   0.00000  Uiso   1.00
C23    C     0.19272   0.16736   0.14877   0.00000  Uiso   1.00
C24    C     0.26253   0.14627   0.00648   0.00000  Uiso   1.00
C25    C     0.20824   0.16863   0.09166   0.00000  Uiso   1.00
C26    C     0.07802   0.18543   0.44034   0.00000  Uiso   1.00
C27    C     0.06422   0.18576   0.49578   0.00000  Uiso   1.00
C28    C     0.09772   0.17613   0.02096   0.00000  Uiso   1.00
H29    H     0.27363   0.13468   0.08072   0.00000  Uiso   1.00
H30    H     0.30360   0.11058   0.20453   0.00000  Uiso   1.00
H31    H     0.27875   0.22364   0.29371   0.00000  Uiso   1.00
H32    H     0.28117   0.17290   0.40509   0.00000  Uiso   1.00
H33    H     0.22337   0.20351   0.37149   0.00000  Uiso   1.00
N34    N     0.04760   0.16668   0.25002   0.00000  Uiso   1.00
N35    N     0.28573   0.16665   0.25001   0.00000  Uiso   1.00
O36    O     0.12846   0.22775   0.25001   0.00000  Uiso   1.00
O37    O     0.20490   0.22774   0.25001   0.00000  Uiso   1.00
O38    O     0.10947   0.16666   0.32681   0.00000  Uiso   1.00
O39    O     0.18591   0.16665   0.32681   0.00000  Uiso   1.00
O40    O     0.12843   0.10559   0.25000   0.00000  Uiso   1.00
O41    O     0.20488   0.10558   0.25000   0.00000  Uiso   1.00
O42    O     0.14742   0.16668   0.17319   0.00000  Uiso   1.00
O43    O     0.22387   0.16667   0.17319   0.00000  Uiso   1.00
Zn44   Zn    0.11562   0.16667   0.25000   0.00000  Uiso   1.00
Zn45   Zn    0.21771   0.16666   0.25000   0.00000  Uiso   1.00
O46    O     0.22478   0.04497   0.16489   0.00000  Uiso   1.00
H47    H     0.25431   0.02888   0.14750   0.00000  Uiso   1.00
C48    C     0.10657   0.04640   0.34390   0.00000  Uiso   1.00
H49    H     0.11289   0.07951   0.34874   0.00000  Uiso   1.00
O50    O     0.07384   0.02996   0.37805   0.00000  Uiso   1.00
O51    O     0.11320   0.29148   0.34250   0.00000  Uiso   1.00
H52    H     0.12554   0.26275   0.34250   0.00000  Uiso   1.00
O53    O     0.05905   0.10368   0.19514   0.00000  Uiso   1.00
H54    H     0.09215   0.11315   0.18469   0.00000  Uiso   1.00
O55    O     0.02819   0.22874   0.30596   0.00000  Uiso   1.00
H56    H     0.05486   0.21825   0.31642   0.00000  Uiso   1.00
O57    O     0.30463   0.12671   0.47819   0.00000  Uiso   1.00
H58    H     0.30312   0.11781   0.44289   0.00000  Uiso   1.00
O59    O     0.14189   0.21374   0.09238   0.00000  Uiso   1.00
H60    H     0.15133   0.22915   0.12012   0.00000  Uiso   1.00
O61    O     0.04346   0.19074   0.41704   0.00000  Uiso   1.00
H62    H     0.03941   0.16297   0.40172   0.00000  Uiso   1.00
O63    O     0.08070   0.16219   0.07252   0.00000  Uiso   1.00
H64    H     0.10282   0.14052   0.07695   0.00000  Uiso   1.00
O65    O     0.01678   0.19198   0.02399   0.00000  Uiso   1.00
H66    H     0.01266   0.19484   0.06239   0.00000  Uiso   1.00
C67    C     0.21951   0.28743   0.15418   0.00000  Uiso   1.00
H68    H     0.23227   0.25582   0.15540   0.00000  Uiso   1.00
O69    O     0.22426   0.30222   0.11075   0.00000  Uiso   1.00
C70    C     0.50029   0.24641   0.24948   0.00000  Uiso   1.00
C71    C     0.48047   0.17758   0.49142   0.00000  Uiso   1.00
C72    C     0.49454   0.18205   0.43592   0.00000  Uiso   1.00
C73    C     0.51690   0.17354   0.01468   0.00000  Uiso   1.00
C74    C     0.56346   0.16214   0.48265   0.00000  Uiso   1.00
C75    C     0.57744   0.17260   0.42937   0.00000  Uiso   1.00
C76    C     0.54365   0.18759   0.40864   0.00000  Uiso   1.00
C77    C     0.51032   0.18489   0.06720   0.00000  Uiso   1.00
C78    C     0.58365   0.14853   0.06156   0.00000  Uiso   1.00
C79    C     0.45969   0.18012   0.40970   0.00000  Uiso   1.00
C80    C     0.52805   0.31135   0.20433   0.00000  Uiso   1.00
C81    C     0.47420   0.17097   0.35165   0.00000  Uiso   1.00
C82    C     0.52912   0.02169   0.20620   0.00000  Uiso   1.00
C83    C     0.49932   0.04271   0.25117   0.00000  Uiso   1.00
C84    C     0.47013   0.02215   0.29632   0.00000  Uiso   1.00
C85    C     0.47215   0.31198   0.29663   0.00000  Uiso   1.00
C86    C     0.50057   0.29061   0.25033   0.00000  Uiso   1.00
C87    C     0.64946   0.13543   0.22491   0.00000  Uiso   1.00
C88    C     0.36405   0.13565   0.22359   0.00000  Uiso   1.00
C89    C     0.34925   0.19762   0.27644   0.00000  Uiso   1.00
C90    C     0.63560   0.19816   0.27451   0.00000  Uiso   1.00
C91    C     0.49977   0.08690   0.25039   0.00000  Uiso   1.00
C92    C     0.52605   0.16736   0.14877   0.00000  Uiso   1.00
C93    C     0.59586   0.14627   0.00648   0.00000  Uiso   1.00
C94    C     0.54158   0.16863   0.09166   0.00000  Uiso   1.00
C95    C     0.41135   0.18543   0.44034   0.00000  Uiso   1.00
C96    C     0.39755   0.18576   0.49578   0.00000  Uiso   1.00
C97    C     0.43105   0.17613   0.02096   0.00000  Uiso   1.00
H98    H     0.60696   0.13468   0.08072   0.00000  Uiso   1.00
H99    H     0.63693   0.11058   0.20453   0.00000  Uiso   1.00
H100   H     0.61209   0.22364   0.29371   0.00000  Uiso   1.00
H101   H     0.61450   0.17290   0.40509   0.00000  Uiso   1.00
H102   H     0.55670   0.20351   0.37149   0.00000  Uiso   1.00
N103   N     0.38093   0.16668   0.25002   0.00000  Uiso   1.00
N104   N     0.61906   0.16665   0.25001   0.00000  Uiso   1.00
O105   O     0.46179   0.22775   0.25001   0.00000  Uiso   1.00
O106   O     0.53823   0.22774   0.25001   0.00000  Uiso   1.00
O107   O     0.44280   0.16666   0.32681   0.00000  Uiso   1.00
O108   O     0.51924   0.16665   0.32681   0.00000  Uiso   1.00
O109   O     0.46177   0.10559   0.25000   0.00000  Uiso   1.00
O110   O     0.53821   0.10558   0.25000   0.00000  Uiso   1.00
O111   O     0.48076   0.16668   0.17319   0.00000  Uiso   1.00
O112   O     0.55720   0.16667   0.17319   0.00000  Uiso   1.00
Zn113  Zn    0.44896   0.16667   0.25000   0.00000  Uiso   1.00
Zn114  Zn    0.55104   0.16666   0.25000   0.00000  Uiso   1.00
O115   O     0.55812   0.04497   0.16489   0.00000  Uiso   1.00
H116   H     0.58765   0.02888   0.14750   0.00000  Uiso   1.00
C117   C     0.43991   0.04640   0.34390   0.00000  Uiso   1.00
H118   H     0.44622   0.07951   0.34874   0.00000  Uiso   1.00
O119   O     0.40718   0.02996   0.37805   0.00000  Uiso   1.00
O120   O     0.44653   0.29148   0.34250   0.00000  Uiso   1.00
H121   H     0.45888   0.26275   0.34250   0.00000  Uiso   1.00
O122   O     0.39238   0.10368   0.19514   0.00000  Uiso   1.00
H123   H     0.42549   0.11315   0.18469   0.00000  Uiso   1.00
O124   O     0.36152   0.22874   0.30596   0.00000  Uiso   1.00
H125   H     0.38819   0.21825   0.31642   0.00000  Uiso   1.00
O126   O     0.63796   0.12671   0.47819   0.00000  Uiso   1.00
H127   H     0.63645   0.11781   0.44289   0.00000  Uiso   1.00
O128   O     0.47522   0.21374   0.09238   0.00000  Uiso   1.00
H129   H     0.48466   0.22915   0.12012   0.00000  Uiso   1.00
O130   O     0.37679   0.19074   0.41704   0.00000  Uiso   1.00
H131   H     0.37275   0.16297   0.40172   0.00000  Uiso   1.00
O132   O     0.41403   0.16219   0.07252   0.00000  Uiso   1.00
H133   H     0.43616   0.14052   0.07695   0.00000  Uiso   1.00
O134   O     0.35011   0.19198   0.02399   0.00000  Uiso   1.00
H135   H     0.34599   0.19484   0.06239   0.00000  Uiso   1.00
C136   C     0.55285   0.28743   0.15418   0.00000  Uiso   1.00
H137   H     0.56560   0.25582   0.15540   0.00000  Uiso   1.00
O138   O     0.55759   0.30222   0.11075   0.00000  Uiso   1.00
C139   C     0.83362   0.24641   0.24948   0.00000  Uiso   1.00
C140   C     0.81381   0.17758   0.49142   0.00000  Uiso   1.00
C141   C     0.82787   0.18205   0.43592   0.00000  Uiso   1.00
C142   C     0.85024   0.17354   0.01468   0.00000  Uiso   1.00
C143   C     0.89679   0.16214   0.48265   0.00000  Uiso   1.00
C144   C     0.91077   0.17260   0.42937   0.00000  Uiso   1.00
C145   C     0.87699   0.18759   0.40864   0.00000  Uiso   1.00
C146   C     0.84365   0.18489   0.06720   0.00000  Uiso   1.00
C147   C     0.91699   0.14853   0.06156   0.00000  Uiso   1.00
C148   C     0.79303   0.18012   0.40970   0.00000  Uiso   1.00
C149   C     0.86139   0.31135   0.20433   0.00000  Uiso   1.00
C150   C     0.80753   0.17097   0.35165   0.00000  Uiso   1.00
C151   C     0.86245   0.02169   0.20620   0.00000  Uiso   1.00
C152   C     0.83265   0.04271   0.25117   0.00000  Uiso   1.00
C153   C     0.80347   0.02215   0.29632   0.00000  Uiso   1.00
C154   C     0.80548   0.31198   0.29663   0.00000  Uiso   1.00
C155   C     0.83391   0.29061   0.25033   0.00000  Uiso   1.00
C156   C     0.98279   0.13543   0.22491   0.00000  Uiso   1.00
C157   C     0.69739   0.13565   0.22359   0.00000  Uiso   1.00
C158   C     0.68259   0.19762   0.27644   0.00000  Uiso   1.00
C159   C     0.96893   0.19816   0.27451   0.00000  Uiso   1.00
C160   C     0.83310   0.08690   0.25039   0.00000  Uiso   1.00
C161   C     0.85939   0.16736   0.14877   0.00000  Uiso   1.00
C162   C     0.92919   0.14627   0.00648   0.00000  Uiso   1.00
C163   C     0.87491   0.16863   0.09166   0.00000  Uiso   1.00
C164   C     0.74468   0.18543   0.44034   0.00000  Uiso   1.00
C165   C     0.73089   0.18576   0.49578   0.00000  Uiso   1.00
C166   C     0.76438   0.17613   0.02096   0.00000  Uiso   1.00
H167   H     0.94029   0.13468   0.08072   0.00000  Uiso   1.00
H168   H     0.97027   0.11058   0.20453   0.00000  Uiso   1.00
H169   H     0.94542   0.22364   0.29371   0.00000  Uiso   1.00
H170   H     0.94783   0.17290   0.40509   0.00000  Uiso   1.00
H171   H     0.89004   0.20351   0.37149   0.00000  Uiso   1.00
N172   N     0.71426   0.16668   0.25002   0.00000  Uiso   1.00
N173   N     0.95239   0.16665   0.25001   0.00000  Uiso   1.00
O174   O     0.79512   0.22775   0.25001   0.00000  Uiso   1.00
O175   O     0.87157   0.22774   0.25001   0.00000  Uiso   1.00
O176   O     0.77613   0.16666   0.32681   0.00000  Uiso   1.00
O177   O     0.85258   0.16665   0.32681   0.00000  Uiso   1.00
O178   O     0.79510   0.10559   0.25000   0.00000  Uiso   1.00
O179   O     0.87154   0.10558   0.25000   0.00000  Uiso   1.00
O180   O     0.81409   0.16668   0.17319   0.00000  Uiso   1.00
O181   O     0.89053   0.16667   0.17319   0.00000  Uiso   1.00
Zn182  Zn    0.78229   0.16667   0.25000   0.00000  Uiso   1.00
Zn183  Zn    0.88438   0.16666   0.25000   0.00000  Uiso   1.00
O184   O     0.89145   0.04497   0.16489   0.00000  Uiso   1.00
H185   H     0.92098   0.02888   0.14750   0.00000  Uiso   1.00
C186   C     0.77324   0.04640   0.34390   0.00000  Uiso   1.00
H187   H     0.77955   0.07951   0.34874   0.00000  Uiso   1.00
O188   O     0.74051   0.02996   0.37805   0.00000  Uiso   1.00
O189   O     0.77987   0.29148   0.34250   0.00000  Uiso   1.00
H190   H     0.79221   0.26275   0.34250   0.00000  Uiso   1.00
O191   O     0.72572   0.10368   0.19514   0.00000  Uiso   1.00
H192   H     0.75882   0.11315   0.18469   0.00000  Uiso   1.00
O193   O     0.69485   0.22874   0.30596   0.00000  Uiso   1.00
H194   H     0.72153   0.21825   0.31642   0.00000  Uiso   1.00
O195   O     0.97130   0.12671   0.47819   0.00000  Uiso   1.00
H196   H     0.96978   0.11781   0.44289   0.00000  Uiso   1.00
O197   O     0.80855   0.21374   0.09238   0.00000  Uiso   1.00
H198   H     0.81800   0.22915   0.12012   0.00000  Uiso   1.00
O199   O     0.71013   0.19074   0.41704   0.00000  Uiso   1.00
H200   H     0.70608   0.16297   0.40172   0.00000  Uiso   1.00
O201   O     0.74736   0.16219   0.07252   0.00000  Uiso   1.00
H202   H     0.76949   0.14052   0.07695   0.00000  Uiso   1.00
O203   O     0.68345   0.19198   0.02399   0.00000  Uiso   1.00
H204   H     0.67932   0.19484   0.06239   0.00000  Uiso   1.00
C205   C     0.88618   0.28743   0.15418   0.00000  Uiso   1.00
H206   H     0.89894   0.25582   0.15540   0.00000  Uiso   1.00
O207   O     0.89093   0.30222   0.11075   0.00000  Uiso   1.00
C208   C     0.16695   0.57975   0.24948   0.00000  Uiso   1.00
C209   C     0.14714   0.51091   0.49142   0.00000  Uiso   1.00
C210   C     0.16120   0.51539   0.43592   0.00000  Uiso   1.00
C211   C     0.18357   0.50687   0.01468   0.00000  Uiso   1.00
C212   C     0.23013   0.49547   0.48265   0.00000  Uiso   1.00
C213   C     0.24410   0.50593   0.42937   0.00000  Uiso   1.00
C214   C     0.21032   0.52092   0.40864   0.00000  Uiso   1.00
C215   C     0.17698   0.51823   0.06720   0.00000  Uiso   1.00
C216   C     0.25032   0.48187   0.06156   0.00000  Uiso   1.00
C217   C     0.12636   0.51345   0.40970   0.00000  Uiso   1.00
C218   C     0.19472   0.64468   0.20433   0.00000  Uiso   1.00
C219   C     0.14087   0.50430   0.35165   0.00000  Uiso   1.00
C220   C     0.19578   0.35502   0.20620   0.00000  Uiso   1.00
C221   C     0.16599   0.37605   0.25117   0.00000  Uiso   1.00
C222   C     0.13680   0.35549   0.29632   0.00000  Uiso   1.00
C223   C     0.13881   0.64532   0.29663   0.00000  Uiso   1.00
C224   C     0.16724   0.62395   0.25033   0.00000  Uiso   1.00
C225   C     0.31613   0.46877   0.22491   0.00000  Uiso   1.00
C226   C     0.03072   0.46898   0.22359   0.00000  Uiso   1.00
C227   C     0.01592   0.53096   0.27644   0.00000  Uiso   1.00
C228   C     0.30227   0.53149   0.27451   0.00000  Uiso   1.00
C229   C     0.16643   0.42024   0.25039   0.00000  Uiso   1.00
C230   C     0.19272   0.50070   0.14877   0.00000  Uiso   1.00
C231   C     0.26253   0.47960   0.00648   0.00000  Uiso   1.00
C232   C     0.20824   0.50196   0.09166   0.00000  Uiso   1.00
C233   C     0.07802   0.51876   0.44034   0.00000  Uiso   1.00
C234   C     0.06422   0.51909   0.49578   0.00000  Uiso   1.00
C235   C     0.09772   0.50947   0.02096   0.00000  Uiso   1.00
H236   H     0.27363   0.46802   0.08072   0.00000  Uiso   1.00
H237   H     0.30360   0.44391   0.20453   0.00000  Uiso   1.00
H238   H     0.27875   0.55697   0.29371   0.00000  Uiso   1.00
H239   H     0.28117   0.50624   0.40509   0.00000  Uiso   1.00
H240   H     0.22337   0.53684   0.37149   0.00000  Uiso   1.00
N241   N     0.04760   0.50001   0.25002   0.00000  Uiso   1.00
N242   N     0.28573   0.49998   0.25001   0.00000  Uiso   1.00
O243   O     0.12846   0.56108   0.25001   0.00000  Uiso   1.00
O244   O     0.20490   0.56107   0.25001   0.00000  Uiso   1.00
O245   O     0.10947   0.50000   0.32681   0.00000  Uiso   1.00
O246   O     0.18591   0.49999   0.32681   0.00000  Uiso   1.00
O247   O     0.12843   0.43893   0.25000   0.00000  Uiso   1.00
O248   O     0.20488   0.43892   0.25000   0.00000  Uiso   1.00
O249   O     0.14742   0.50001   0.17319   0.00000  Uiso   1.00
O250   O     0.22387   0.50000   0.17319   0.00000  Uiso   1.00
Zn251  Zn    0.11562   0.50001   0.25000   0.00000  Uiso   1.00
Zn252  Zn    0.21771   0.49999   0.25000   0.00000  Uiso   1.00
O253   O     0.22478   0.37830   0.16489   0.00000  Uiso   1.00
H254   H     0.25431   0.36222   0.14750   0.00000  Uiso   1.00
C255   C     0.10657   0.37974   0.34390   0.00000  Uiso   1.00
H256   H     0.11289   0.41284   0.34874   0.00000  Uiso   1.00
O257   O     0.07384   0.36330   0.37805   0.00000  Uiso   1.00
O258   O     0.11320   0.62481   0.34250   0.00000  Uiso   1.00
H259   H     0.12554   0.59608   0.34250   0.00000  Uiso   1.00
O260   O     0.05905   0.43702   0.19514   0.00000  Uiso   1.00
H261   H     0.09215   0.44648   0.18469   0.00000  Uiso   1.00
O262   O     0.02819   0.56207   0.30596   0.00000  Uiso   1.00
H263   H     0.05486   0.55158   0.31642   0.00000  Uiso   1.00
O264   O     0.30463   0.46005   0.47819   0.00000  Uiso   1.00
H265   H     0.30312   0.45115   0.44289   0.00000  Uiso   1.00
O266   O     0.14189   0.54708   0.09238   0.00000  Uiso   1.00
H267   H     0.15133   0.56248   0.12012   0.00000  Uiso   1.00
O268   O     0.04346   0.52407   0.41704   0.00000  Uiso   1.00
H269   H     0.03941   0.49630   0.40172   0.00000  Uiso   1.00
O270   O     0.08070   0.49552   0.07252   0.00000  Uiso   1.00
H271   H     0.10282   0.47386   0.07695   0.00000  Uiso   1.00
O272   O     0.01678   0.52531   0.02399   0.00000  Uiso   1.00
H273   H     0.01266   0.52817   0.06239   0.00000  Uiso   1.00
C274   C     0.21951   0.62077   0.15418   0.00000  Uiso   1.00
H275   H     0.23227   0.58915   0.15540   0.00000  Uiso   1.00
O276   O     0.22426   0.63555   0.11075   0.00000  Uiso   1.00
C277   C     0.50029   0.57975   0.24948   0.00000  Uiso   1.00
C278   C     0.48047   0.51091   0.49142   0.00000  Uiso   1.00
C279   C     0.49454   0.51539   0.43592   0.00000  Uiso   1.00
C280   C     0.51690   0.50687   0.01468   0.00000  Uiso   1.00
C281   C     0.56346   0.49547   0.48265   0.00000  Uiso   1.00
C282   C     0.57744   0.50593   0.42937   0.00000  Uiso   1.00
C283   C     0.54365   0.52092   0.40864   0.00000  Uiso   1.00
C284   C     0.51032   0.51823   0.06720   0.00000  Uiso   1.00
C285   C     0.58365   0.48187   0.06156   0.00000  Uiso   1.00
C286   C     0.45969   0.51345   0.40970   0.00000  Uiso   1.00
C287   C     0.52805   0.64468   0.20433   0.00000  Uiso   1.00
C288   C     0.47420   0.50430   0.35165   0.00000  Uiso   1.00
C289   C     0.52912   0.35502   0.20620   0.00000  Uiso   1.00
C290   C     0.49932   0.37605   0.25117   0.00000  Uiso   1.00
C291   C     0.47013   0.35549   0.29632   0.00000  Uiso   1.00
C292   C     0.47215   0.64532   0.29663   0.00000  Uiso   1.00
C293   C     0.50057   0.62395   0.25033   0.00000  Uiso   1.00
C294   C     0.64946   0.46877   0.22491   0.00000  Uiso   1.00
C295   C     0.36405   0.46898   0.22359   0.00000  Uiso   1.00
C296   C     0.34925   0.53096   0.27644   0.00000  Uiso   1.00
C297   C     0.63560   0.53149   0.27451   0.00000  Uiso   1.00
C298   C     0.49977   0.42024   0.25039   0.00000  Uiso   1.00
C299   C     0.52605   0.50070   0.14877   0.00000  Uiso   1.00
C300   C     0.59586   0.47960   0.00648   0.00000  Uiso   1.00
C301   C     0.54158   0.50196   0.09166   0.00000  Uiso   1.00
C302   C     0.41135   0.51876   0.44034   0.00000  Uiso   1.00
C303   C     0.39755   0.51909   0.49578   0.00000  Uiso   1.00
C304   C     0.43105   0.50947   0.02096   0.00000  Uiso   1.00
H305   H     0.60696   0.46802   0.08072   0.00000  Uiso   1.00
H306   H     0.63693   0.44391   0.20453   0.00000  Uiso   1.00
H307   H     0.61209   0.55697   0.29371   0.00000  Uiso   1.00
H308   H     0.61450   0.50624   0.40509   0.00000  Uiso   1.00
H309   H     0.55670   0.53684   0.37149   0.00000  Uiso   1.00
N310   N     0.38093   0.50001   0.25002   0.00000  Uiso   1.00
N311   N     0.61906   0.49998   0.25001   0.00000  Uiso   1.00
O312   O     0.46179   0.56108   0.25001   0.00000  Uiso   1.00
O313   O     0.53823   0.56107   0.25001   0.00000  Uiso   1.00
O314   O     0.44280   0.50000   0.32681   0.00000  Uiso   1.00
O315   O     0.51924   0.49999   0.32681   0.00000  Uiso   1.00
O316   O     0.46177   0.43893   0.25000   0.00000  Uiso   1.00
O317   O     0.53821   0.43892   0.25000   0.00000  Uiso   1.00
O318   O     0.48076   0.50001   0.17319   0.00000  Uiso   1.00
O319   O     0.55720   0.50000   0.17319   0.00000  Uiso   1.00
Zn320  Zn    0.44896   0.50001   0.25000   0.00000  Uiso   1.00
Zn321  Zn    0.55104   0.49999   0.25000   0.00000  Uiso   1.00
O322   O     0.55812   0.37830   0.16489   0.00000  Uiso   1.00
H323   H     0.58765   0.36222   0.14750   0.00000  Uiso   1.00
C324   C     0.43991   0.37974   0.34390   0.00000  Uiso   1.00
H325   H     0.44622   0.41284   0.34874   0.00000  Uiso   1.00
O326   O     0.40718   0.36330   0.37805   0.00000  Uiso   1.00
O327   O     0.44653   0.62481   0.34250   0.00000  Uiso   1.00
H328   H     0.45888   0.59608   0.34250   0.00000  Uiso   1.00
O329   O     0.39238   0.43702   0.19514   0.00000  Uiso   1.00
H330   H     0.42549   0.44648   0.18469   0.00000  Uiso   1.00
O331   O     0.36152   0.56207   0.30596   0.00000  Uiso   1.00
H332   H     0.38819   0.55158   0.31642   0.00000  Uiso   1.00
O333   O     0.63796   0.46005   0.47819   0.00000  Uiso   1.00
H334   H     0.63645   0.45115   0.44289   0.00000  Uiso   1.00
O335   O     0.47522   0.54708   0.09238   0.00000  Uiso   1.00
H336   H     0.48466   0.56248   0.12012   0.00000  Uiso   1.00
O337   O     0.37679   0.52407   0.41704   0.00000  Uiso   1.00
H338   H     0.37275   0.49630   0.40172   0.00000  Uiso   1.00
O339   O     0.41403   0.49552   0.07252   0.00000  Uiso   1.00
H340   H     0.43616   0.47386   0.07695   0.00000  Uiso   1.00
O341   O     0.35011   0.52531   0.02399   0.00000  Uiso   1.00
H342   H     0.34599   0.52817   0.06239   0.00000  Uiso   1.00
C343   C     0.55285   0.62077   0.15418   0.00000  Uiso   1.00
H344   H     0.56560   0.58915   0.15540   0.00000  Uiso   1.00
O345   O     0.55759   0.63555   0.11075   0.00000  Uiso   1.00
C346   C     0.83362   0.57975   0.24948   0.00000  Uiso   1.00
C347   C     0.81381   0.51091   0.49142   0.00000  Uiso   1.00
C348   C     0.82787   0.51539   0.43592   0.00000  Uiso   1.00
C349   C     0.85024   0.50687   0.01468   0.00000  Uiso   1.00
C350   C     0.89679   0.49547   0.48265   0.00000  Uiso   1.00
C351   C     0.91077   0.50593   0.42937   0.00000  Uiso   1.00
C352   C     0.87699   0.52092   0.40864   0.00000  Uiso   1.00
C353   C     0.84365   0.51823   0.06720   0.00000  Uiso   1.00
C354   C     0.91699   0.48187   0.06156   0.00000  Uiso   1.00
C355   C     0.79303   0.51345   0.40970   0.00000  Uiso   1.00
C356   C     0.86139   0.64468   0.20433   0.00000  Uiso   1.00
C357   C     0.80753   0.50430   0.35165   0.00000  Uiso   1.00
C358   C     0.86245   0.35502   0.20620   0.00000  Uiso   1.00
C359   C     0.83265   0.37605   0.25117   0.00000  Uiso   1.00
C360   C     0.80347   0.35549   0.29632   0.00000  Uiso   1.00
C361   C     0.80548   0.64532   0.29663   0.00000  Uiso   1.00
C362   C     0.83391   0.62395   0.25033   0.00000  Uiso   1.00
C363   C     0.98279   0.46877   0.22491   0.00000  Uiso   1.00
C364   C     0.69739   0.46898   0.22359   0.00000  Uiso   1.00
C365   C     0.68259   0.53096   0.27644   0.00000  Uiso   1.00
C366   C     0.96893   0.53149   0.27451   0.00000  Uiso   1.00
C367   C     0.83310   0.42024   0.25039   0.00000  Uiso   1.00
C368   C     0.85939   0.50070   0.14877   0.00000  Uiso   1.00
C369   C     0.92919   0.47960   0.00648   0.00000  Uiso   1.00
C370   C     0.87491   0.50196   0.09166   0.00000  Uiso   1.00
C371   C     0.74468   0.51876   0.44034   0.00000  Uiso   1.00
C372   C     0.73089   0.51909   0.49578   0.00000  Uiso   1.00
C373   C     0.76438   0.50947   0.02096   0.00000  Uiso   1.00
H374   H     0.94029   0.46802   0.08072   0.00000  Uiso   1.00
H375   H     0.97027   0.44391   0.20453   0.00000  Uiso   1.00
H376   H     0.94542   0.55697   0.29371   0.00000  Uiso   1.00
H377   H     0.94783   0.50624   0.40509   0.00000  Uiso   1.00
H378   H     0.89004   0.53684   0.37149   0.00000  Uiso   1.00
N379   N     0.71426   0.50001   0.25002   0.00000  Uiso   1.00
N380   N     0.95239   0.49998   0.25001   0.00000  Uiso   1.00
O381   O     0.79512   0.56108   0.25001   0.00000  Uiso   1.00
O382   O     0.87157   0.56107   0.25001   0.00000  Uiso   1.00
O383   O     0.77613   0.50000   0.32681   0.00000  Uiso   1.00
O384   O     0.85258   0.49999   0.32681   0.00000  Uiso   1.00
O385   O     0.79510   0.43893   0.25000   0.00000  Uiso   1.00
O386   O     0.87154   0.43892   0.25000   0.00000  Uiso   1.00
O387   O     0.81409   0.50001   0.17319   0.00000  Uiso   1.00
O388   O     0.89053   0.50000   0.17319   0.00000  Uiso   1.00
Zn389  Zn    0.78229   0.50001   0.25000   0.00000  Uiso   1.00
Zn390  Zn    0.88438   0.49999   0.25000   0.00000  Uiso   1.00
O391   O     0.89145   0.37830   0.16489   0.00000  Uiso   1.00
H392   H     0.92098   0.36222   0.14750   0.00000  Uiso   1.00
C393   C     0.77324   0.37974   0.34390   0.00000  Uiso   1.00
H394   H     0.77955   0.41284   0.34874   0.00000  Uiso   1.00
O395   O     0.74051   0.36330   0.37805   0.00000  Uiso   1.00
O396   O     0.77987   0.62481   0.34250   0.00000  Uiso   1.00
H397   H     0.79221   0.59608   0.34250   0.00000  Uiso   1.00
O398   O     0.72572   0.43702   0.19514   0.00000  Uiso   1.00
H399   H     0.75882   0.44648   0.18469   0.00000  Uiso   1.00
O400   O     0.69485   0.56207   0.30596   0.00000  Uiso   1.00
H401   H     0.72153   0.55158   0.31642   0.00000  Uiso   1.00
O402   O     0.97130   0.46005   0.47819   0.00000  Uiso   1.00
H403   H     0.96978   0.45115   0.44289   0.00000  Uiso   1.00
O404   O     0.80855   0.54708   0.09238   0.00000  Uiso   1.00
H405   H     0.81800   0.56248   0.12012   0.00000  Uiso   1.00
O406   O     0.71013   0.52407   0.41704   0.00000  Uiso   1.00
H407   H     0.70608   0.49630   0.40172   0.00000  Uiso   1.00
O408   O     0.74736   0.49552   0.07252   0.00000  Uiso   1.00
H409   H     0.76949   0.47386   0.07695   0.00000  Uiso   1.00
O410   O     0.68345   0.52531   0.02399   0.00000  Uiso   1.00
H411   H     0.67932   0.52817   0.06239   0.00000  Uiso   1.00
C412   C     0.88618   0.62077   0.15418   0.00000  Uiso   1.00
H413   H     0.89894   0.58915   0.15540   0.00000  Uiso   1.00
O414   O     0.89093   0.63555   0.11075   0.00000  Uiso   1.00
C415   C     0.16695   0.91308   0.24948   0.00000  Uiso   1.00
C416   C     0.14714   0.84425   0.49142   0.00000  Uiso   1.00
C417   C     0.16120   0.84872   0.43592   0.00000  Uiso   1.00
C418   C     0.18357   0.84021   0.01468   0.00000  Uiso   1.00
C419   C     0.23013   0.82880   0.48265   0.00000  Uiso   1.00
C420   C     0.24410   0.83927   0.42937   0.00000  Uiso   1.00
C421   C     0.21032   0.85425   0.40864   0.00000  Uiso   1.00
C422   C     0.17698   0.85156   0.06720   0.00000  Uiso   1.00
C423   C     0.25032   0.81520   0.06156   0.00000  Uiso   1.00
C424   C     0.12636   0.84678   0.40970   0.00000  Uiso   1.00
C425   C     0.19472   0.97802   0.20433   0.00000  Uiso   1.00
C426   C     0.14087   0.83763   0.35165   0.00000  Uiso   1.00
C427   C     0.19578   0.68836   0.20620   0.00000  Uiso   1.00
C428   C     0.16599   0.70938   0.25117   0.00000  Uiso   1.00
C429   C     0.13680   0.68882   0.29632   0.00000  Uiso   1.00
C430   C     0.13881   0.97865   0.29663   0.00000  Uiso   1.00
C431   C     0.16724   0.95728   0.25033   0.00000  Uiso   1.00
C432   C     0.31613   0.80210   0.22491   0.00000  Uiso   1.00
C433   C     0.03072   0.80231   0.22359   0.00000  Uiso   1.00
C434   C     0.01592   0.86429   0.27644   0.00000  Uiso   1.00
C435   C     0.30227   0.86482   0.27451   0.00000  Uiso   1.00
C436   C     0.16643   0.75357   0.25039   0.00000  Uiso   1.00
C437   C     0.19272   0.83403   0.14877   0.00000  Uiso   1.00
C438   C     0.26253   0.81294   0.00648   0.00000  Uiso   1.00
C439   C     0.20824   0.83529   0.09166   0.00000  Uiso   1.00
C440   C     0.07802   0.85210   0.44034   0.00000  Uiso   1.00
C441   C     0.06422   0.85243   0.49578   0.00000  Uiso   1.00
C442   C     0.09772   0.84280   0.02096   0.00000  Uiso   1.00
H443   H     0.27363   0.80135   0.08072   0.00000  Uiso   1.00
H444   H     0.30360   0.77725   0.20453   0.00000  Uiso   1.00
H445   H     0.27875   0.89031   0.29371   0.00000  Uiso   1.00
H446   H     0.28117   0.83957   0.40509   0.00000  Uiso   1.00
H447   H     0.22337   0.87017   0.37149   0.00000  Uiso   1.00
N448   N     0.04760   0.83334   0.25002   0.00000  Uiso   1.00
N449   N     0.28573   0.83331   0.25001   0.00000  Uiso   1.00
O450   O     0.12846   0.89442   0.25001   0.00000  Uiso   1.00
O451   O     0.20490   0.89441   0.25001   0.00000  Uiso   1.00
O452   O     0.10947   0.83333   0.32681   0.00000  Uiso   1.00
O453   O     0.18591   0.83332   0.32681   0.00000  Uiso   1.00
O454   O     0.12843   0.77226   0.25000   0.00000  Uiso   1.00
O455   O     0.20488   0.77225   0.25000   0.00000  Uiso   1.00
O456   O     0.14742   0.83335   0.17319   0.00000  Uiso   1.00
O457   O     0.22387   0.83334   0.17319   0.00000  Uiso   1.00
Zn458  Zn    0.11562   0.83334   0.25000   0.00000  Uiso   1.00
Zn459  Zn    0.21771   0.83333   0.25000   0.00000  Uiso   1.00
O460   O     0.22478   0.71163   0.16489   0.00000  Uiso   1.00
H461   H     0.25431   0.69555   0.14750   0.00000  Uiso   1.00
C462   C     0.10657   0.71307   0.34390   0.00000  Uiso   1.00
H463   H     0.11289   0.74618   0.34874   0.00000  Uiso   1.00
O464   O     0.07384   0.69663   0.37805   0.00000  Uiso   1.00
O465   O     0.11320   0.95815   0.34250   0.00000  Uiso   1.00
H466   H     0.12554   0.92942   0.34250   0.00000  Uiso   1.00
O467   O     0.05905   0.77035   0.19514   0.00000  Uiso   1.00
H468   H     0.09215   0.77981   0.18469   0.00000  Uiso   1.00
O469   O     0.02819   0.89541   0.30596   0.00000  Uiso   1.00
H470   H     0.05486   0.88491   0.31642   0.00000  Uiso   1.00
O471   O     0.30463   0.79338   0.47819   0.00000  Uiso   1.00
H472   H     0.30312   0.78448   0.44289   0.00000  Uiso   1.00
O473   O     0.14189   0.88041   0.09238   0.00000  Uiso   1.00
H474   H     0.15133   0.89582   0.12012   0.00000  Uiso   1.00
O475   O     0.04346   0.85740   0.41704   0.00000  Uiso   1.00
H476   H     0.03941   0.82963   0.40172   0.00000  Uiso   1.00
O477   O     0.08070   0.82886   0.07252   0.00000  Uiso   1.00
H478   H     0.10282   0.80719   0.07695   0.00000  Uiso   1.00
O479   O     0.01678   0.85864   0.02399   0.00000  Uiso   1.00
H480   H     0.01266   0.86150   0.06239   0.00000  Uiso   1.00
C481   C     0.21951   0.95410   0.15418   0.00000  Uiso   1.00
H482   H     0.23227   0.92249   0.15540   0.00000  Uiso   1.00
O483   O     0.22426   0.96888   0.11075   0.00000  Uiso   1.00
C484   C     0.50029   0.91308   0.24948   0.00000  Uiso   1.00
C485   C     0.48047   0.84425   0.49142   0.00000  Uiso   1.00
C486   C     0.49454   0.84872   0.43592   0.00000  Uiso   1.00
C487   C     0.51690   0.84021   0.01468   0.00000  Uiso   1.00
C488   C     0.56346   0.82880   0.48265   0.00000  Uiso   1.00
C489   C     0.57744   0.83927   0.42937   0.00000  Uiso   1.00
C490   C     0.54365   0.85425   0.40864   0.00000  Uiso   1.00
C491   C     0.51032   0.85156   0.06720   0.00000  Uiso   1.00
C492   C     0.58365   0.81520   0.06156   0.00000  Uiso   1.00
C493   C     0.45969   0.84678   0.40970   0.00000  Uiso   1.00
C494   C     0.52805   0.97802   0.20433   0.00000  Uiso   1.00
C495   C     0.47420   0.83763   0.35165   0.00000  Uiso   1.00
C496   C     0.52912   0.68836   0.20620   0.00000  Uiso   1.00
C497   C     0.49932   0.70938   0.25117   0.00000  Uiso   1.00
C498   C     0.47013   0.68882   0.29632   0.00000  Uiso   1.00
C499   C     0.47215   0.97865   0.29663   0.00000  Uiso   1.00
C500   C     0.50057   0.95728   0.25033   0.00000  Uiso   1.00
C501   C     0.64946   0.80210   0.22491   0.00000  Uiso   1.00
C502   C     0.36405   0.80231   0.22359   0.00000  Uiso   1.00
C503   C     0.34925   0.86429   0.27644   0.00000  Uiso   1.00
C504   C     0.63560   0.86482   0.27451   0.00000  Uiso   1.00
C505   C     0.49977   0.75357   0.25039   0.00000  Uiso   1.00
C506   C     0.52605   0.83403   0.14877   0.00000  Uiso   1.00
C507   C     0.59586   0.81294   0.00648   0.00000  Uiso   1.00
C508   C     0.54158   0.83529   0.09166   0.00000  Uiso   1.00
C509   C     0.41135   0.85210   0.44034   0.00000  Uiso   1.00
C510   C     0.39755   0.85243   0.49578   0.00000  Uiso   1.00
C511   C     0.43105   0.84280   0.02096   0.00000  Uiso   1.00
H512   H     0.60696   0.80135   0.08072   0.00000  Uiso   1.00
H513   H     0.63693   0.77725   0.20453   0.00000  Uiso   1.00
H514   H     0.61209   0.89031   0.29371   0.00000  Uiso   1.00
H515   H     0.61450   0.83957   0.40509   0.00000  Uiso   1.00
H516   H     0.55670   0.87017   0.37149   0.00000  Uiso   1.00
N517   N     0.38093   0.83334   0.25002   0.00000  Uiso   1.00
N518   N     0.61906   0.83331   0.25001   0.00000  Uiso   1.00
O519   O     0.46179   0.89442   0.25001   0.00000  Uiso   1.00
O520   O     0.53823   0.89441   0.25001   0.00000  Uiso   1.00
O521   O     0.44280   0.83333   0.32681   0.00000  Uiso   1.00
O522   O     0.51924   0.83332   0.32681   0.00000  Uiso   1.00
O523   O     0.46177   0.77226   0.25000   0.00000  Uiso   1.00
O524   O     0.53821   0.77225   0.25000   0.00000  Uiso   1.00
O525   O     0.48076   0.83335   0.17319   0.00000  Uiso   1.00
O526   O     0.55720   0.83334   0.17319   0.00000  Uiso   1.00
Zn527  Zn    0.44896   0.83334   0.25000   0.00000  Uiso   1.00
Zn528  Zn    0.55104   0.83333   0.25000   0.00000  Uiso   1.00
O529   O     0.55812   0.71163   0.16489   0.00000  Uiso   1.00
H530   H     0.58765   0.69555   0.14750   0.00000  Uiso   1.00
C531   C     0.43991   0.71307   0.34390   0.00000  Uiso   1.00
H532   H     0.44622   0.74618   0.34874   0.00000  Uiso   1.00
O533   O     0.40718   0.69663   0.37805   0.00000  Uiso   1.00
O534   O     0.44653   0.95815   0.34250   0.00000  Uiso   1.00
H535   H     0.45888   0.92942   0.34250   0.00000  Uiso   1.00
O536   O     0.39238   0.77035   0.19514   0.00000  Uiso   1.00
H537   H     0.42549   0.77981   0.18469   0.00000  Uiso   1.00
O538   O     0.36152   0.89541   0.30596   0.00000  Uiso   1.00
H539   H     0.38819   0.88491   0.31642   0.00000  Uiso   1.00
O540   O     0.63796   0.79338   0.47819   0.00000  Uiso   1.00
H541   H     0.63645   0.78448   0.44289   0.00000  Uiso   1.00
O542   O     0.47522   0.88041   0.09238   0.00000  Uiso   1.00
H543   H     0.48466   0.89582   0.12012   0.00000  Uiso   1.00
O544   O     0.37679   0.85740   0.41704   0.00000  Uiso   1.00
H545   H     0.37275   0.82963   0.40172   0.00000  Uiso   1.00
O546   O     0.41403   0.82886   0.07252   0.00000  Uiso   1.00
H547   H     0.43616   0.80719   0.07695   0.00000  Uiso   1.00
O548   O     0.35011   0.85864   0.02399   0.00000  Uiso   1.00
H549   H     0.34599   0.86150   0.06239   0.00000  Uiso   1.00
C550   C     0.55285   0.95410   0.15418   0.00000  Uiso   1.00
H551   H     0.56560   0.92249   0.15540   0.00000  Uiso   1.00
O552   O     0.55759   0.96888   0.11075   0.00000  Uiso   1.00
C553   C     0.83362   0.91308   0.24948   0.00000  Uiso   1.00
C554   C     0.81381   0.84425   0.49142   0.00000  Uiso   1.00
C555   C     0.82787   0.84872   0.43592   0.00000  Uiso   1.00
C556   C     0.85024   0.84021   0.01468   0.00000  Uiso   1.00
C557   C     0.89679   0.82880   0.48265   0.00000  Uiso   1.00
C558   C     0.91077   0.83927   0.42937   0.00000  Uiso   1.00
C559   C     0.87699   0.85425   0.40864   0.00000  Uiso   1.00
C560   C     0.84365   0.85156   0.06720   0.00000  Uiso   1.00
C561   C     0.91699   0.81520   0.06156   0.00000  Uiso   1.00
C562   C     0.79303   0.84678   0.40970   0.00000  Uiso   1.00
C563   C     0.86139   0.97802   0.20433   0.00000  Uiso   1.00
C564   C     0.80753   0.83763   0.35165   0.00000  Uiso   1.00
C565   C     0.86245   0.68836   0.20620   0.00000  Uiso   1.00
C566   C     0.83265   0.70938   0.25117   0.00000  Uiso   1.00
C567   C     0.80347   0.68882   0.29632   0.00000  Uiso   1.00
C568   C     0.80548   0.97865   0.29663   0.00000  Uiso   1.00
C569   C     0.83391   0.95728   0.25033   0.00000  Uiso   1.00
C570   C     0.98279   0.80210   0.22491   0.00000  Uiso   1.00
C571   C     0.69739   0.80231   0.22359   0.00000  Uiso   1.00
C572   C     0.68259   0.86429   0.27644   0.00000  Uiso   1.00
C573   C     0.96893   0.86482   0.27451   0.00000  Uiso   1.00
C574   C     0.83310   0.75357   0.25039   0.00000  Uiso   1.00
C575   C     0.85939   0.83403   0.14877   0.00000  Uiso   1.00
C576   C     0.92919   0.81294   0.00648   0.00000  Uiso   1.00
C577   C     0.87491   0.83529   0.09166   0.00000  Uiso   1.00
C578   C     0.74468   0.85210   0.44034   0.00000  Uiso   1.00
C579   C     0.73089   0.85243   0.49578   0.00000  Uiso   1.00
C580   C     0.76438   0.84280   0.02096   0.00000  Uiso   1.00
H581   H     0.94029   0.80135   0.08072   0.00000  Uiso   1.00
H582   H     0.97027   0.77725   0.20453   0.00000  Uiso   1.00
H583   H     0.94542   0.89031   0.29371   0.00000  Uiso   1.00
H584   H     0.94783   0.83957   0.40509   0.00000  Uiso   1.00
H585   H     0.89004   0.87017   0.37149   0.00000  Uiso   1.00
N586   N     0.71426   0.83334   0.25002   0.00000  Uiso   1.00
N587   N     0.95239   0.83331   0.25001   0.00000  Uiso   1.00
O588   O     0.79512   0.89442   0.25001   0.00000  Uiso   1.00
O589   O     0.87157   0.89441   0.25001   0.00000  Uiso   1.00
O590   O     0.77613   0.83333   0.32681   0.00000  Uiso   1.00
O591   O     0.85258   0.83332   0.32681   0.00000  Uiso   1.00
O592   O     0.79510   0.77226   0.25000   0.00000  Uiso   1.00
O593   O     0.87154   0.77225   0.25000   0.00000  Uiso   1.00
O594   O     0.81409   0.83335   0.17319   0.00000  Uiso   1.00
O595   O     0.89053   0.83334   0.17319   0.00000  Uiso   1.00
Zn596  Zn    0.78229   0.83334   0.25000   0.00000  Uiso   1.00
Zn597  Zn    0.88438   0.83333   0.25000   0.00000  Uiso   1.00
O598   O     0.89145   0.71163   0.16489   0.00000  Uiso   1.00
H599   H     0.92098   0.69555   0.14750   0.00000  Uiso   1.00
C600   C     0.77324   0.71307   0.34390   0.00000  Uiso   1.00
H601   H     0.77955   0.74618   0.34874   0.00000  Uiso   1.00
O602   O     0.74051   0.69663   0.37805   0.00000  Uiso   1.00
O603   O     0.77987   0.95815   0.34250   0.00000  Uiso   1.00
H604   H     0.79221   0.92942   0.34250   0.00000  Uiso   1.00
O605   O     0.72572   0.77035   0.19514   0.00000  Uiso   1.00
H606   H     0.75882   0.77981   0.18469   0.00000  Uiso   1.00
O607   O     0.69485   0.89541   0.30596   0.00000  Uiso   1.00
H608   H     0.72153   0.88491   0.31642   0.00000  Uiso   1.00
O609   O     0.97130   0.79338   0.47819   0.00000  Uiso   1.00
H610   H     0.96978   0.78448   0.44289   0.00000  Uiso   1.00
O611   O     0.80855   0.88041   0.09238   0.00000  Uiso   1.00
H612   H     0.81800   0.89582   0.12012   0.00000  Uiso   1.00
O613   O     0.71013   0.85740   0.41704   0.00000  Uiso   1.00
H614   H     0.70608   0.82963   0.40172   0.00000  Uiso   1.00
O615   O     0.74736   0.82886   0.07252   0.00000  Uiso   1.00
H616   H     0.76949   0.80719   0.07695   0.00000  Uiso   1.00
O617   O     0.68345   0.85864   0.02399   0.00000  Uiso   1.00
H618   H     0.67932   0.86150   0.06239   0.00000  Uiso   1.00
C619   C     0.88618   0.95410   0.15418   0.00000  Uiso   1.00
H620   H     0.89894   0.92249   0.15540   0.00000  Uiso   1.00
O621   O     0.89093   0.96888   0.11075   0.00000  Uiso   1.00
C622   C     0.16695   0.24641   0.74948   0.00000  Uiso   1.00
C623   C     0.14714   0.17758   0.99142   0.00000  Uiso   1.00
C624   C     0.16120   0.18205   0.93592   0.00000  Uiso   1.00
C625   C     0.18357   0.17354   0.51468   0.00000  Uiso   1.00
C626   C     0.23013   0.16214   0.98265   0.00000  Uiso   1.00
C627   C     0.24410   0.17260   0.92937   0.00000  Uiso   1.00
C628   C     0.21032   0.18759   0.90864   0.00000  Uiso   1.00
C629   C     0.17698   0.18489   0.56720   0.00000  Uiso   1.00
C630   C     0.25032   0.14853   0.56156   0.00000  Uiso   1.00
C631   C     0.12636   0.18012   0.90970   0.00000  Uiso   1.00
C632   C     0.19472   0.31135   0.70433   0.00000  Uiso   1.00
C633   C     0.14087   0.17097   0.85165   0.00000  Uiso   1.00
C634   C     0.19578   0.02169   0.70620   0.00000  Uiso   1.00
C635   C     0.16599   0.04271   0.75117   0.00000  Uiso   1.00
C636   C     0.13680   0.02215   0.79632   0.00000  Uiso   1.00
C637   C     0.13881   0.31198   0.79663   0.00000  Uiso   1.00
C638   C     0.16724   0.29061   0.75033   0.00000  Uiso   1.00
C639   C     0.31613   0.13543   0.72491   0.00000  Uiso   1.00
C640   C     0.03072   0.13565   0.72359   0.00000  Uiso   1.00
C641   C     0.01592   0.19762   0.77644   0.00000  Uiso   1.00
C642   C     0.30227   0.19816   0.77451   0.00000  Uiso   1.00
C643   C     0.16643   0.08690   0.75039   0.00000  Uiso   1.00
C644   C     0.19272   0.16736   0.64877   0.00000  Uiso   1.00
C645   C     0.26253   0.14627   0.50648   0.00000  Uiso   1.00
C646   C     0.20824   0.16863   0.59166   0.00000  Uiso   1.00
C647   C     0.07802   0.18543   0.94034   0.00000  Uiso   1.00
C648   C     0.06422   0.18576   0.99578   0.00000  Uiso   1.00
C649   C     0.09772   0.17613   0.52096   0.00000  Uiso   1.00
H650   H     0.27363   0.13468   0.58072   0.00000  Uiso   1.00
H651   H     0.30360   0.11058   0.70453   0.00000  Uiso   1.00
H652   H     0.27875   0.22364   0.79371   0.00000  Uiso   1.00
H653   H     0.28117   0.17290   0.90509   0.00000  Uiso   1.00
H654   H     0.22337   0.20351   0.87149   0.00000  Uiso   1.00
N655   N     0.04760   0.16668   0.75002   0.00000  Uiso   1.00
N656   N     0.28573   0.16665   0.75001   0.00000  Uiso   1.00
O657   O     0.12846   0.22775   0.75001   0.00000  Uiso   1.00
O658   O     0.20490   0.22774   0.75001   0.00000  Uiso   1.00
O659   O     0.10947   0.16666   0.82681   0.00000  Uiso   1.00
O660   O     0.18591   0.16665   0.82681   0.00000  Uiso   1.00
O661   O     0.12843   0.10559   0.75000   0.00000  Uiso   1.00
O662   O     0.20488   0.10558   0.75000   0.00000  Uiso   1.00
O663   O     0.14742   0.16668   0.67319   0.00000  Uiso   1.00
O664   O     0.22387   0.16667   0.67319   0.00000  Uiso   1.00
Zn665  Zn    0.11562   0.16667   0.75000   0.00000  Uiso   1.00
Zn666  Zn    0.21771   0.16666   0.75000   0.00000  Uiso   1.00
O667   O     0.22478   0.04497   0.66489   0.00000  Uiso   1.00
H668   H     0.25431   0.02888   0.64750   0.00000  Uiso   1.00
C669   C     0.10657   0.04640   0.84390   0.00000  Uiso   1.00
H670   H     0.11289   0.07951   0.84874   0.00000  Uiso   1.00
O671   O     0.07384   0.02996   0.87805   0.00000  Uiso   1.00
O672   O     0.11320   0.29148   0.84250   0.00000  Uiso   1.00
H673   H     0.12554   0.26275   0.84250   0.00000  Uiso   1.00
O674   O     0.05905   0.10368   0.69514   0.00000  Uiso   1.00
H675   H     0.09215   0.11315   0.68469   0.00000  Uiso   1.00
O676   O     0.02819   0.22874   0.80596   0.00000  Uiso   1.00
H677   H     0.05486   0.21825   0.81642   0.00000  Uiso   1.00
O678   O     0.30463   0.12671   0.97819   0.00000  Uiso   1.00
H679   H     0.30312   0.11781   0.94289   0.00000  Uiso   1.00
O680   O     0.14189   0.21374   0.59238   0.00000  Uiso   1.00
H681   H     0.15133   0.22915   0.62012   0.00000  Uiso   1.00
O682   O     0.04346   0.19074   0.91704   0.00000  Uiso   1.00
H683   H     0.03941   0.16297   0.90172   0.00000  Uiso   1.00
O684   O     0.08070   0.16219   0.57252   0.00000  Uiso   1.00
H685   H     0.10282   0.14052   0.57695   0.00000  Uiso   1.00
O686   O     0.01678   0.19198   0.52399   0.00000  Uiso   1.00
H687   H     0.01266   0.19484   0.56239   0.00000  Uiso   1.00
C688   C     0.21951   0.28743   0.65418   0.00000  Uiso   1.00
H689   H     0.23227   0.25582   0.65540   0.00000  Uiso   1.00
O690   O     0.22426   0.30222   0.61075   0.00000  Uiso   1.00
C691   C     0.50029   0.24641   0.74948   0.00000  Uiso   1.00
C692   C     0.48047   0.17758   0.99142   0.00000  Uiso   1.00
C693   C     0.49454   0.18205   0.93592   0.00000  Uiso   1.00
C694   C     0.51690   0.17354   0.51468   0.00000  Uiso   1.00
C695   C     0.56346   0.16214   0.98265   0.00000  Uiso   1.00
C696   C     0.57744   0.17260   0.92937   0.00000  Uiso   1.00
C697   C     0.54365   0.18759   0.90864   0.00000  Uiso   1.00
C698   C     0.51032   0.18489   0.56720   0.00000  Uiso   1.00
C699   C     0.58365   0.14853   0.56156   0.00000  Uiso   1.00
C700   C     0.45969   0.18012   0.90970   0.00000  Uiso   1.00
C701   C     0.52805   0.31135   0.70433   0.00000  Uiso   1.00
C702   C     0.47420   0.17097   0.85165   0.00000  Uiso   1.00
C703   C     0.52912   0.02169   0.70620   0.00000  Uiso   1.00
C704   C     0.49932   0.04271   0.75117   0.00000  Uiso   1.00
C705   C     0.47013   0.02215   0.79632   0.00000  Uiso   1.00
C706   C     0.47215   0.31198   0.79663   0.00000  Uiso   1.00
C707   C     0.50057   0.29061   0.75033   0.00000  Uiso   1.00
C708   C     0.64946   0.13543   0.72491   0.00000  Uiso   1.00
C709   C     0.36405   0.13565   0.72359   0.00000  Uiso   1.00
C710   C     0.34925   0.19762   0.77644   0.00000  Uiso   1.00
C711   C     0.63560   0.19816   0.77451   0.00000  Uiso   1.00
C712   C     0.49977   0.08690   0.75039   0.00000  Uiso   1.00
C713   C     0.52605   0.16736   0.64877   0.00000  Uiso   1.00
C714   C     0.59586   0.14627   0.50648   0.00000  Uiso   1.00
C715   C     0.54158   0.16863   0.59166   0.00000  Uiso   1.00
C716   C     0.41135   0.18543   0.94034   0.00000  Uiso   1.00
C717   C     0.39755   0.18576   0.99578   0.00000  Uiso   1.00
C718   C     0.43105   0.17613   0.52096   0.00000  Uiso   1.00
H719   H     0.60696   0.13468   0.58072   0.00000  Uiso   1.00
H720   H     0.63693   0.11058   0.70453   0.00000  Uiso   1.00
H721   H     0.61209   0.22364   0.79371   0.00000  Uiso   1.00
H722   H     0.61450   0.17290   0.90509   0.00000  Uiso   1.00
H723   H     0.55670   0.20351   0.87149   0.00000  Uiso   1.00
N724   N     0.38093   0.16668   0.75002   0.00000  Uiso   1.00
N725   N     0.61906   0.16665   0.75001   0.00000  Uiso   1.00
O726   O     0.46179   0.22775   0.75001   0.00000  Uiso   1.00
O727   O     0.53823   0.22774   0.75001   0.00000  Uiso   1.00
O728   O     0.44280   0.16666   0.82681   0.00000  Uiso   1.00
O729   O     0.51924   0.16665   0.82681   0.00000  Uiso   1.00
O730   O     0.46177   0.10559   0.75000   0.00000  Uiso   1.00
O731   O     0.53821   0.10558   0.75000   0.00000  Uiso   1.00
O732   O     0.48076   0.16668   0.67319   0.00000  Uiso   1.00
O733   O     0.55720   0.16667   0.67319   0.00000  Uiso   1.00
Zn734  Zn    0.44896   0.16667   0.75000   0.00000  Uiso   1.00
Zn735  Zn    0.55104   0.16666   0.75000   0.00000  Uiso   1.00
O736   O     0.55812   0.04497   0.66489   0.00000  Uiso   1.00
H737   H     0.58765   0.02888   0.64750   0.00000  Uiso   1.00
C738   C     0.43991   0.04640   0.84390   0.00000  Uiso   1.00
H739   H     0.44622   0.07951   0.84874   0.00000  Uiso   1.00
O740   O     0.40718   0.02996   0.87805   0.00000  Uiso   1.00
O741   O     0.44653   0.29148   0.84250   0.00000  Uiso   1.00
H742   H     0.45888   0.26275   0.84250   0.00000  Uiso   1.00
O743   O     0.39238   0.10368   0.69514   0.00000  Uiso   1.00
H744   H     0.42549   0.11315   0.68469   0.00000  Uiso   1.00
O745   O     0.36152   0.22874   0.80596   0.00000  Uiso   1.00
H746   H     0.38819   0.21825   0.81642   0.00000  Uiso   1.00
O747   O     0.63796   0.12671   0.97819   0.00000  Uiso   1.00
H748   H     0.63645   0.11781   0.94289   0.00000  Uiso   1.00
O749   O     0.47522   0.21374   0.59238   0.00000  Uiso   1.00
H750   H     0.48466   0.22915   0.62012   0.00000  Uiso   1.00
O751   O     0.37679   0.19074   0.91704   0.00000  Uiso   1.00
H752   H     0.37275   0.16297   0.90172   0.00000  Uiso   1.00
O753   O     0.41403   0.16219   0.57252   0.00000  Uiso   1.00
H754   H     0.43616   0.14052   0.57695   0.00000  Uiso   1.00
O755   O     0.35011   0.19198   0.52399   0.00000  Uiso   1.00
H756   H     0.34599   0.19484   0.56239   0.00000  Uiso   1.00
C757   C     0.55285   0.28743   0.65418   0.00000  Uiso   1.00
H758   H     0.56560   0.25582   0.65540   0.00000  Uiso   1.00
O759   O     0.55759   0.30222   0.61075   0.00000  Uiso   1.00
C760   C     0.83362   0.24641   0.74948   0.00000  Uiso   1.00
C761   C     0.81381   0.17758   0.99142   0.00000  Uiso   1.00
C762   C     0.82787   0.18205   0.93592   0.00000  Uiso   1.00
C763   C     0.85024   0.17354   0.51468   0.00000  Uiso   1.00
C764   C     0.89679   0.16214   0.98265   0.00000  Uiso   1.00
C765   C     0.91077   0.17260   0.92937   0.00000  Uiso   1.00
C766   C     0.87699   0.18759   0.90864   0.00000  Uiso   1.00
C767   C     0.84365   0.18489   0.56720   0.00000  Uiso   1.00
C768   C     0.91699   0.14853   0.56156   0.00000  Uiso   1.00
C769   C     0.79303   0.18012   0.90970   0.00000  Uiso   1.00
C770   C     0.86139   0.31135   0.70433   0.00000  Uiso   1.00
C771   C     0.80753   0.17097   0.85165   0.00000  Uiso   1.00
C772   C     0.86245   0.02169   0.70620   0.00000  Uiso   1.00
C773   C     0.83265   0.04271   0.75117   0.00000  Uiso   1.00
C774   C     0.80347   0.02215   0.79632   0.00000  Uiso   1.00
C775   C     0.80548   0.31198   0.79663   0.00000  Uiso   1.00
C776   C     0.83391   0.29061   0.75033   0.00000  Uiso   1.00
C777   C     0.98279   0.13543   0.72491   0.00000  Uiso   1.00
C778   C     0.69739   0.13565   0.72359   0.00000  Uiso   1.00
C779   C     0.68259   0.19762   0.77644   0.00000  Uiso   1.00
C780   C     0.96893   0.19816   0.77451   0.00000  Uiso   1.00
C781   C     0.83310   0.08690   0.75039   0.00000  Uiso   1.00
C782   C     0.85939   0.16736   0.64877   0.00000  Uiso   1.00
C783   C     0.92919   0.14627   0.50648   0.00000  Uiso   1.00
C784   C     0.87491   0.16863   0.59166   0.00000  Uiso   1.00
C785   C     0.74468   0.18543   0.94034   0.00000  Uiso   1.00
C786   C     0.73089   0.18576   0.99578   0.00000  Uiso   1.00
C787   C     0.76438   0.17613   0.52096   0.00000  Uiso   1.00
H788   H     0.94029   0.13468   0.58072   0.00000  Uiso   1.00
H789   H     0.97027   0.11058   0.70453   0.00000  Uiso   1.00
H790   H     0.94542   0.22364   0.79371   0.00000  Uiso   1.00
H791   H     0.94783   0.17290   0.90509   0.00000  Uiso   1.00
H792   H     0.89004   0.20351   0.87149   0.00000  Uiso   1.00
N793   N     0.71426   0.16668   0.75002   0.00000  Uiso   1.00
N794   N     0.95239   0.16665   0.75001   0.00000  Uiso   1.00
O795   O     0.79512   0.22775   0.75001   0.00000  Uiso   1.00
O796   O     0.87157   0.22774   0.75001   0.00000  Uiso   1.00
O797   O     0.77613   0.16666   0.82681   0.00000  Uiso   1.00
O798   O     0.85258   0.16665   0.82681   0.00000  Uiso   1.00
O799   O     0.79510   0.10559   0.75000   0.00000  Uiso   1.00
O800   O     0.87154   0.10558   0.75000   0.00000  Uiso   1.00
O801   O     0.81409   0.16668   0.67319   0.00000  Uiso   1.00
O802   O     0.89053   0.16667   0.67319   0.00000  Uiso   1.00
Zn803  Zn    0.78229   0.16667   0.75000   0.00000  Uiso   1.00
Zn804  Zn    0.88438   0.16666   0.75000   0.00000  Uiso   1.00
O805   O     0.89145   0.04497   0.66489   0.00000  Uiso   1.00
H806   H     0.92098   0.02888   0.64750   0.00000  Uiso   1.00
C807   C     0.77324   0.04640   0.84390   0.00000  Uiso   1.00
H808   H     0.77955   0.07951   0.84874   0.00000  Uiso   1.00
O809   O     0.74051   0.02996   0.87805   0.00000  Uiso   1.00
O810   O     0.77987   0.29148   0.84250   0.00000  Uiso   1.00
H811   H     0.79221   0.26275   0.84250   0.00000  Uiso   1.00
O812   O     0.72572   0.10368   0.69514   0.00000  Uiso   1.00
H813   H     0.75882   0.11315   0.68469   0.00000  Uiso   1.00
O814   O     0.69485   0.22874   0.80596   0.00000  Uiso   1.00
H815   H     0.72153   0.21825   0.81642   0.00000  Uiso   1.00
O816   O     0.97130   0.12671   0.97819   0.00000  Uiso   1.00
H817   H     0.96978   0.11781   0.94289   0.00000  Uiso   1.00
O818   O     0.80855   0.21374   0.59238   0.00000  Uiso   1.00
H819   H     0.81800   0.22915   0.62012   0.00000  Uiso   1.00
O820   O     0.71013   0.19074   0.91704   0.00000  Uiso   1.00
H821   H     0.70608   0.16297   0.90172   0.00000  Uiso   1.00
O822   O     0.74736   0.16219   0.57252   0.00000  Uiso   1.00
H823   H     0.76949   0.14052   0.57695   0.00000  Uiso   1.00
O824   O     0.68345   0.19198   0.52399   0.00000  Uiso   1.00
H825   H     0.67932   0.19484   0.56239   0.00000  Uiso   1.00
C826   C     0.88618   0.28743   0.65418   0.00000  Uiso   1.00
H827   H     0.89894   0.25582   0.65540   0.00000  Uiso   1.00
O828   O     0.89093   0.30222   0.61075   0.00000  Uiso   1.00
C829   C     0.16695   0.57975   0.74948   0.00000  Uiso   1.00
C830   C     0.14714   0.51091   0.99142   0.00000  Uiso   1.00
C831   C     0.16120   0.51539   0.93592   0.00000  Uiso   1.00
C832   C     0.18357   0.50687   0.51468   0.00000  Uiso   1.00
C833   C     0.23013   0.49547   0.98265   0.00000  Uiso   1.00
C834   C     0.24410   0.50593   0.92937   0.00000  Uiso   1.00
C835   C     0.21032   0.52092   0.90864   0.00000  Uiso   1.00
C836   C     0.17698   0.51823   0.56720   0.00000  Uiso   1.00
C837   C     0.25032   0.48187   0.56156   0.00000  Uiso   1.00
C838   C     0.12636   0.51345   0.90970   0.00000  Uiso   1.00
C839   C     0.19472   0.64468   0.70433   0.00000  Uiso   1.00
C840   C     0.14087   0.50430   0.85165   0.00000  Uiso   1.00
C841   C     0.19578   0.35502   0.70620   0.00000  Uiso   1.00
C842   C     0.16599   0.37605   0.75117   0.00000  Uiso   1.00
C843   C     0.13680   0.35549   0.79632   0.00000  Uiso   1.00
C844   C     0.13881   0.64532   0.79663   0.00000  Uiso   1.00
C845   C     0.16724   0.62395   0.75033   0.00000  Uiso   1.00
C846   C     0.31613   0.46877   0.72491   0.00000  Uiso   1.00
C847   C     0.03072   0.46898   0.72359   0.00000  Uiso   1.00
C848   C     0.01592   0.53096   0.77644   0.00000  Uiso   1.00
C849   C     0.30227   0.53149   0.77451   0.00000  Uiso   1.00
C850   C     0.16643   0.42024   0.75039   0.00000  Uiso   1.00
C851   C     0.19272   0.50070   0.64877   0.00000  Uiso   1.00
C852   C     0.26253   0.47960   0.50648   0.00000  Uiso   1.00
C853   C     0.20824   0.50196   0.59166   0.00000  Uiso   1.00
C854   C     0.07802   0.51876   0.94034   0.00000  Uiso   1.00
C855   C     0.06422   0.51909   0.99578   0.00000  Uiso   1.00
C856   C     0.09772   0.50947   0.52096   0.00000  Uiso   1.00
H857   H     0.27363   0.46802   0.58072   0.00000  Uiso   1.00
H858   H     0.30360   0.44391   0.70453   0.00000  Uiso   1.00
H859   H     0.27875   0.55697   0.79371   0.00000  Uiso   1.00
H860   H     0.28117   0.50624   0.90509   0.00000  Uiso   1.00
H861   H     0.22337   0.53684   0.87149   0.00000  Uiso   1.00
N862   N     0.04760   0.50001   0.75002   0.00000  Uiso   1.00
N863   N     0.28573   0.49998   0.75001   0.00000  Uiso   1.00
O864   O     0.12846   0.56108   0.75001   0.00000  Uiso   1.00
O865   O     0.20490   0.56107   0.75001   0.00000  Uiso   1.00
O866   O     0.10947   0.50000   0.82681   0.00000  Uiso   1.00
O867   O     0.18591   0.49999   0.82681   0.00000  Uiso   1.00
O868   O     0.12843   0.43893   0.75000   0.00000  Uiso   1.00
O869   O     0.20488   0.43892   0.75000   0.00000  Uiso   1.00
O870   O     0.14742   0.50001   0.67319   0.00000  Uiso   1.00
O871   O     0.22387   0.50000   0.67319   0.00000  Uiso   1.00
Zn872  Zn    0.11562   0.50001   0.75000   0.00000  Uiso   1.00
Zn873  Zn    0.21771   0.49999   0.75000   0.00000  Uiso   1.00
O874   O     0.22478   0.37830   0.66489   0.00000  Uiso   1.00
H875   H     0.25431   0.36222   0.64750   0.00000  Uiso   1.00
C876   C     0.10657   0.37974   0.84390   0.00000  Uiso   1.00
H877   H     0.11289   0.41284   0.84874   0.00000  Uiso   1.00
O878   O     0.07384   0.36330   0.87805   0.00000  Uiso   1.00
O879   O     0.11320   0.62481   0.84250   0.00000  Uiso   1.00
H880   H     0.12554   0.59608   0.84250   0.00000  Uiso   1.00
O881   O     0.05905   0.43702   0.69514   0.00000  Uiso   1.00
H882   H     0.09215   0.44648   0.68469   0.00000  Uiso   1.00
O883   O     0.02819   0.56207   0.80596   0.00000  Uiso   1.00
H884   H     0.05486   0.55158   0.81642   0.00000  Uiso   1.00
O885   O     0.30463   0.46005   0.97819   0.00000  Uiso   1.00
H886   H     0.30312   0.45115   0.94289   0.00000  Uiso   1.00
O887   O     0.14189   0.54708   0.59238   0.00000  Uiso   1.00
H888   H     0.15133   0.56248   0.62012   0.00000  Uiso   1.00
O889   O     0.04346   0.52407   0.91704   0.00000  Uiso   1.00
H890   H     0.03941   0.49630   0.90172   0.00000  Uiso   1.00
O891   O     0.08070   0.49552   0.57252   0.00000  Uiso   1.00
H892   H     0.10282   0.47386   0.57695   0.00000  Uiso   1.00
O893   O     0.01678   0.52531   0.52399   0.00000  Uiso   1.00
H894   H     0.01266   0.52817   0.56239   0.00000  Uiso   1.00
C895   C     0.21951   0.62077   0.65418   0.00000  Uiso   1.00
H896   H     0.23227   0.58915   0.65540   0.00000  Uiso   1.00
O897   O     0.22426   0.63555   0.61075   0.00000  Uiso   1.00
C898   C     0.50029   0.57975   0.74948   0.00000  Uiso   1.00
C899   C     0.48047   0.51091   0.99142   0.00000  Uiso   1.00
C900   C     0.49454   0.51539   0.93592   0.00000  Uiso   1.00
C901   C     0.51690   0.50687   0.51468   0.00000  Uiso   1.00
C902   C     0.56346   0.49547   0.98265   0.00000  Uiso   1.00
C903   C     0.57744   0.50593   0.92937   0.00000  Uiso   1.00
C904   C     0.54365   0.52092   0.90864   0.00000  Uiso   1.00
C905   C     0.51032   0.51823   0.56720   0.00000  Uiso   1.00
C906   C     0.58365   0.48187   0.56156   0.00000  Uiso   1.00
C907   C     0.45969   0.51345   0.90970   0.00000  Uiso   1.00
C908   C     0.52805   0.64468   0.70433   0.00000  Uiso   1.00
C909   C     0.47420   0.50430   0.85165   0.00000  Uiso   1.00
C910   C     0.52912   0.35502   0.70620   0.00000  Uiso   1.00
C911   C     0.49932   0.37605   0.75117   0.00000  Uiso   1.00
C912   C     0.47013   0.35549   0.79632   0.00000  Uiso   1.00
C913   C     0.47215   0.64532   0.79663   0.00000  Uiso   1.00
C914   C     0.50057   0.62395   0.75033   0.00000  Uiso   1.00
C915   C     0.64946   0.46877   0.72491   0.00000  Uiso   1.00
C916   C     0.36405   0.46898   0.72359   0.00000  Uiso   1.00
C917   C     0.34925   0.53096   0.77644   0.00000  Uiso   1.00
C918   C     0.63560   0.53149   0.77451   0.00000  Uiso   1.00
C919   C     0.49977   0.42024   0.75039   0.00000  Uiso   1.00
C920   C     0.52605   0.50070   0.64877   0.00000  Uiso   1.00
C921   C     0.59586   0.47960   0.50648   0.00000  Uiso   1.00
C922   C     0.54158   0.50196   0.59166   0.00000  Uiso   1.00
C923   C     0.41135   0.51876   0.94034   0.00000  Uiso   1.00
C924   C     0.39755   0.51909   0.99578   0.00000  Uiso   1.00
C925   C     0.43105   0.50947   0.52096   0.00000  Uiso   1.00
H926   H     0.60696   0.46802   0.58072   0.00000  Uiso   1.00
H927   H     0.63693   0.44391   0.70453   0.00000  Uiso   1.00
H928   H     0.61209   0.55697   0.79371   0.00000  Uiso   1.00
H929   H     0.61450   0.50624   0.90509   0.00000  Uiso   1.00
H930   H     0.55670   0.53684   0.87149   0.00000  Uiso   1.00
N931   N     0.38093   0.50001   0.75002   0.00000  Uiso   1.00
N932   N     0.61906   0.49998   0.75001   0.00000  Uiso   1.00
O933   O     0.46179   0.56108   0.75001   0.00000  Uiso   1.00
O934   O     0.53823   0.56107   0.75001   0.00000  Uiso   1.00
O935   O     0.44280   0.50000   0.82681   0.00000  Uiso   1.00
O936   O     0.51924   0.49999   0.82681   0.00000  Uiso   1.00
O937   O     0.46177   0.43893   0.75000   0.00000  Uiso   1.00
O938   O     0.53821   0.43892   0.75000   0.00000  Uiso   1.00
O939   O     0.48076   0.50001   0.67319   0.00000  Uiso   1.00
O940   O     0.55720   0.50000   0.67319   0.00000  Uiso   1.00
Zn941  Zn    0.44896   0.50001   0.75000   0.00000  Uiso   1.00
Zn942  Zn    0.55104   0.49999   0.75000   0.00000  Uiso   1.00
O943   O     0.55812   0.37830   0.66489   0.00000  Uiso   1.00
H944   H     0.58765   0.36222   0.64750   0.00000  Uiso   1.00
C945   C     0.43991   0.37974   0.84390   0.00000  Uiso   1.00
H946   H     0.44622   0.41284   0.84874   0.00000  Uiso   1.00
O947   O     0.40718   0.36330   0.87805   0.00000  Uiso   1.00
O948   O     0.44653   0.62481   0.84250   0.00000  Uiso   1.00
H949   H     0.45888   0.59608   0.84250   0.00000  Uiso   1.00
O950   O     0.39238   0.43702   0.69514   0.00000  Uiso   1.00
H951   H     0.42549   0.44648   0.68469   0.00000  Uiso   1.00
O952   O     0.36152   0.56207   0.80596   0.00000  Uiso   1.00
H953   H     0.38819   0.55158   0.81642   0.00000  Uiso   1.00
O954   O     0.63796   0.46005   0.97819   0.00000  Uiso   1.00
H955   H     0.63645   0.45115   0.94289   0.00000  Uiso   1.00
O956   O     0.47522   0.54708   0.59238   0.00000  Uiso   1.00
H957   H     0.48466   0.56248   0.62012   0.00000  Uiso   1.00
O958   O     0.37679   0.52407   0.91704   0.00000  Uiso   1.00
H959   H     0.37275   0.49630   0.90172   0.00000  Uiso   1.00
O960   O     0.41403   0.49552   0.57252   0.00000  Uiso   1.00
H961   H     0.43616   0.47386   0.57695   0.00000  Uiso   1.00
O962   O     0.35011   0.52531   0.52399   0.00000  Uiso   1.00
H963   H     0.34599   0.52817   0.56239   0.00000  Uiso   1.00
C964   C     0.55285   0.62077   0.65418   0.00000  Uiso   1.00
H965   H     0.56560   0.58915   0.65540   0.00000  Uiso   1.00
O966   O     0.55759   0.63555   0.61075   0.00000  Uiso   1.00
C967   C     0.83362   0.57975   0.74948   0.00000  Uiso   1.00
C968   C     0.81381   0.51091   0.99142   0.00000  Uiso   1.00
C969   C     0.82787   0.51539   0.93592   0.00000  Uiso   1.00
C970   C     0.85024   0.50687   0.51468   0.00000  Uiso   1.00
C971   C     0.89679   0.49547   0.98265   0.00000  Uiso   1.00
C972   C     0.91077   0.50593   0.92937   0.00000  Uiso   1.00
C973   C     0.87699   0.52092   0.90864   0.00000  Uiso   1.00
C974   C     0.84365   0.51823   0.56720   0.00000  Uiso   1.00
C975   C     0.91699   0.48187   0.56156   0.00000  Uiso   1.00
C976   C     0.79303   0.51345   0.90970   0.00000  Uiso   1.00
C977   C     0.86139   0.64468   0.70433   0.00000  Uiso   1.00
C978   C     0.80753   0.50430   0.85165   0.00000  Uiso   1.00
C979   C     0.86245   0.35502   0.70620   0.00000  Uiso   1.00
C980   C     0.83265   0.37605   0.75117   0.00000  Uiso   1.00
C981   C     0.80347   0.35549   0.79632   0.00000  Uiso   1.00
C982   C     0.80548   0.64532   0.79663   0.00000  Uiso   1.00
C983   C     0.83391   0.62395   0.75033   0.00000  Uiso   1.00
C984   C     0.98279   0.46877   0.72491   0.00000  Uiso   1.00
C985   C     0.69739   0.46898   0.72359   0.00000  Uiso   1.00
C986   C     0.68259   0.53096   0.77644   0.00000  Uiso   1.00
C987   C     0.96893   0.53149   0.77451   0.00000  Uiso   1.00
C988   C     0.83310   0.42024   0.75039   0.00000  Uiso   1.00
C989   C     0.85939   0.50070   0.64877   0.00000  Uiso   1.00
C990   C     0.92919   0.47960   0.50648   0.00000  Uiso   1.00
C991   C     0.87491   0.50196   0.59166   0.00000  Uiso   1.00
C992   C     0.74468   0.51876   0.94034   0.00000  Uiso   1.00
C993   C     0.73089   0.51909   0.99578   0.00000  Uiso   1.00
C994   C     0.76438   0.50947   0.52096   0.00000  Uiso   1.00
H995   H     0.94029   0.46802   0.58072   0.00000  Uiso   1.00
H996   H     0.97027   0.44391   0.70453   0.00000  Uiso   1.00
H997   H     0.94542   0.55697   0.79371   0.00000  Uiso   1.00
H998   H     0.94783   0.50624   0.90509   0.00000  Uiso   1.00
H999   H     0.89004   0.53684   0.87149   0.00000  Uiso   1.00
N1000  N     0.71426   0.50001   0.75002   0.00000  Uiso   1.00
N1001  N     0.95239   0.49998   0.75001   0.00000  Uiso   1.00
O1002  O     0.79512   0.56108   0.75001   0.00000  Uiso   1.00
O1003  O     0.87157   0.56107   0.75001   0.00000  Uiso   1.00
O1004  O     0.77613   0.50000   0.82681   0.00000  Uiso   1.00
O1005  O     0.85258   0.49999   0.82681   0.00000  Uiso   1.00
O1006  O     0.79510   0.43893   0.75000   0.00000  Uiso   1.00
O1007  O     0.87154   0.43892   0.75000   0.00000  Uiso   1.00
O1008  O     0.81409   0.50001   0.67319   0.00000  Uiso   1.00
O1009  O     0.89053   0.50000   0.67319   0.00000  Uiso   1.00
Zn1010 Zn    0.78229   0.50001   0.75000   0.00000  Uiso   1.00
Zn1011 Zn    0.88438   0.49999   0.75000   0.00000  Uiso   1.00
O1012  O     0.89145   0.37830   0.66489   0.00000  Uiso   1.00
H1013  H     0.92098   0.36222   0.64750   0.00000  Uiso   1.00
C1014  C     0.77324   0.37974   0.84390   0.00000  Uiso   1.00
H1015  H     0.77955   0.41284   0.84874   0.00000  Uiso   1.00
O1016  O     0.74051   0.36330   0.87805   0.00000  Uiso   1.00
O1017  O     0.77987   0.62481   0.84250   0.00000  Uiso   1.00
H1018  H     0.79221   0.59608   0.84250   0.00000  Uiso   1.00
O1019  O     0.72572   0.43702   0.69514   0.00000  Uiso   1.00
H1020  H     0.75882   0.44648   0.68469   0.00000  Uiso   1.00
O1021  O     0.69485   0.56207   0.80596   0.00000  Uiso   1.00
H1022  H     0.72153   0.55158   0.81642   0.00000  Uiso   1.00
O1023  O     0.97130   0.46005   0.97819   0.00000  Uiso   1.00
H1024  H     0.96978   0.45115   0.94289   0.00000  Uiso   1.00
O1025  O     0.80855   0.54708   0.59238   0.00000  Uiso   1.00
H1026  H     0.81800   0.56248   0.62012   0.00000  Uiso   1.00
O1027  O     0.71013   0.52407   0.91704   0.00000  Uiso   1.00
H1028  H     0.70608   0.49630   0.90172   0.00000  Uiso   1.00
O1029  O     0.74736   0.49552   0.57252   0.00000  Uiso   1.00
H1030  H     0.76949   0.47386   0.57695   0.00000  Uiso   1.00
O1031  O     0.68345   0.52531   0.52399   0.00000  Uiso   1.00
H1032  H     0.67932   0.52817   0.56239   0.00000  Uiso   1.00
C1033  C     0.88618   0.62077   0.65418   0.00000  Uiso   1.00
H1034  H     0.89894   0.58915   0.65540   0.00000  Uiso   1.00
O1035  O     0.89093   0.63555   0.61075   0.00000  Uiso   1.00
C1036  C     0.16695   0.91308   0.74948   0.00000  Uiso   1.00
C1037  C     0.14714   0.84425   0.99142   0.00000  Uiso   1.00
C1038  C     0.16120   0.84872   0.93592   0.00000  Uiso   1.00
C1039  C     0.18357   0.84021   0.51468   0.00000  Uiso   1.00
C1040  C     0.23013   0.82880   0.98265   0.00000  Uiso   1.00
C1041  C     0.24410   0.83927   0.92937   0.00000  Uiso   1.00
C1042  C     0.21032   0.85425   0.90864   0.00000  Uiso   1.00
C1043  C     0.17698   0.85156   0.56720   0.00000  Uiso   1.00
C1044  C     0.25032   0.81520   0.56156   0.00000  Uiso   1.00
C1045  C     0.12636   0.84678   0.90970   0.00000  Uiso   1.00
C1046  C     0.19472   0.97802   0.70433   0.00000  Uiso   1.00
C1047  C     0.14087   0.83763   0.85165   0.00000  Uiso   1.00
C1048  C     0.19578   0.68836   0.70620   0.00000  Uiso   1.00
C1049  C     0.16599   0.70938   0.75117   0.00000  Uiso   1.00
C1050  C     0.13680   0.68882   0.79632   0.00000  Uiso   1.00
C1051  C     0.13881   0.97865   0.79663   0.00000  Uiso   1.00
C1052  C     0.16724   0.95728   0.75033   0.00000  Uiso   1.00
C1053  C     0.31613   0.80210   0.72491   0.00000  Uiso   1.00
C1054  C     0.03072   0.80231   0.72359   0.00000  Uiso   1.00
C1055  C     0.01592   0.86429   0.77644   0.00000  Uiso   1.00
C1056  C     0.30227   0.86482   0.77451   0.00000  Uiso   1.00
C1057  C     0.16643   0.75357   0.75039   0.00000  Uiso   1.00
C1058  C     0.19272   0.83403   0.64877   0.00000  Uiso   1.00
C1059  C     0.26253   0.81294   0.50648   0.00000  Uiso   1.00
C1060  C     0.20824   0.83529   0.59166   0.00000  Uiso   1.00
C1061  C     0.07802   0.85210   0.94034   0.00000  Uiso   1.00
C1062  C     0.06422   0.85243   0.99578   0.00000  Uiso   1.00
C1063  C     0.09772   0.84280   0.52096   0.00000  Uiso   1.00
H1064  H     0.27363   0.80135   0.58072   0.00000  Uiso   1.00
H1065  H     0.30360   0.77725   0.70453   0.00000  Uiso   1.00
H1066  H     0.27875   0.89031   0.79371   0.00000  Uiso   1.00
H1067  H     0.28117   0.83957   0.90509   0.00000  Uiso   1.00
H1068  H     0.22337   0.87017   0.87149   0.00000  Uiso   1.00
N1069  N     0.04760   0.83334   0.75002   0.00000  Uiso   1.00
N1070  N     0.28573   0.83331   0.75001   0.00000  Uiso   1.00
O1071  O     0.12846   0.89442   0.75001   0.00000  Uiso   1.00
O1072  O     0.20490   0.89441   0.75001   0.00000  Uiso   1.00
O1073  O     0.10947   0.83333   0.82681   0.00000  Uiso   1.00
O1074  O     0.18591   0.83332   0.82681   0.00000  Uiso   1.00
O1075  O     0.12843   0.77226   0.75000   0.00000  Uiso   1.00
O1076  O     0.20488   0.77225   0.75000   0.00000  Uiso   1.00
O1077  O     0.14742   0.83335   0.67319   0.00000  Uiso   1.00
O1078  O     0.22387   0.83334   0.67319   0.00000  Uiso   1.00
Zn1079 Zn    0.11562   0.83334   0.75000   0.00000  Uiso   1.00
Zn1080 Zn    0.21771   0.83333   0.75000   0.00000  Uiso   1.00
O1081  O     0.22478   0.71163   0.66489   0.00000  Uiso   1.00
H1082  H     0.25431   0.69555   0.64750   0.00000  Uiso   1.00
C1083  C     0.10657   0.71307   0.84390   0.00000  Uiso   1.00
H1084  H     0.11289   0.74618   0.84874   0.00000  Uiso   1.00
O1085  O     0.07384   0.69663   0.87805   0.00000  Uiso   1.00
O1086  O     0.11320   0.95815   0.84250   0.00000  Uiso   1.00
H1087  H     0.12554   0.92942   0.84250   0.00000  Uiso   1.00
O1088  O     0.05905   0.77035   0.69514   0.00000  Uiso   1.00
H1089  H     0.09215   0.77981   0.68469   0.00000  Uiso   1.00
O1090  O     0.02819   0.89541   0.80596   0.00000  Uiso   1.00
H1091  H     0.05486   0.88491   0.81642   0.00000  Uiso   1.00
O1092  O     0.30463   0.79338   0.97819   0.00000  Uiso   1.00
H1093  H     0.30312   0.78448   0.94289   0.00000  Uiso   1.00
O1094  O     0.14189   0.88041   0.59238   0.00000  Uiso   1.00
H1095  H     0.15133   0.89582   0.62012   0.00000  Uiso   1.00
O1096  O     0.04346   0.85740   0.91704   0.00000  Uiso   1.00
H1097  H     0.03941   0.82963   0.90172   0.00000  Uiso   1.00
O1098  O     0.08070   0.82886   0.57252   0.00000  Uiso   1.00
H1099  H     0.10282   0.80719   0.57695   0.00000  Uiso   1.00
O1100  O     0.01678   0.85864   0.52399   0.00000  Uiso   1.00
H1101  H     0.01266   0.86150   0.56239   0.00000  Uiso   1.00
C1102  C     0.21951   0.95410   0.65418   0.00000  Uiso   1.00
H1103  H     0.23227   0.92249   0.65540   0.00000  Uiso   1.00
O1104  O     0.22426   0.96888   0.61075   0.00000  Uiso   1.00
C1105  C     0.50029   0.91308   0.74948   0.00000  Uiso   1.00
C1106  C     0.48047   0.84425   0.99142   0.00000  Uiso   1.00
C1107  C     0.49454   0.84872   0.93592   0.00000  Uiso   1.00
C1108  C     0.51690   0.84021   0.51468   0.00000  Uiso   1.00
C1109  C     0.56346   0.82880   0.98265   0.00000  Uiso   1.00
C1110  C     0.57744   0.83927   0.92937   0.00000  Uiso   1.00
C1111  C     0.54365   0.85425   0.90864   0.00000  Uiso   1.00
C1112  C     0.51032   0.85156   0.56720   0.00000  Uiso   1.00
C1113  C     0.58365   0.81520   0.56156   0.00000  Uiso   1.00
C1114  C     0.45969   0.84678   0.90970   0.00000  Uiso   1.00
C1115  C     0.52805   0.97802   0.70433   0.00000  Uiso   1.00
C1116  C     0.47420   0.83763   0.85165   0.00000  Uiso   1.00
C1117  C     0.52912   0.68836   0.70620   0.00000  Uiso   1.00
C1118  C     0.49932   0.70938   0.75117   0.00000  Uiso   1.00
C1119  C     0.47013   0.68882   0.79632   0.00000  Uiso   1.00
C1120  C     0.47215   0.97865   0.79663   0.00000  Uiso   1.00
C1121  C     0.50057   0.95728   0.75033   0.00000  Uiso   1.00
C1122  C     0.64946   0.80210   0.72491   0.00000  Uiso   1.00
C1123  C     0.36405   0.80231   0.72359   0.00000  Uiso   1.00
C1124  C     0.34925   0.86429   0.77644   0.00000  Uiso   1.00
C1125  C     0.63560   0.86482   0.77451   0.00000  Uiso   1.00
C1126  C     0.49977   0.75357   0.75039   0.00000  Uiso   1.00
C1127  C     0.52605   0.83403   0.64877   0.00000  Uiso   1.00
C1128  C     0.59586   0.81294   0.50648   0.00000  Uiso   1.00
C1129  C     0.54158   0.83529   0.59166   0.00000  Uiso   1.00
C1130  C     0.41135   0.85210   0.94034   0.00000  Uiso   1.00
C1131  C     0.39755   0.85243   0.99578   0.00000  Uiso   1.00
C1132  C     0.43105   0.84280   0.52096   0.00000  Uiso   1.00
H1133  H     0.60696   0.80135   0.58072   0.00000  Uiso   1.00
H1134  H     0.63693   0.77725   0.70453   0.00000  Uiso   1.00
H1135  H     0.61209   0.89031   0.79371   0.00000  Uiso   1.00
H1136  H     0.61450   0.83957   0.90509   0.00000  Uiso   1.00
H1137  H     0.55670   0.87017   0.87149   0.00000  Uiso   1.00
N1138  N     0.38093   0.83334   0.75002   0.00000  Uiso   1.00
N1139  N     0.61906   0.83331   0.75001   0.00000  Uiso   1.00
O1140  O     0.46179   0.89442   0.75001   0.00000  Uiso   1.00
O1141  O     0.53823   0.89441   0.75001   0.00000  Uiso   1.00
O1142  O     0.44280   0.83333   0.82681   0.00000  Uiso   1.00
O1143  O     0.51924   0.83332   0.82681   0.00000  Uiso   1.00
O1144  O     0.46177   0.77226   0.75000   0.00000  Uiso   1.00
O1145  O     0.53821   0.77225   0.75000   0.00000  Uiso   1.00
O1146  O     0.48076   0.83335   0.67319   0.00000  Uiso   1.00
O1147  O     0.55720   0.83334   0.67319   0.00000  Uiso   1.00
Zn1148 Zn    0.44896   0.83334   0.75000   0.00000  Uiso   1.00
Zn1149 Zn    0.55104   0.83333   0.75000   0.00000  Uiso   1.00
O1150  O     0.55812   0.71163   0.66489   0.00000  Uiso   1.00
H1151  H     0.58765   0.69555   0.64750   0.00000  Uiso   1.00
C1152  C     0.43991   0.71307   0.84390   0.00000  Uiso   1.00
H1153  H     0.44622   0.74618   0.84874   0.00000  Uiso   1.00
O1154  O     0.40718   0.69663   0.87805   0.00000  Uiso   1.00
O1155  O     0.44653   0.95815   0.84250   0.00000  Uiso   1.00
H1156  H     0.45888   0.92942   0.84250   0.00000  Uiso   1.00
O1157  O     0.39238   0.77035   0.69514   0.00000  Uiso   1.00
H1158  H     0.42549   0.77981   0.68469   0.00000  Uiso   1.00
O1159  O     0.36152   0.89541   0.80596   0.00000  Uiso   1.00
H1160  H     0.38819   0.88491   0.81642   0.00000  Uiso   1.00
O1161  O     0.63796   0.79338   0.97819   0.00000  Uiso   1.00
H1162  H     0.63645   0.78448   0.94289   0.00000  Uiso   1.00
O1163  O     0.47522   0.88041   0.59238   0.00000  Uiso   1.00
H1164  H     0.48466   0.89582   0.62012   0.00000  Uiso   1.00
O1165  O     0.37679   0.85740   0.91704   0.00000  Uiso   1.00
H1166  H     0.37275   0.82963   0.90172   0.00000  Uiso   1.00
O1167  O     0.41403   0.82886   0.57252   0.00000  Uiso   1.00
H1168  H     0.43616   0.80719   0.57695   0.00000  Uiso   1.00
O1169  O     0.35011   0.85864   0.52399   0.00000  Uiso   1.00
H1170  H     0.34599   0.86150   0.56239   0.00000  Uiso   1.00
C1171  C     0.55285   0.95410   0.65418   0.00000  Uiso   1.00
H1172  H     0.56560   0.92249   0.65540   0.00000  Uiso   1.00
O1173  O     0.55759   0.96888   0.61075   0.00000  Uiso   1.00
C1174  C     0.83362   0.91308   0.74948   0.00000  Uiso   1.00
C1175  C     0.81381   0.84425   0.99142   0.00000  Uiso   1.00
C1176  C     0.82787   0.84872   0.93592   0.00000  Uiso   1.00
C1177  C     0.85024   0.84021   0.51468   0.00000  Uiso   1.00
C1178  C     0.89679   0.82880   0.98265   0.00000  Uiso   1.00
C1179  C     0.91077   0.83927   0.92937   0.00000  Uiso   1.00
C1180  C     0.87699   0.85425   0.90864   0.00000  Uiso   1.00
C1181  C     0.84365   0.85156   0.56720   0.00000  Uiso   1.00
C1182  C     0.91699   0.81520   0.56156   0.00000  Uiso   1.00
C1183  C     0.79303   0.84678   0.90970   0.00000  Uiso   1.00
C1184  C     0.86139   0.97802   0.70433   0.00000  Uiso   1.00
C1185  C     0.80753   0.83763   0.85165   0.00000  Uiso   1.00
C1186  C     0.86245   0.68836   0.70620   0.00000  Uiso   1.00
C1187  C     0.83265   0.70938   0.75117   0.00000  Uiso   1.00
C1188  C     0.80347   0.68882   0.79632   0.00000  Uiso   1.00
C1189  C     0.80548   0.97865   0.79663   0.00000  Uiso   1.00
C1190  C     0.83391   0.95728   0.75033   0.00000  Uiso   1.00
C1191  C     0.98279   0.80210   0.72491   0.00000  Uiso   1.00
C1192  C     0.69739   0.80231   0.72359   0.00000  Uiso   1.00
C1193  C     0.68259   0.86429   0.77644   0.00000  Uiso   1.00
C1194  C     0.96893   0.86482   0.77451   0.00000  Uiso   1.00
C1195  C     0.83310   0.75357   0.75039   0.00000  Uiso   1.00
C1196  C     0.85939   0.83403   0.64877   0.00000  Uiso   1.00
C1197  C     0.92919   0.81294   0.50648   0.00000  Uiso   1.00
C1198  C     0.87491   0.83529   0.59166   0.00000  Uiso   1.00
C1199  C     0.74468   0.85210   0.94034   0.00000  Uiso   1.00
C1200  C     0.73089   0.85243   0.99578   0.00000  Uiso   1.00
C1201  C     0.76438   0.84280   0.52096   0.00000  Uiso   1.00
H1202  H     0.94029   0.80135   0.58072   0.00000  Uiso   1.00
H1203  H     0.97027   0.77725   0.70453   0.00000  Uiso   1.00
H1204  H     0.94542   0.89031   0.79371   0.00000  Uiso   1.00
H1205  H     0.94783   0.83957   0.90509   0.00000  Uiso   1.00
H1206  H     0.89004   0.87017   0.87149   0.00000  Uiso   1.00
N1207  N     0.71426   0.83334   0.75002   0.00000  Uiso   1.00
N1208  N     0.95239   0.83331   0.75001   0.00000  Uiso   1.00
O1209  O     0.79512   0.89442   0.75001   0.00000  Uiso   1.00
O1210  O     0.87157   0.89441   0.75001   0.00000  Uiso   1.00
O1211  O     0.77613   0.83333   0.82681   0.00000  Uiso   1.00
O1212  O     0.85258   0.83332   0.82681   0.00000  Uiso   1.00
O1213  O     0.79510   0.77226   0.75000   0.00000  Uiso   1.00
O1214  O     0.87154   0.77225   0.75000   0.00000  Uiso   1.00
O1215  O     0.81409   0.83335   0.67319   0.00000  Uiso   1.00
O1216  O     0.89053   0.83334   0.67319   0.00000  Uiso   1.00
Zn1217 Zn    0.78229   0.83334   0.75000   0.00000  Uiso   1.00
Zn1218 Zn    0.88438   0.83333   0.75000   0.00000  Uiso   1.00
O1219  O     0.89145   0.71163   0.66489   0.00000  Uiso   1.00
H1220  H     0.92098   0.69555   0.64750   0.00000  Uiso   1.00
C1221  C     0.77324   0.71307   0.84390   0.00000  Uiso   1.00
H1222  H     0.77955   0.74618   0.84874   0.00000  Uiso   1.00
O1223  O     0.74051   0.69663   0.87805   0.00000  Uiso   1.00
O1224  O     0.77987   0.95815   0.84250   0.00000  Uiso   1.00
H1225  H     0.79221   0.92942   0.84250   0.00000  Uiso   1.00
O1226  O     0.72572   0.77035   0.69514   0.00000  Uiso   1.00
H1227  H     0.75882   0.77981   0.68469   0.00000  Uiso   1.00
O1228  O     0.69485   0.89541   0.80596   0.00000  Uiso   1.00
H1229  H     0.72153   0.88491   0.81642   0.00000  Uiso   1.00
O1230  O     0.97130   0.79338   0.97819   0.00000  Uiso   1.00
H1231  H     0.96978   0.78448   0.94289   0.00000  Uiso   1.00
O1232  O     0.80855   0.88041   0.59238   0.00000  Uiso   1.00
H1233  H     0.81800   0.89582   0.62012   0.00000  Uiso   1.00
O1234  O     0.71013   0.85740   0.91704   0.00000  Uiso   1.00
H1235  H     0.70608   0.82963   0.90172   0.00000  Uiso   1.00
O1236  O     0.74736   0.82886   0.57252   0.00000  Uiso   1.00
H1237  H     0.76949   0.80719   0.57695   0.00000  Uiso   1.00
O1238  O     0.68345   0.85864   0.52399   0.00000  Uiso   1.00
H1239  H     0.67932   0.86150   0.56239   0.00000  Uiso   1.00
C1240  C     0.88618   0.95410   0.65418   0.00000  Uiso   1.00
H1241  H     0.89894   0.92249   0.65540   0.00000  Uiso   1.00
O1242  O     0.89093   0.96888   0.61075   0.00000  Uiso   1.00
loop_
_geom_bond_atom_site_label_1
_geom_bond_atom_site_label_2
_geom_bond_distance
_geom_bond_site_symmetry_2
_ccdc_geom_bond_type
C1     C17     1.409   .     S
C1     O37     1.283   .     A
C1     O36     1.284   .     A
C2     C3      1.408   .     A
C2     C625    1.418   .     S
C2     C649    1.427   .     S
C3     C10     1.424   .     A
C3     C7      1.418   .     A
C4     C8      1.387   .     A
C4     C623    1.418   1_554 S
C4     C626    1.416   1_554 S
C5     C6      1.389   .     A
C5     C625    1.416   .     S
C5     C645    1.413   .     S
C6     C7      1.384   .     A
C6     H32     1.083   .     S
C7     H33     1.074   .     S
C8     C25     1.402   .     A
C8     O59     1.385   .     S
C9     C24     1.391   .     A
C9     H29     1.084   .     S
C9     C25     1.399   .     A
C10    C26     1.414   .     A
C10    C12     1.486   .     S
C11    C67     1.494   .     S
C11    C17     1.408   .     A
C11    C220    1.393   .     S
C12    O39     1.295   .     A
C12    O38     1.312   .     A
C13    C14     1.398   .     A
C13    O46     1.384   .     S
C13    C425    1.393   1_545 S
C14    C15     1.406   .     A
C14    C22     1.410   .     S
C15    C48     1.497   .     S
C15    C430    1.389   1_545 S
C16    O51     1.387   .     S
C16    C17     1.412   .     A
C16    C222    1.389   .     S
C18    N35     1.358   .     A
C18    H30     1.082   .     S
C18    C88     1.415   .     S
C19    O53     1.374   .     S
C19    N34     1.386   .     A
C19    C156    1.415   1_455 S
C20    O55     1.373   .     S
C20    N34     1.381   .     A
C20    C159    1.415   1_455 S
C21    H31     1.081   .     S
C21    N35     1.361   .     A
C21    C89     1.415   .     S
C22    O40     1.283   .     A
C22    O41     1.284   .     A
C23    O42     1.293   .     A
C23    C25     1.439   .     S
C23    O43     1.292   .     A
C24    C626    1.413   1_554 S
C24    O678    1.379   1_554 S
C26    C27     1.397   .     A
C26    O61     1.373   .     S
C27    C649    1.406   .     S
C27    O686    1.381   .     S
C28    O63     1.381   .     S
C28    C648    1.406   1_554 S
C28    C623    1.427   1_554 S
N34    Zn44    2.023   .     S
N35    Zn45    2.023   .     S
O36    Zn44    1.983   .     S
O37    Zn45    1.986   .     S
O38    Zn44    1.991   .     S
O39    Zn45    1.954   .     S
O40    Zn44    1.986   .     S
O41    Zn45    1.983   .     S
O42    Zn44    1.954   .     S
O43    Zn45    1.991   .     S
O46    H47     0.990   .     S
C48    O50     1.221   .     D
C48    H49     1.084   .     S
O51    H52     0.988   .     S
O53    H54     0.981   .     S
O55    H56     0.984   .     S
O57    H58     0.990   .     S
O57    C645    1.379   .     S
O59    H60     0.991   .     S
O61    H62     0.991   .     S
O63    H64     0.991   .     S
O65    H66     0.991   .     S
O65    C648    1.381   1_554 S
C67    H68     1.083   .     S
C67    O69     1.221   .     D
C70    C86     1.409   .     S
C70    O106    1.283   .     A
C70    O105    1.284   .     A
C71    C72     1.408   .     A
C71    C694    1.418   .     S
C71    C718    1.427   .     S
C72    C79     1.424   .     A
C72    C76     1.418   .     A
C73    C77     1.387   .     A
C73    C692    1.418   1_554 S
C73    C695    1.416   1_554 S
C74    C75     1.389   .     A
C74    C694    1.416   .     S
C74    C714    1.413   .     S
C75    C76     1.384   .     A
C75    H101    1.083   .     S
C76    H102    1.074   .     S
C77    C94     1.402   .     A
C77    O128    1.385   .     S
C78    C93     1.391   .     A
C78    H98     1.084   .     S
C78    C94     1.399   .     A
C79    C95     1.414   .     A
C79    C81     1.486   .     S
C80    C136    1.494   .     S
C80    C86     1.408   .     A
C80    C289    1.393   .     S
C81    O108    1.295   .     A
C81    O107    1.312   .     A
C82    C83     1.398   .     A
C82    O115    1.384   .     S
C82    C494    1.393   1_545 S
C83    C84     1.406   .     A
C83    C91     1.410   .     S
C84    C117    1.497   .     S
C84    C499    1.389   1_545 S
C85    O120    1.387   .     S
C85    C86     1.412   .     A
C85    C291    1.389   .     S
C87    N104    1.358   .     A
C87    H99     1.082   .     S
C87    C157    1.415   .     S
C88    O122    1.374   .     S
C88    N103    1.386   .     A
C89    O124    1.373   .     S
C89    N103    1.381   .     A
C90    H100    1.081   .     S
C90    N104    1.361   .     A
C90    C158    1.415   .     S
C91    O109    1.283   .     A
C91    O110    1.284   .     A
C92    O111    1.293   .     A
C92    C94     1.439   .     S
C92    O112    1.292   .     A
C93    C695    1.413   1_554 S
C93    O747    1.379   1_554 S
C95    C96     1.397   .     A
C95    O130    1.373   .     S
C96    C718    1.406   .     S
C96    O755    1.381   .     S
C97    O132    1.381   .     S
C97    C717    1.406   1_554 S
C97    C692    1.427   1_554 S
N103   Zn113   2.023   .     S
N104   Zn114   2.023   .     S
O105   Zn113   1.983   .     S
O106   Zn114   1.986   .     S
O107   Zn113   1.991   .     S
O108   Zn114   1.954   .     S
O109   Zn113   1.986   .     S
O110   Zn114   1.983   .     S
O111   Zn113   1.954   .     S
O112   Zn114   1.991   .     S
O115   H116    0.990   .     S
C117   O119    1.221   .     D
C117   H118    1.084   .     S
O120   H121    0.988   .     S
O122   H123    0.981   .     S
O124   H125    0.984   .     S
O126   H127    0.990   .     S
O126   C714    1.379   .     S
O128   H129    0.991   .     S
O130   H131    0.991   .     S
O132   H133    0.991   .     S
O134   H135    0.991   .     S
O134   C717    1.381   1_554 S
C136   H137    1.083   .     S
C136   O138    1.221   .     D
C139   C155    1.409   .     S
C139   O175    1.283   .     A
C139   O174    1.284   .     A
C140   C141    1.408   .     A
C140   C763    1.418   .     S
C140   C787    1.427   .     S
C141   C148    1.424   .     A
C141   C145    1.418   .     A
C142   C146    1.387   .     A
C142   C761    1.418   1_554 S
C142   C764    1.416   1_554 S
C143   C144    1.389   .     A
C143   C763    1.416   .     S
C143   C783    1.413   .     S
C144   C145    1.384   .     A
C144   H170    1.083   .     S
C145   H171    1.074   .     S
C146   C163    1.402   .     A
C146   O197    1.385   .     S
C147   C162    1.391   .     A
C147   H167    1.084   .     S
C147   C163    1.399   .     A
C148   C164    1.414   .     A
C148   C150    1.486   .     S
C149   C205    1.494   .     S
C149   C155    1.408   .     A
C149   C358    1.393   .     S
C150   O177    1.295   .     A
C150   O176    1.312   .     A
C151   C152    1.398   .     A
C151   O184    1.384   .     S
C151   C563    1.393   1_545 S
C152   C153    1.406   .     A
C152   C160    1.410   .     S
C153   C186    1.497   .     S
C153   C568    1.389   1_545 S
C154   O189    1.387   .     S
C154   C155    1.412   .     A
C154   C360    1.389   .     S
C156   N173    1.358   .     A
C156   H168    1.082   .     S
C156   C19     1.415   1_655 S
C157   O191    1.374   .     S
C157   N172    1.386   .     A
C158   O193    1.373   .     S
C158   N172    1.381   .     A
C159   H169    1.081   .     S
C159   N173    1.361   .     A
C159   C20     1.415   1_655 S
C160   O178    1.283   .     A
C160   O179    1.284   .     A
C161   O180    1.293   .     A
C161   C163    1.439   .     S
C161   O181    1.292   .     A
C162   C764    1.413   1_554 S
C162   O816    1.379   1_554 S
C164   C165    1.397   .     A
C164   O199    1.373   .     S
C165   C787    1.406   .     S
C165   O824    1.381   .     S
C166   O201    1.381   .     S
C166   C786    1.406   1_554 S
C166   C761    1.427   1_554 S
N172   Zn182   2.023   .     S
N173   Zn183   2.023   .     S
O174   Zn182   1.983   .     S
O175   Zn183   1.986   .     S
O176   Zn182   1.991   .     S
O177   Zn183   1.954   .     S
O178   Zn182   1.986   .     S
O179   Zn183   1.983   .     S
O180   Zn182   1.954   .     S
O181   Zn183   1.991   .     S
O184   H185    0.990   .     S
C186   O188    1.221   .     D
C186   H187    1.084   .     S
O189   H190    0.988   .     S
O191   H192    0.981   .     S
O193   H194    0.984   .     S
O195   H196    0.990   .     S
O195   C783    1.379   .     S
O197   H198    0.991   .     S
O199   H200    0.991   .     S
O201   H202    0.991   .     S
O203   H204    0.991   .     S
O203   C786    1.381   1_554 S
C205   H206    1.083   .     S
C205   O207    1.221   .     D
C208   C224    1.409   .     S
C208   O244    1.283   .     A
C208   O243    1.284   .     A
C209   C210    1.408   .     A
C209   C832    1.418   .     S
C209   C856    1.427   .     S
C210   C217    1.424   .     A
C210   C214    1.418   .     A
C211   C215    1.387   .     A
C211   C830    1.418   1_554 S
C211   C833    1.416   1_554 S
C212   C213    1.389   .     A
C212   C832    1.416   .     S
C212   C852    1.413   .     S
C213   C214    1.384   .     A
C213   H239    1.083   .     S
C214   H240    1.074   .     S
C215   C232    1.402   .     A
C215   O266    1.385   .     S
C216   C231    1.391   .     A
C216   H236    1.084   .     S
C216   C232    1.399   .     A
C217   C233    1.414   .     A
C217   C219    1.486   .     S
C218   C274    1.494   .     S
C218   C224    1.408   .     A
C218   C427    1.393   .     S
C219   O246    1.295   .     A
C219   O245    1.312   .     A
C220   C221    1.398   .     A
C220   O253    1.384   .     S
C221   C222    1.406   .     A
C221   C229    1.410   .     S
C222   C255    1.497   .     S
C223   O258    1.387   .     S
C223   C224    1.412   .     A
C223   C429    1.389   .     S
C225   N242    1.358   .     A
C225   H237    1.082   .     S
C225   C295    1.415   .     S
C226   O260    1.374   .     S
C226   N241    1.386   .     A
C226   C363    1.415   1_455 S
C227   O262    1.373   .     S
C227   N241    1.381   .     A
C227   C366    1.415   1_455 S
C228   H238    1.081   .     S
C228   N242    1.361   .     A
C228   C296    1.415   .     S
C229   O247    1.283   .     A
C229   O248    1.284   .     A
C230   O249    1.293   .     A
C230   C232    1.439   .     S
C230   O250    1.292   .     A
C231   C833    1.413   1_554 S
C231   O885    1.379   1_554 S
C233   C234    1.397   .     A
C233   O268    1.373   .     S
C234   C856    1.406   .     S
C234   O893    1.381   .     S
C235   O270    1.381   .     S
C235   C855    1.406   1_554 S
C235   C830    1.427   1_554 S
N241   Zn251   2.023   .     S
N242   Zn252   2.023   .     S
O243   Zn251   1.983   .     S
O244   Zn252   1.986   .     S
O245   Zn251   1.991   .     S
O246   Zn252   1.954   .     S
O247   Zn251   1.986   .     S
O248   Zn252   1.983   .     S
O249   Zn251   1.954   .     S
O250   Zn252   1.991   .     S
O253   H254    0.990   .     S
C255   O257    1.221   .     D
C255   H256    1.084   .     S
O258   H259    0.988   .     S
O260   H261    0.981   .     S
O262   H263    0.984   .     S
O264   H265    0.990   .     S
O264   C852    1.379   .     S
O266   H267    0.991   .     S
O268   H269    0.991   .     S
O270   H271    0.991   .     S
O272   H273    0.991   .     S
O272   C855    1.381   1_554 S
C274   H275    1.083   .     S
C274   O276    1.221   .     D
C277   C293    1.409   .     S
C277   O313    1.283   .     A
C277   O312    1.284   .     A
C278   C279    1.408   .     A
C278   C901    1.418   .     S
C278   C925    1.427   .     S
C279   C286    1.424   .     A
C279   C283    1.418   .     A
C280   C284    1.387   .     A
C280   C899    1.418   1_554 S
C280   C902    1.416   1_554 S
C281   C282    1.389   .     A
C281   C901    1.416   .     S
C281   C921    1.413   .     S
C282   C283    1.384   .     A
C282   H308    1.083   .     S
C283   H309    1.074   .     S
C284   C301    1.402   .     A
C284   O335    1.385   .     S
C285   C300    1.391   .     A
C285   H305    1.084   .     S
C285   C301    1.399   .     A
C286   C302    1.414   .     A
C286   C288    1.486   .     S
C287   C343    1.494   .     S
C287   C293    1.408   .     A
C287   C496    1.393   .     S
C288   O315    1.295   .     A
C288   O314    1.312   .     A
C289   C290    1.398   .     A
C289   O322    1.384   .     S
C290   C291    1.406   .     A
C290   C298    1.410   .     S
C291   C324    1.497   .     S
C292   O327    1.387   .     S
C292   C293    1.412   .     A
C292   C498    1.389   .     S
C294   N311    1.358   .     A
C294   H306    1.082   .     S
C294   C364    1.415   .     S
C295   O329    1.374   .     S
C295   N310    1.386   .     A
C296   O331    1.373   .     S
C296   N310    1.381   .     A
C297   H307    1.081   .     S
C297   N311    1.361   .     A
C297   C365    1.415   .     S
C298   O316    1.283   .     A
C298   O317    1.284   .     A
C299   O318    1.293   .     A
C299   C301    1.439   .     S
C299   O319    1.292   .     A
C300   C902    1.413   1_554 S
C300   O954    1.379   1_554 S
C302   C303    1.397   .     A
C302   O337    1.373   .     S
C303   C925    1.406   .     S
C303   O962    1.381   .     S
C304   O339    1.381   .     S
C304   C924    1.406   1_554 S
C304   C899    1.427   1_554 S
N310   Zn320   2.023   .     S
N311   Zn321   2.023   .     S
O312   Zn320   1.983   .     S
O313   Zn321   1.986   .     S
O314   Zn320   1.991   .     S
O315   Zn321   1.954   .     S
O316   Zn320   1.986   .     S
O317   Zn321   1.983   .     S
O318   Zn320   1.954   .     S
O319   Zn321   1.991   .     S
O322   H323    0.990   .     S
C324   O326    1.221   .     D
C324   H325    1.084   .     S
O327   H328    0.988   .     S
O329   H330    0.981   .     S
O331   H332    0.984   .     S
O333   H334    0.990   .     S
O333   C921    1.379   .     S
O335   H336    0.991   .     S
O337   H338    0.991   .     S
O339   H340    0.991   .     S
O341   H342    0.991   .     S
O341   C924    1.381   1_554 S
C343   H344    1.083   .     S
C343   O345    1.221   .     D
C346   C362    1.409   .     S
C346   O382    1.283   .     A
C346   O381    1.284   .     A
C347   C348    1.408   .     A
C347   C970    1.418   .     S
C347   C994    1.427   .     S
C348   C355    1.424   .     A
C348   C352    1.418   .     A
C349   C353    1.387   .     A
C349   C968    1.418   1_554 S
C349   C971    1.416   1_554 S
C350   C351    1.389   .     A
C350   C970    1.416   .     S
C350   C990    1.413   .     S
C351   C352    1.384   .     A
C351   H377    1.083   .     S
C352   H378    1.074   .     S
C353   C370    1.402   .     A
C353   O404    1.385   .     S
C354   C369    1.391   .     A
C354   H374    1.084   .     S
C354   C370    1.399   .     A
C355   C371    1.414   .     A
C355   C357    1.486   .     S
C356   C412    1.494   .     S
C356   C362    1.408   .     A
C356   C565    1.393   .     S
C357   O384    1.295   .     A
C357   O383    1.312   .     A
C358   C359    1.398   .     A
C358   O391    1.384   .     S
C359   C360    1.406   .     A
C359   C367    1.410   .     S
C360   C393    1.497   .     S
C361   O396    1.387   .     S
C361   C362    1.412   .     A
C361   C567    1.389   .     S
C363   N380    1.358   .     A
C363   H375    1.082   .     S
C363   C226    1.415   1_655 S
C364   O398    1.374   .     S
C364   N379    1.386   .     A
C365   O400    1.373   .     S
C365   N379    1.381   .     A
C366   H376    1.081   .     S
C366   N380    1.361   .     A
C366   C227    1.415   1_655 S
C367   O385    1.283   .     A
C367   O386    1.284   .     A
C368   O387    1.293   .     A
C368   C370    1.439   .     S
C368   O388    1.292   .     A
C369   C971    1.413   1_554 S
C369   O1023   1.379   1_554 S
C371   C372    1.397   .     A
C371   O406    1.373   .     S
C372   C994    1.406   .     S
C372   O1031   1.381   .     S
C373   O408    1.381   .     S
C373   C993    1.406   1_554 S
C373   C968    1.427   1_554 S
N379   Zn389   2.023   .     S
N380   Zn390   2.023   .     S
O381   Zn389   1.983   .     S
O382   Zn390   1.986   .     S
O383   Zn389   1.991   .     S
O384   Zn390   1.954   .     S
O385   Zn389   1.986   .     S
O386   Zn390   1.983   .     S
O387   Zn389   1.954   .     S
O388   Zn390   1.991   .     S
O391   H392    0.990   .     S
C393   O395    1.221   .     D
C393   H394    1.084   .     S
O396   H397    0.988   .     S
O398   H399    0.981   .     S
O400   H401    0.984   .     S
O402   H403    0.990   .     S
O402   C990    1.379   .     S
O404   H405    0.991   .     S
O406   H407    0.991   .     S
O408   H409    0.991   .     S
O410   H411    0.991   .     S
O410   C993    1.381   1_554 S
C412   H413    1.083   .     S
C412   O414    1.221   .     D
C415   C431    1.409   .     S
C415   O451    1.283   .     A
C415   O450    1.284   .     A
C416   C417    1.408   .     A
C416   C1039   1.418   .     S
C416   C1063   1.427   .     S
C417   C424    1.424   .     A
C417   C421    1.418   .     A
C418   C422    1.387   .     A
C418   C1037   1.418   1_554 S
C418   C1040   1.416   1_554 S
C419   C420    1.389   .     A
C419   C1039   1.416   .     S
C419   C1059   1.413   .     S
C420   C421    1.384   .     A
C420   H446    1.083   .     S
C421   H447    1.074   .     S
C422   C439    1.402   .     A
C422   O473    1.385   .     S
C423   C438    1.391   .     A
C423   H443    1.084   .     S
C423   C439    1.399   .     A
C424   C440    1.414   .     A
C424   C426    1.486   .     S
C425   C481    1.494   .     S
C425   C431    1.408   .     A
C425   C13     1.393   1_565 S
C426   O453    1.295   .     A
C426   O452    1.312   .     A
C427   C428    1.398   .     A
C427   O460    1.384   .     S
C428   C429    1.406   .     A
C428   C436    1.410   .     S
C429   C462    1.497   .     S
C430   O465    1.387   .     S
C430   C431    1.412   .     A
C430   C15     1.389   1_565 S
C432   N449    1.358   .     A
C432   H444    1.082   .     S
C432   C502    1.415   .     S
C433   O467    1.374   .     S
C433   N448    1.386   .     A
C433   C570    1.415   1_455 S
C434   O469    1.373   .     S
C434   N448    1.381   .     A
C434   C573    1.415   1_455 S
C435   H445    1.081   .     S
C435   N449    1.361   .     A
C435   C503    1.415   .     S
C436   O454    1.283   .     A
C436   O455    1.284   .     A
C437   O456    1.293   .     A
C437   C439    1.439   .     S
C437   O457    1.292   .     A
C438   C1040   1.413   1_554 S
C438   O1092   1.379   1_554 S
C440   C441    1.397   .     A
C440   O475    1.373   .     S
C441   C1063   1.406   .     S
C441   O1100   1.381   .     S
C442   O477    1.381   .     S
C442   C1062   1.406   1_554 S
C442   C1037   1.427   1_554 S
N448   Zn458   2.023   .     S
N449   Zn459   2.023   .     S
O450   Zn458   1.983   .     S
O451   Zn459   1.986   .     S
O452   Zn458   1.991   .     S
O453   Zn459   1.954   .     S
O454   Zn458   1.986   .     S
O455   Zn459   1.983   .     S
O456   Zn458   1.954   .     S
O457   Zn459   1.991   .     S
O460   H461    0.990   .     S
C462   O464    1.221   .     D
C462   H463    1.084   .     S
O465   H466    0.988   .     S
O467   H468    0.981   .     S
O469   H470    0.984   .     S
O471   H472    0.990   .     S
O471   C1059   1.379   .     S
O473   H474    0.991   .     S
O475   H476    0.991   .     S
O477   H478    0.991   .     S
O479   H480    0.991   .     S
O479   C1062   1.381   1_554 S
C481   H482    1.083   .     S
C481   O483    1.221   .     D
C484   C500    1.409   .     S
C484   O520    1.283   .     A
C484   O519    1.284   .     A
C485   C486    1.408   .     A
C485   C1108   1.418   .     S
C485   C1132   1.427   .     S
C486   C493    1.424   .     A
C486   C490    1.418   .     A
C487   C491    1.387   .     A
C487   C1106   1.418   1_554 S
C487   C1109   1.416   1_554 S
C488   C489    1.389   .     A
C488   C1108   1.416   .     S
C488   C1128   1.413   .     S
C489   C490    1.384   .     A
C489   H515    1.083   .     S
C490   H516    1.074   .     S
C491   C508    1.402   .     A
C491   O542    1.385   .     S
C492   C507    1.391   .     A
C492   H512    1.084   .     S
C492   C508    1.399   .     A
C493   C509    1.414   .     A
C493   C495    1.486   .     S
C494   C550    1.494   .     S
C494   C500    1.408   .     A
C494   C82     1.393   1_565 S
C495   O522    1.295   .     A
C495   O521    1.312   .     A
C496   C497    1.398   .     A
C496   O529    1.384   .     S
C497   C498    1.406   .     A
C497   C505    1.410   .     S
C498   C531    1.497   .     S
C499   O534    1.387   .     S
C499   C500    1.412   .     A
C499   C84     1.389   1_565 S
C501   N518    1.358   .     A
C501   H513    1.082   .     S
C501   C571    1.415   .     S
C502   O536    1.374   .     S
C502   N517    1.386   .     A
C503   O538    1.373   .     S
C503   N517    1.381   .     A
C504   H514    1.081   .     S
C504   N518    1.361   .     A
C504   C572    1.415   .     S
C505   O523    1.283   .     A
C505   O524    1.284   .     A
C506   O525    1.293   .     A
C506   C508    1.439   .     S
C506   O526    1.292   .     A
C507   C1109   1.413   1_554 S
C507   O1161   1.379   1_554 S
C509   C510    1.397   .     A
C509   O544    1.373   .     S
C510   C1132   1.406   .     S
C510   O1169   1.381   .     S
C511   O546    1.381   .     S
C511   C1131   1.406   1_554 S
C511   C1106   1.427   1_554 S
N517   Zn527   2.023   .     S
N518   Zn528   2.023   .     S
O519   Zn527   1.983   .     S
O520   Zn528   1.986   .     S
O521   Zn527   1.991   .     S
O522   Zn528   1.954   .     S
O523   Zn527   1.986   .     S
O524   Zn528   1.983   .     S
O525   Zn527   1.954   .     S
O526   Zn528   1.991   .     S
O529   H530    0.990   .     S
C531   O533    1.221   .     D
C531   H532    1.084   .     S
O534   H535    0.988   .     S
O536   H537    0.981   .     S
O538   H539    0.984   .     S
O540   H541    0.990   .     S
O540   C1128   1.379   .     S
O542   H543    0.991   .     S
O544   H545    0.991   .     S
O546   H547    0.991   .     S
O548   H549    0.991   .     S
O548   C1131   1.381   1_554 S
C550   H551    1.083   .     S
C550   O552    1.221   .     D
C553   C569    1.409   .     S
C553   O589    1.283   .     A
C553   O588    1.284   .     A
C554   C555    1.408   .     A
C554   C1177   1.418   .     S
C554   C1201   1.427   .     S
C555   C562    1.424   .     A
C555   C559    1.418   .     A
C556   C560    1.387   .     A
C556   C1175   1.418   1_554 S
C556   C1178   1.416   1_554 S
C557   C558    1.389   .     A
C557   C1177   1.416   .     S
C557   C1197   1.413   .     S
C558   C559    1.384   .     A
C558   H584    1.083   .     S
C559   H585    1.074   .     S
C560   C577    1.402   .     A
C560   O611    1.385   .     S
C561   C576    1.391   .     A
C561   H581    1.084   .     S
C561   C577    1.399   .     A
C562   C578    1.414   .     A
C562   C564    1.486   .     S
C563   C619    1.494   .     S
C563   C569    1.408   .     A
C563   C151    1.393   1_565 S
C564   O591    1.295   .     A
C564   O590    1.312   .     A
C565   C566    1.398   .     A
C565   O598    1.384   .     S
C566   C567    1.406   .     A
C566   C574    1.410   .     S
C567   C600    1.497   .     S
C568   O603    1.387   .     S
C568   C569    1.412   .     A
C568   C153    1.389   1_565 S
C570   N587    1.358   .     A
C570   H582    1.082   .     S
C570   C433    1.415   1_655 S
C571   O605    1.374   .     S
C571   N586    1.386   .     A
C572   O607    1.373   .     S
C572   N586    1.381   .     A
C573   H583    1.081   .     S
C573   N587    1.361   .     A
C573   C434    1.415   1_655 S
C574   O592    1.283   .     A
C574   O593    1.284   .     A
C575   O594    1.293   .     A
C575   C577    1.439   .     S
C575   O595    1.292   .     A
C576   C1178   1.413   1_554 S
C576   O1230   1.379   1_554 S
C578   C579    1.397   .     A
C578   O613    1.373   .     S
C579   C1201   1.406   .     S
C579   O1238   1.381   .     S
C580   O615    1.381   .     S
C580   C1200   1.406   1_554 S
C580   C1175   1.427   1_554 S
N586   Zn596   2.023   .     S
N587   Zn597   2.023   .     S
O588   Zn596   1.983   .     S
O589   Zn597   1.986   .     S
O590   Zn596   1.991   .     S
O591   Zn597   1.954   .     S
O592   Zn596   1.986   .     S
O593   Zn597   1.983   .     S
O594   Zn596   1.954   .     S
O595   Zn597   1.991   .     S
O598   H599    0.990   .     S
C600   O602    1.221   .     D
C600   H601    1.084   .     S
O603   H604    0.988   .     S
O605   H606    0.981   .     S
O607   H608    0.984   .     S
O609   H610    0.990   .     S
O609   C1197   1.379   .     S
O611   H612    0.991   .     S
O613   H614    0.991   .     S
O615   H616    0.991   .     S
O617   H618    0.991   .     S
O617   C1200   1.381   1_554 S
C619   H620    1.083   .     S
C619   O621    1.221   .     D
C622   C638    1.409   .     S
C622   O658    1.283   .     A
C622   O657    1.284   .     A
C623   C624    1.408   .     A
C623   C4      1.418   1_556 S
C623   C28     1.427   1_556 S
C624   C631    1.424   .     A
C624   C628    1.418   .     A
C625   C629    1.387   .     A
C626   C627    1.389   .     A
C626   C4      1.416   1_556 S
C626   C24     1.413   1_556 S
C627   C628    1.384   .     A
C627   H653    1.083   .     S
C628   H654    1.074   .     S
C629   C646    1.402   .     A
C629   O680    1.385   .     S
C630   C645    1.391   .     A
C630   H650    1.084   .     S
C630   C646    1.399   .     A
C631   C647    1.414   .     A
C631   C633    1.486   .     S
C632   C688    1.494   .     S
C632   C638    1.408   .     A
C632   C841    1.393   .     S
C633   O660    1.295   .     A
C633   O659    1.312   .     A
C634   C635    1.398   .     A
C634   O667    1.384   .     S
C634   C1046   1.393   1_545 S
C635   C636    1.406   .     A
C635   C643    1.410   .     S
C636   C669    1.497   .     S
C636   C1051   1.389   1_545 S
C637   O672    1.387   .     S
C637   C638    1.412   .     A
C637   C843    1.389   .     S
C639   N656    1.358   .     A
C639   H651    1.082   .     S
C639   C709    1.415   .     S
C640   O674    1.374   .     S
C640   N655    1.386   .     A
C640   C777    1.415   1_455 S
C641   O676    1.373   .     S
C641   N655    1.381   .     A
C641   C780    1.415   1_455 S
C642   H652    1.081   .     S
C642   N656    1.361   .     A
C642   C710    1.415   .     S
C643   O661    1.283   .     A
C643   O662    1.284   .     A
C644   O663    1.293   .     A
C644   C646    1.439   .     S
C644   O664    1.292   .     A
C647   C648    1.397   .     A
C647   O682    1.373   .     S
C648   C28     1.406   1_556 S
C648   O65     1.381   1_556 S
C649   O684    1.381   .     S
N655   Zn665   2.023   .     S
N656   Zn666   2.023   .     S
O657   Zn665   1.983   .     S
O658   Zn666   1.986   .     S
O659   Zn665   1.991   .     S
O660   Zn666   1.954   .     S
O661   Zn665   1.986   .     S
O662   Zn666   1.983   .     S
O663   Zn665   1.954   .     S
O664   Zn666   1.991   .     S
O667   H668    0.990   .     S
C669   O671    1.221   .     D
C669   H670    1.084   .     S
O672   H673    0.988   .     S
O674   H675    0.981   .     S
O676   H677    0.984   .     S
O678   H679    0.990   .     S
O678   C24     1.379   1_556 S
O680   H681    0.991   .     S
O682   H683    0.991   .     S
O684   H685    0.991   .     S
O686   H687    0.991   .     S
C688   H689    1.083   .     S
C688   O690    1.221   .     D
C691   C707    1.409   .     S
C691   O727    1.283   .     A
C691   O726    1.284   .     A
C692   C693    1.408   .     A
C692   C73     1.418   1_556 S
C692   C97     1.427   1_556 S
C693   C700    1.424   .     A
C693   C697    1.418   .     A
C694   C698    1.387   .     A
C695   C696    1.389   .     A
C695   C73     1.416   1_556 S
C695   C93     1.413   1_556 S
C696   C697    1.384   .     A
C696   H722    1.083   .     S
C697   H723    1.074   .     S
C698   C715    1.402   .     A
C698   O749    1.385   .     S
C699   C714    1.391   .     A
C699   H719    1.084   .     S
C699   C715    1.399   .     A
C700   C716    1.414   .     A
C700   C702    1.486   .     S
C701   C757    1.494   .     S
C701   C707    1.408   .     A
C701   C910    1.393   .     S
C702   O729    1.295   .     A
C702   O728    1.312   .     A
C703   C704    1.398   .     A
C703   O736    1.384   .     S
C703   C1115   1.393   1_545 S
C704   C705    1.406   .     A
C704   C712    1.410   .     S
C705   C738    1.497   .     S
C705   C1120   1.389   1_545 S
C706   O741    1.387   .     S
C706   C707    1.412   .     A
C706   C912    1.389   .     S
C708   N725    1.358   .     A
C708   H720    1.082   .     S
C708   C778    1.415   .     S
C709   O743    1.374   .     S
C709   N724    1.386   .     A
C710   O745    1.373   .     S
C710   N724    1.381   .     A
C711   H721    1.081   .     S
C711   N725    1.361   .     A
C711   C779    1.415   .     S
C712   O730    1.283   .     A
C712   O731    1.284   .     A
C713   O732    1.293   .     A
C713   C715    1.439   .     S
C713   O733    1.292   .     A
C716   C717    1.397   .     A
C716   O751    1.373   .     S
C717   C97     1.406   1_556 S
C717   O134    1.381   1_556 S
C718   O753    1.381   .     S
N724   Zn734   2.023   .     S
N725   Zn735   2.023   .     S
O726   Zn734   1.983   .     S
O727   Zn735   1.986   .     S
O728   Zn734   1.991   .     S
O729   Zn735   1.954   .     S
O730   Zn734   1.986   .     S
O731   Zn735   1.983   .     S
O732   Zn734   1.954   .     S
O733   Zn735   1.991   .     S
O736   H737    0.990   .     S
C738   O740    1.221   .     D
C738   H739    1.084   .     S
O741   H742    0.988   .     S
O743   H744    0.981   .     S
O745   H746    0.984   .     S
O747   H748    0.990   .     S
O747   C93     1.379   1_556 S
O749   H750    0.991   .     S
O751   H752    0.991   .     S
O753   H754    0.991   .     S
O755   H756    0.991   .     S
C757   H758    1.083   .     S
C757   O759    1.221   .     D
C760   C776    1.409   .     S
C760   O796    1.283   .     A
C760   O795    1.284   .     A
C761   C762    1.408   .     A
C761   C142    1.418   1_556 S
C761   C166    1.427   1_556 S
C762   C769    1.424   .     A
C762   C766    1.418   .     A
C763   C767    1.387   .     A
C764   C765    1.389   .     A
C764   C142    1.416   1_556 S
C764   C162    1.413   1_556 S
C765   C766    1.384   .     A
C765   H791    1.083   .     S
C766   H792    1.074   .     S
C767   C784    1.402   .     A
C767   O818    1.385   .     S
C768   C783    1.391   .     A
C768   H788    1.084   .     S
C768   C784    1.399   .     A
C769   C785    1.414   .     A
C769   C771    1.486   .     S
C770   C826    1.494   .     S
C770   C776    1.408   .     A
C770   C979    1.393   .     S
C771   O798    1.295   .     A
C771   O797    1.312   .     A
C772   C773    1.398   .     A
C772   O805    1.384   .     S
C772   C1184   1.393   1_545 S
C773   C774    1.406   .     A
C773   C781    1.410   .     S
C774   C807    1.497   .     S
C774   C1189   1.389   1_545 S
C775   O810    1.387   .     S
C775   C776    1.412   .     A
C775   C981    1.389   .     S
C777   N794    1.358   .     A
C777   H789    1.082   .     S
C777   C640    1.415   1_655 S
C778   O812    1.374   .     S
C778   N793    1.386   .     A
C779   O814    1.373   .     S
C779   N793    1.381   .     A
C780   H790    1.081   .     S
C780   N794    1.361   .     A
C780   C641    1.415   1_655 S
C781   O799    1.283   .     A
C781   O800    1.284   .     A
C782   O801    1.293   .     A
C782   C784    1.439   .     S
C782   O802    1.292   .     A
C785   C786    1.397   .     A
C785   O820    1.373   .     S
C786   C166    1.406   1_556 S
C786   O203    1.381   1_556 S
C787   O822    1.381   .     S
N793   Zn803   2.023   .     S
N794   Zn804   2.023   .     S
O795   Zn803   1.983   .     S
O796   Zn804   1.986   .     S
O797   Zn803   1.991   .     S
O798   Zn804   1.954   .     S
O799   Zn803   1.986   .     S
O800   Zn804   1.983   .     S
O801   Zn803   1.954   .     S
O802   Zn804   1.991   .     S
O805   H806    0.990   .     S
C807   O809    1.221   .     D
C807   H808    1.084   .     S
O810   H811    0.988   .     S
O812   H813    0.981   .     S
O814   H815    0.984   .     S
O816   H817    0.990   .     S
O816   C162    1.379   1_556 S
O818   H819    0.991   .     S
O820   H821    0.991   .     S
O822   H823    0.991   .     S
O824   H825    0.991   .     S
C826   H827    1.083   .     S
C826   O828    1.221   .     D
C829   C845    1.409   .     S
C829   O865    1.283   .     A
C829   O864    1.284   .     A
C830   C831    1.408   .     A
C830   C211    1.418   1_556 S
C830   C235    1.427   1_556 S
C831   C838    1.424   .     A
C831   C835    1.418   .     A
C832   C836    1.387   .     A
C833   C834    1.389   .     A
C833   C211    1.416   1_556 S
C833   C231    1.413   1_556 S
C834   C835    1.384   .     A
C834   H860    1.083   .     S
C835   H861    1.074   .     S
C836   C853    1.402   .     A
C836   O887    1.385   .     S
C837   C852    1.391   .     A
C837   H857    1.084   .     S
C837   C853    1.399   .     A
C838   C854    1.414   .     A
C838   C840    1.486   .     S
C839   C895    1.494   .     S
C839   C845    1.408   .     A
C839   C1048   1.393   .     S
C840   O867    1.295   .     A
C840   O866    1.312   .     A
C841   C842    1.398   .     A
C841   O874    1.384   .     S
C842   C843    1.406   .     A
C842   C850    1.410   .     S
C843   C876    1.497   .     S
C844   O879    1.387   .     S
C844   C845    1.412   .     A
C844   C1050   1.389   .     S
C846   N863    1.358   .     A
C846   H858    1.082   .     S
C846   C916    1.415   .     S
C847   O881    1.374   .     S
C847   N862    1.386   .     A
C847   C984    1.415   1_455 S
C848   O883    1.373   .     S
C848   N862    1.381   .     A
C848   C987    1.415   1_455 S
C849   H859    1.081   .     S
C849   N863    1.361   .     A
C849   C917    1.415   .     S
C850   O868    1.283   .     A
C850   O869    1.284   .     A
C851   O870    1.293   .     A
C851   C853    1.439   .     S
C851   O871    1.292   .     A
C854   C855    1.397   .     A
C854   O889    1.373   .     S
C855   C235    1.406   1_556 S
C855   O272    1.381   1_556 S
C856   O891    1.381   .     S
N862   Zn872   2.023   .     S
N863   Zn873   2.023   .     S
O864   Zn872   1.983   .     S
O865   Zn873   1.986   .     S
O866   Zn872   1.991   .     S
O867   Zn873   1.954   .     S
O868   Zn872   1.986   .     S
O869   Zn873   1.983   .     S
O870   Zn872   1.954   .     S
O871   Zn873   1.991   .     S
O874   H875    0.990   .     S
C876   O878    1.221   .     D
C876   H877    1.084   .     S
O879   H880    0.988   .     S
O881   H882    0.981   .     S
O883   H884    0.984   .     S
O885   H886    0.990   .     S
O885   C231    1.379   1_556 S
O887   H888    0.991   .     S
O889   H890    0.991   .     S
O891   H892    0.991   .     S
O893   H894    0.991   .     S
C895   H896    1.083   .     S
C895   O897    1.221   .     D
C898   C914    1.409   .     S
C898   O934    1.283   .     A
C898   O933    1.284   .     A
C899   C900    1.408   .     A
C899   C280    1.418   1_556 S
C899   C304    1.427   1_556 S
C900   C907    1.424   .     A
C900   C904    1.418   .     A
C901   C905    1.387   .     A
C902   C903    1.389   .     A
C902   C280    1.416   1_556 S
C902   C300    1.413   1_556 S
C903   C904    1.384   .     A
C903   H929    1.083   .     S
C904   H930    1.074   .     S
C905   C922    1.402   .     A
C905   O956    1.385   .     S
C906   C921    1.391   .     A
C906   H926    1.084   .     S
C906   C922    1.399   .     A
C907   C923    1.414   .     A
C907   C909    1.486   .     S
C908   C964    1.494   .     S
C908   C914    1.408   .     A
C908   C1117   1.393   .     S
C909   O936    1.295   .     A
C909   O935    1.312   .     A
C910   C911    1.398   .     A
C910   O943    1.384   .     S
C911   C912    1.406   .     A
C911   C919    1.410   .     S
C912   C945    1.497   .     S
C913   O948    1.387   .     S
C913   C914    1.412   .     A
C913   C1119   1.389   .     S
C915   N932    1.358   .     A
C915   H927    1.082   .     S
C915   C985    1.415   .     S
C916   O950    1.374   .     S
C916   N931    1.386   .     A
C917   O952    1.373   .     S
C917   N931    1.381   .     A
C918   H928    1.081   .     S
C918   N932    1.361   .     A
C918   C986    1.415   .     S
C919   O937    1.283   .     A
C919   O938    1.284   .     A
C920   O939    1.293   .     A
C920   C922    1.439   .     S
C920   O940    1.292   .     A
C923   C924    1.397   .     A
C923   O958    1.373   .     S
C924   C304    1.406   1_556 S
C924   O341    1.381   1_556 S
C925   O960    1.381   .     S
N931   Zn941   2.023   .     S
N932   Zn942   2.023   .     S
O933   Zn941   1.983   .     S
O934   Zn942   1.986   .     S
O935   Zn941   1.991   .     S
O936   Zn942   1.954   .     S
O937   Zn941   1.986   .     S
O938   Zn942   1.983   .     S
O939   Zn941   1.954   .     S
O940   Zn942   1.991   .     S
O943   H944    0.990   .     S
C945   O947    1.221   .     D
C945   H946    1.084   .     S
O948   H949    0.988   .     S
O950   H951    0.981   .     S
O952   H953    0.984   .     S
O954   H955    0.990   .     S
O954   C300    1.379   1_556 S
O956   H957    0.991   .     S
O958   H959    0.991   .     S
O960   H961    0.991   .     S
O962   H963    0.991   .     S
C964   H965    1.083   .     S
C964   O966    1.221   .     D
C967   C983    1.409   .     S
C967   O1003   1.283   .     A
C967   O1002   1.284   .     A
C968   C969    1.408   .     A
C968   C349    1.418   1_556 S
C968   C373    1.427   1_556 S
C969   C976    1.424   .     A
C969   C973    1.418   .     A
C970   C974    1.387   .     A
C971   C972    1.389   .     A
C971   C349    1.416   1_556 S
C971   C369    1.413   1_556 S
C972   C973    1.384   .     A
C972   H998    1.083   .     S
C973   H999    1.074   .     S
C974   C991    1.402   .     A
C974   O1025   1.385   .     S
C975   C990    1.391   .     A
C975   H995    1.084   .     S
C975   C991    1.399   .     A
C976   C992    1.414   .     A
C976   C978    1.486   .     S
C977   C1033   1.494   .     S
C977   C983    1.408   .     A
C977   C1186   1.393   .     S
C978   O1005   1.295   .     A
C978   O1004   1.312   .     A
C979   C980    1.398   .     A
C979   O1012   1.384   .     S
C980   C981    1.406   .     A
C980   C988    1.410   .     S
C981   C1014   1.497   .     S
C982   O1017   1.387   .     S
C982   C983    1.412   .     A
C982   C1188   1.389   .     S
C984   N1001   1.358   .     A
C984   H996    1.082   .     S
C984   C847    1.415   1_655 S
C985   O1019   1.374   .     S
C985   N1000   1.386   .     A
C986   O1021   1.373   .     S
C986   N1000   1.381   .     A
C987   H997    1.081   .     S
C987   N1001   1.361   .     A
C987   C848    1.415   1_655 S
C988   O1006   1.283   .     A
C988   O1007   1.284   .     A
C989   O1008   1.293   .     A
C989   C991    1.439   .     S
C989   O1009   1.292   .     A
C992   C993    1.397   .     A
C992   O1027   1.373   .     S
C993   C373    1.406   1_556 S
C993   O410    1.381   1_556 S
C994   O1029   1.381   .     S
N1000  Zn1010  2.023   .     S
N1001  Zn1011  2.023   .     S
O1002  Zn1010  1.983   .     S
O1003  Zn1011  1.986   .     S
O1004  Zn1010  1.991   .     S
O1005  Zn1011  1.954   .     S
O1006  Zn1010  1.986   .     S
O1007  Zn1011  1.983   .     S
O1008  Zn1010  1.954   .     S
O1009  Zn1011  1.991   .     S
O1012  H1013   0.990   .     S
C1014  O1016   1.221   .     D
C1014  H1015   1.084   .     S
O1017  H1018   0.988   .     S
O1019  H1020   0.981   .     S
O1021  H1022   0.984   .     S
O1023  H1024   0.990   .     S
O1023  C369    1.379   1_556 S
O1025  H1026   0.991   .     S
O1027  H1028   0.991   .     S
O1029  H1030   0.991   .     S
O1031  H1032   0.991   .     S
C1033  H1034   1.083   .     S
C1033  O1035   1.221   .     D
C1036  C1052   1.409   .     S
C1036  O1072   1.283   .     A
C1036  O1071   1.284   .     A
C1037  C1038   1.408   .     A
C1037  C418    1.418   1_556 S
C1037  C442    1.427   1_556 S
C1038  C1045   1.424   .     A
C1038  C1042   1.418   .     A
C1039  C1043   1.387   .     A
C1040  C1041   1.389   .     A
C1040  C418    1.416   1_556 S
C1040  C438    1.413   1_556 S
C1041  C1042   1.384   .     A
C1041  H1067   1.083   .     S
C1042  H1068   1.074   .     S
C1043  C1060   1.402   .     A
C1043  O1094   1.385   .     S
C1044  C1059   1.391   .     A
C1044  H1064   1.084   .     S
C1044  C1060   1.399   .     A
C1045  C1061   1.414   .     A
C1045  C1047   1.486   .     S
C1046  C1102   1.494   .     S
C1046  C1052   1.408   .     A
C1046  C634    1.393   1_565 S
C1047  O1074   1.295   .     A
C1047  O1073   1.312   .     A
C1048  C1049   1.398   .     A
C1048  O1081   1.384   .     S
C1049  C1050   1.406   .     A
C1049  C1057   1.410   .     S
C1050  C1083   1.497   .     S
C1051  O1086   1.387   .     S
C1051  C1052   1.412   .     A
C1051  C636    1.389   1_565 S
C1053  N1070   1.358   .     A
C1053  H1065   1.082   .     S
C1053  C1123   1.415   .     S
C1054  O1088   1.374   .     S
C1054  N1069   1.386   .     A
C1054  C1191   1.415   1_455 S
C1055  O1090   1.373   .     S
C1055  N1069   1.381   .     A
C1055  C1194   1.415   1_455 S
C1056  H1066   1.081   .     S
C1056  N1070   1.361   .     A
C1056  C1124   1.415   .     S
C1057  O1075   1.283   .     A
C1057  O1076   1.284   .     A
C1058  O1077   1.293   .     A
C1058  C1060   1.439   .     S
C1058  O1078   1.292   .     A
C1061  C1062   1.397   .     A
C1061  O1096   1.373   .     S
C1062  C442    1.406   1_556 S
C1062  O479    1.381   1_556 S
C1063  O1098   1.381   .     S
N1069  Zn1079  2.023   .     S
N1070  Zn1080  2.023   .     S
O1071  Zn1079  1.983   .     S
O1072  Zn1080  1.986   .     S
O1073  Zn1079  1.991   .     S
O1074  Zn1080  1.954   .     S
O1075  Zn1079  1.986   .     S
O1076  Zn1080  1.983   .     S
O1077  Zn1079  1.954   .     S
O1078  Zn1080  1.991   .     S
O1081  H1082   0.990   .     S
C1083  O1085   1.221   .     D
C1083  H1084   1.084   .     S
O1086  H1087   0.988   .     S
O1088  H1089   0.981   .     S
O1090  H1091   0.984   .     S
O1092  H1093   0.990   .     S
O1092  C438    1.379   1_556 S
O1094  H1095   0.991   .     S
O1096  H1097   0.991   .     S
O1098  H1099   0.991   .     S
O1100  H1101   0.991   .     S
C1102  H1103   1.083   .     S
C1102  O1104   1.221   .     D
C1105  C1121   1.409   .     S
C1105  O1141   1.283   .     A
C1105  O1140   1.284   .     A
C1106  C1107   1.408   .     A
C1106  C487    1.418   1_556 S
C1106  C511    1.427   1_556 S
C1107  C1114   1.424   .     A
C1107  C1111   1.418   .     A
C1108  C1112   1.387   .     A
C1109  C1110   1.389   .     A
C1109  C487    1.416   1_556 S
C1109  C507    1.413   1_556 S
C1110  C1111   1.384   .     A
C1110  H1136   1.083   .     S
C1111  H1137   1.074   .     S
C1112  C1129   1.402   .     A
C1112  O1163   1.385   .     S
C1113  C1128   1.391   .     A
C1113  H1133   1.084   .     S
C1113  C1129   1.399   .     A
C1114  C1130   1.414   .     A
C1114  C1116   1.486   .     S
C1115  C1171   1.494   .     S
C1115  C1121   1.408   .     A
C1115  C703    1.393   1_565 S
C1116  O1143   1.295   .     A
C1116  O1142   1.312   .     A
C1117  C1118   1.398   .     A
C1117  O1150   1.384   .     S
C1118  C1119   1.406   .     A
C1118  C1126   1.410   .     S
C1119  C1152   1.497   .     S
C1120  O1155   1.387   .     S
C1120  C1121   1.412   .     A
C1120  C705    1.389   1_565 S
C1122  N1139   1.358   .     A
C1122  H1134   1.082   .     S
C1122  C1192   1.415   .     S
C1123  O1157   1.374   .     S
C1123  N1138   1.386   .     A
C1124  O1159   1.373   .     S
C1124  N1138   1.381   .     A
C1125  H1135   1.081   .     S
C1125  N1139   1.361   .     A
C1125  C1193   1.415   .     S
C1126  O1144   1.283   .     A
C1126  O1145   1.284   .     A
C1127  O1146   1.293   .     A
C1127  C1129   1.439   .     S
C1127  O1147   1.292   .     A
C1130  C1131   1.397   .     A
C1130  O1165   1.373   .     S
C1131  C511    1.406   1_556 S
C1131  O548    1.381   1_556 S
C1132  O1167   1.381   .     S
N1138  Zn1148  2.023   .     S
N1139  Zn1149  2.023   .     S
O1140  Zn1148  1.983   .     S
O1141  Zn1149  1.986   .     S
O1142  Zn1148  1.991   .     S
O1143  Zn1149  1.954   .     S
O1144  Zn1148  1.986   .     S
O1145  Zn1149  1.983   .     S
O1146  Zn1148  1.954   .     S
O1147  Zn1149  1.991   .     S
O1150  H1151   0.990   .     S
C1152  O1154   1.221   .     D
C1152  H1153   1.084   .     S
O1155  H1156   0.988   .     S
O1157  H1158   0.981   .     S
O1159  H1160   0.984   .     S
O1161  H1162   0.990   .     S
O1161  C507    1.379   1_556 S
O1163  H1164   0.991   .     S
O1165  H1166   0.991   .     S
O1167  H1168   0.991   .     S
O1169  H1170   0.991   .     S
C1171  H1172   1.083   .     S
C1171  O1173   1.221   .     D
C1174  C1190   1.409   .     S
C1174  O1210   1.283   .     A
C1174  O1209   1.284   .     A
C1175  C1176   1.408   .     A
C1175  C556    1.418   1_556 S
C1175  C580    1.427   1_556 S
C1176  C1183   1.424   .     A
C1176  C1180   1.418   .     A
C1177  C1181   1.387   .     A
C1178  C1179   1.389   .     A
C1178  C556    1.416   1_556 S
C1178  C576    1.413   1_556 S
C1179  C1180   1.384   .     A
C1179  H1205   1.083   .     S
C1180  H1206   1.074   .     S
C1181  C1198   1.402   .     A
C1181  O1232   1.385   .     S
C1182  C1197   1.391   .     A
C1182  H1202   1.084   .     S
C1182  C1198   1.399   .     A
C1183  C1199   1.414   .     A
C1183  C1185   1.486   .     S
C1184  C1240   1.494   .     S
C1184  C1190   1.408   .     A
C1184  C772    1.393   1_565 S
C1185  O1212   1.295   .     A
C1185  O1211   1.312   .     A
C1186  C1187   1.398   .     A
C1186  O1219   1.384   .     S
C1187  C1188   1.406   .     A
C1187  C1195   1.410   .     S
C1188  C1221   1.497   .     S
C1189  O1224   1.387   .     S
C1189  C1190   1.412   .     A
C1189  C774    1.389   1_565 S
C1191  N1208   1.358   .     A
C1191  H1203   1.082   .     S
C1191  C1054   1.415   1_655 S
C1192  O1226   1.374   .     S
C1192  N1207   1.386   .     A
C1193  O1228   1.373   .     S
C1193  N1207   1.381   .     A
C1194  H1204   1.081   .     S
C1194  N1208   1.361   .     A
C1194  C1055   1.415   1_655 S
C1195  O1213   1.283   .     A
C1195  O1214   1.284   .     A
C1196  O1215   1.293   .     A
C1196  C1198   1.439   .     S
C1196  O1216   1.292   .     A
C1199  C1200   1.397   .     A
C1199  O1234   1.373   .     S
C1200  C580    1.406   1_556 S
C1200  O617    1.381   1_556 S
C1201  O1236   1.381   .     S
N1207  Zn1217  2.023   .     S
N1208  Zn1218  2.023   .     S
O1209  Zn1217  1.983   .     S
O1210  Zn1218  1.986   .     S
O1211  Zn1217  1.991   .     S
O1212  Zn1218  1.954   .     S
O1213  Zn1217  1.986   .     S
O1214  Zn1218  1.983   .     S
O1215  Zn1217  1.954   .     S
O1216  Zn1218  1.991   .     S
O1219  H1220   0.990   .     S
C1221  O1223   1.221   .     D
C1221  H1222   1.084   .     S
O1224  H1225   0.988   .     S
O1226  H1227   0.981   .     S
O1228  H1229   0.984   .     S
O1230  H1231   0.990   .     S
O1230  C576    1.379   1_556 S
O1232  H1233   0.991   .     S
O1234  H1235   0.991   .     S
O1236  H1237   0.991   .     S
O1238  H1239   0.991   .     S
C1240  H1241   1.083   .     S
C1240  O1242   1.221   .     D
