data_str_m3_o1_o17_pcu_sym.32
_audit_creation_date              2020-01-03
_audit_creation_method            'Materials Studio'
_symmetry_space_group_name_H-M    'P1'
_symmetry_Int_Tables_number       1
_symmetry_cell_setting            triclinic
loop_
_symmetry_equiv_pos_as_xyz
  x,y,z
_cell_length_a                    32.1393
_cell_length_b                    29.5047
_cell_length_c                    29.9714
_cell_angle_alpha                 89.7983
_cell_angle_beta                  90.0618
_cell_angle_gamma                 90.0443
loop_
_atom_site_label
_atom_site_type_symbol
_atom_site_fract_x
_atom_site_fract_y
_atom_site_fract_z
_atom_site_U_iso_or_equiv
_atom_site_adp_type
_atom_site_occupancy
O1     O     0.10559   0.20487   0.24999   0.00000  Uiso   1.00
O2     O     0.22774   0.12846   0.25000   0.00000  Uiso   1.00
O3     O     0.22774   0.20487   0.25000   0.00000  Uiso   1.00
O4     O     0.10559   0.12846   0.24999   0.00000  Uiso   1.00
C5     C     0.08662   0.16666   0.24997   0.00000  Uiso   1.00
C6     C     0.24671   0.16668   0.25003   0.00000  Uiso   1.00
O7     O     0.16666   0.20489   0.18392   0.00000  Uiso   1.00
O8     O     0.16667   0.12844   0.31607   0.00000  Uiso   1.00
O9     O     0.16667   0.20489   0.31607   0.00000  Uiso   1.00
O10    O     0.16666   0.12844   0.18392   0.00000  Uiso   1.00
C11    C     0.16565   0.16677   0.16342   0.00000  Uiso   1.00
C12    C     0.16767   0.16657   0.33658   0.00000  Uiso   1.00
Zn13   Zn    0.16667   0.21771   0.25000   0.00000  Uiso   1.00
Zn14   Zn    0.16667   0.11563   0.25000   0.00000  Uiso   1.00
C15    C     0.19291   0.13403   0.40763   0.00000  Uiso   1.00
C16    C     0.14039   0.19929   0.09237   0.00000  Uiso   1.00
C17    C     0.16911   0.16642   0.38438   0.00000  Uiso   1.00
C18    C     0.16420   0.16691   0.11562   0.00000  Uiso   1.00
C19    C     0.14519   0.19853   0.40659   0.00000  Uiso   1.00
C20    C     0.18811   0.13479   0.09341   0.00000  Uiso   1.00
C21    C     0.14383   0.19861   0.45259   0.00000  Uiso   1.00
C22    C     0.18946   0.13470   0.04741   0.00000  Uiso   1.00
C23    C     0.16727   0.16643   0.47671   0.00000  Uiso   1.00
C24    C     0.16601   0.16687   0.02329   0.00000  Uiso   1.00
C25    C     0.19206   0.13399   0.45430   0.00000  Uiso   1.00
C26    C     0.14123   0.19932   0.04570   0.00000  Uiso   1.00
C27    C     0.11900   0.23021   0.47467   0.00000  Uiso   1.00
C28    C     0.21428   0.10309   0.02533   0.00000  Uiso   1.00
C29    C     0.11745   0.23042   0.02088   0.00000  Uiso   1.00
C30    C     0.21582   0.10288   0.47912   0.00000  Uiso   1.00
H31    H     0.12680   0.22289   0.38783   0.00000  Uiso   1.00
H32    H     0.20650   0.11043   0.11216   0.00000  Uiso   1.00
H33    H     0.10062   0.25468   0.45616   0.00000  Uiso   1.00
H34    H     0.23265   0.07862   0.04384   0.00000  Uiso   1.00
H35    H     0.09745   0.25498   0.03679   0.00000  Uiso   1.00
H36    H     0.23582   0.07831   0.46321   0.00000  Uiso   1.00
C37    C     0.02129   0.12641   0.25946   0.00000  Uiso   1.00
C38    C     0.31204   0.20693   0.24055   0.00000  Uiso   1.00
C39    C     0.31200   0.12643   0.25954   0.00000  Uiso   1.00
C40    C     0.02133   0.20690   0.24047   0.00000  Uiso   1.00
H41    H     0.03752   0.09515   0.26712   0.00000  Uiso   1.00
H42    H     0.29581   0.23818   0.23288   0.00000  Uiso   1.00
H43    H     0.29574   0.09519   0.26727   0.00000  Uiso   1.00
H44    H     0.03760   0.23814   0.23274   0.00000  Uiso   1.00
C45    C     0.29085   0.16669   0.25006   0.00000  Uiso   1.00
C46    C     0.04248   0.16665   0.24994   0.00000  Uiso   1.00
C47    C     0.19610   0.02393   0.27330   0.00000  Uiso   1.00
C48    C     0.13724   0.30940   0.22670   0.00000  Uiso   1.00
C49    C     0.13725   0.02404   0.22667   0.00000  Uiso   1.00
C50    C     0.19608   0.30929   0.27333   0.00000  Uiso   1.00
H51    H     0.21966   0.04207   0.29186   0.00000  Uiso   1.00
H52    H     0.11368   0.29127   0.20814   0.00000  Uiso   1.00
H53    H     0.11376   0.04227   0.20800   0.00000  Uiso   1.00
H54    H     0.21958   0.29107   0.29200   0.00000  Uiso   1.00
N55    N     0.16667   0.28573   0.25000   0.00000  Uiso   1.00
N56    N     0.16667   0.04760   0.25000   0.00000  Uiso   1.00
N57    N     0.21851   0.10233   0.38389   0.00000  Uiso   1.00
O58    O     0.21020   0.05919   0.38556   0.00000  Uiso   1.00
O59    O     0.24838   0.11683   0.35827   0.00000  Uiso   1.00
N60    N     0.11481   0.23101   0.11611   0.00000  Uiso   1.00
O61    O     0.08502   0.21653   0.14184   0.00000  Uiso   1.00
O62    O     0.12310   0.27415   0.11438   0.00000  Uiso   1.00
O63    O     0.43892   0.20487   0.24999   0.00000  Uiso   1.00
O64    O     0.56108   0.12846   0.25000   0.00000  Uiso   1.00
O65    O     0.56108   0.20487   0.25000   0.00000  Uiso   1.00
O66    O     0.43892   0.12846   0.24999   0.00000  Uiso   1.00
C67    C     0.41996   0.16666   0.24997   0.00000  Uiso   1.00
C68    C     0.58005   0.16668   0.25003   0.00000  Uiso   1.00
O69    O     0.49999   0.20489   0.18392   0.00000  Uiso   1.00
O70    O     0.50001   0.12844   0.31607   0.00000  Uiso   1.00
O71    O     0.50001   0.20489   0.31607   0.00000  Uiso   1.00
O72    O     0.49999   0.12844   0.18392   0.00000  Uiso   1.00
C73    C     0.49899   0.16677   0.16342   0.00000  Uiso   1.00
C74    C     0.50101   0.16657   0.33658   0.00000  Uiso   1.00
Zn75   Zn    0.50000   0.21771   0.25000   0.00000  Uiso   1.00
Zn76   Zn    0.50000   0.11563   0.25000   0.00000  Uiso   1.00
C77    C     0.52625   0.13403   0.40763   0.00000  Uiso   1.00
C78    C     0.47372   0.19929   0.09237   0.00000  Uiso   1.00
C79    C     0.50244   0.16642   0.38438   0.00000  Uiso   1.00
C80    C     0.49753   0.16691   0.11562   0.00000  Uiso   1.00
C81    C     0.47852   0.19853   0.40659   0.00000  Uiso   1.00
C82    C     0.52144   0.13479   0.09341   0.00000  Uiso   1.00
C83    C     0.47716   0.19861   0.45259   0.00000  Uiso   1.00
C84    C     0.52279   0.13470   0.04741   0.00000  Uiso   1.00
C85    C     0.50060   0.16643   0.47671   0.00000  Uiso   1.00
C86    C     0.49935   0.16687   0.02329   0.00000  Uiso   1.00
C87    C     0.52539   0.13399   0.45430   0.00000  Uiso   1.00
C88    C     0.47456   0.19932   0.04570   0.00000  Uiso   1.00
C89    C     0.45233   0.23021   0.47467   0.00000  Uiso   1.00
C90    C     0.54761   0.10309   0.02533   0.00000  Uiso   1.00
C91    C     0.45079   0.23042   0.02088   0.00000  Uiso   1.00
C92    C     0.54916   0.10288   0.47912   0.00000  Uiso   1.00
H93    H     0.46014   0.22289   0.38783   0.00000  Uiso   1.00
H94    H     0.53983   0.11043   0.11216   0.00000  Uiso   1.00
H95    H     0.43395   0.25468   0.45616   0.00000  Uiso   1.00
H96    H     0.56599   0.07862   0.04384   0.00000  Uiso   1.00
H97    H     0.43078   0.25498   0.03679   0.00000  Uiso   1.00
H98    H     0.56916   0.07831   0.46321   0.00000  Uiso   1.00
C99    C     0.35462   0.12641   0.25946   0.00000  Uiso   1.00
C100   C     0.64538   0.20693   0.24055   0.00000  Uiso   1.00
C101   C     0.64533   0.12643   0.25954   0.00000  Uiso   1.00
C102   C     0.35467   0.20690   0.24047   0.00000  Uiso   1.00
H103   H     0.37086   0.09515   0.26712   0.00000  Uiso   1.00
H104   H     0.62914   0.23818   0.23288   0.00000  Uiso   1.00
H105   H     0.62907   0.09519   0.26727   0.00000  Uiso   1.00
H106   H     0.37093   0.23814   0.23274   0.00000  Uiso   1.00
C107   C     0.62419   0.16669   0.25006   0.00000  Uiso   1.00
C108   C     0.37581   0.16665   0.24994   0.00000  Uiso   1.00
C109   C     0.52943   0.02393   0.27330   0.00000  Uiso   1.00
C110   C     0.47057   0.30940   0.22670   0.00000  Uiso   1.00
C111   C     0.47059   0.02404   0.22667   0.00000  Uiso   1.00
C112   C     0.52941   0.30929   0.27333   0.00000  Uiso   1.00
H113   H     0.55299   0.04207   0.29186   0.00000  Uiso   1.00
H114   H     0.44701   0.29127   0.20814   0.00000  Uiso   1.00
H115   H     0.44709   0.04227   0.20800   0.00000  Uiso   1.00
H116   H     0.55291   0.29107   0.29200   0.00000  Uiso   1.00
N117   N     0.50000   0.28573   0.25000   0.00000  Uiso   1.00
N118   N     0.50000   0.04760   0.25000   0.00000  Uiso   1.00
N119   N     0.55184   0.10233   0.38389   0.00000  Uiso   1.00
O120   O     0.54353   0.05919   0.38556   0.00000  Uiso   1.00
O121   O     0.58171   0.11683   0.35827   0.00000  Uiso   1.00
N122   N     0.44814   0.23101   0.11611   0.00000  Uiso   1.00
O123   O     0.41835   0.21653   0.14184   0.00000  Uiso   1.00
O124   O     0.45644   0.27415   0.11438   0.00000  Uiso   1.00
O125   O     0.77226   0.20487   0.24999   0.00000  Uiso   1.00
O126   O     0.89441   0.12846   0.25000   0.00000  Uiso   1.00
O127   O     0.89441   0.20487   0.25000   0.00000  Uiso   1.00
O128   O     0.77226   0.12846   0.24999   0.00000  Uiso   1.00
C129   C     0.75329   0.16666   0.24997   0.00000  Uiso   1.00
C130   C     0.91338   0.16668   0.25003   0.00000  Uiso   1.00
O131   O     0.83333   0.20489   0.18392   0.00000  Uiso   1.00
O132   O     0.83334   0.12844   0.31607   0.00000  Uiso   1.00
O133   O     0.83334   0.20489   0.31607   0.00000  Uiso   1.00
O134   O     0.83333   0.12844   0.18392   0.00000  Uiso   1.00
C135   C     0.83232   0.16677   0.16342   0.00000  Uiso   1.00
C136   C     0.83434   0.16657   0.33658   0.00000  Uiso   1.00
Zn137  Zn    0.83333   0.21771   0.25000   0.00000  Uiso   1.00
Zn138  Zn    0.83333   0.11563   0.25000   0.00000  Uiso   1.00
C139   C     0.85958   0.13403   0.40763   0.00000  Uiso   1.00
C140   C     0.80705   0.19929   0.09237   0.00000  Uiso   1.00
C141   C     0.83578   0.16642   0.38438   0.00000  Uiso   1.00
C142   C     0.83087   0.16691   0.11562   0.00000  Uiso   1.00
C143   C     0.81185   0.19853   0.40659   0.00000  Uiso   1.00
C144   C     0.85478   0.13479   0.09341   0.00000  Uiso   1.00
C145   C     0.81049   0.19861   0.45259   0.00000  Uiso   1.00
C146   C     0.85612   0.13470   0.04741   0.00000  Uiso   1.00
C147   C     0.83393   0.16643   0.47671   0.00000  Uiso   1.00
C148   C     0.83268   0.16687   0.02329   0.00000  Uiso   1.00
C149   C     0.85872   0.13399   0.45430   0.00000  Uiso   1.00
C150   C     0.80789   0.19932   0.04570   0.00000  Uiso   1.00
C151   C     0.78567   0.23021   0.47467   0.00000  Uiso   1.00
C152   C     0.88094   0.10309   0.02533   0.00000  Uiso   1.00
C153   C     0.78412   0.23042   0.02088   0.00000  Uiso   1.00
C154   C     0.88249   0.10288   0.47912   0.00000  Uiso   1.00
H155   H     0.79347   0.22289   0.38783   0.00000  Uiso   1.00
H156   H     0.87317   0.11043   0.11216   0.00000  Uiso   1.00
H157   H     0.76729   0.25468   0.45616   0.00000  Uiso   1.00
H158   H     0.89932   0.07862   0.04384   0.00000  Uiso   1.00
H159   H     0.76411   0.25498   0.03679   0.00000  Uiso   1.00
H160   H     0.90249   0.07831   0.46321   0.00000  Uiso   1.00
C161   C     0.68796   0.12641   0.25946   0.00000  Uiso   1.00
C162   C     0.97871   0.20693   0.24055   0.00000  Uiso   1.00
C163   C     0.97867   0.12643   0.25954   0.00000  Uiso   1.00
C164   C     0.68800   0.20690   0.24047   0.00000  Uiso   1.00
H165   H     0.70419   0.09515   0.26712   0.00000  Uiso   1.00
H166   H     0.96248   0.23818   0.23288   0.00000  Uiso   1.00
H167   H     0.96240   0.09519   0.26727   0.00000  Uiso   1.00
H168   H     0.70426   0.23814   0.23274   0.00000  Uiso   1.00
C169   C     0.95752   0.16669   0.25006   0.00000  Uiso   1.00
C170   C     0.70915   0.16665   0.24994   0.00000  Uiso   1.00
C171   C     0.86276   0.02393   0.27330   0.00000  Uiso   1.00
C172   C     0.80390   0.30940   0.22670   0.00000  Uiso   1.00
C173   C     0.80392   0.02404   0.22667   0.00000  Uiso   1.00
C174   C     0.86275   0.30929   0.27333   0.00000  Uiso   1.00
H175   H     0.88632   0.04207   0.29186   0.00000  Uiso   1.00
H176   H     0.78035   0.29127   0.20814   0.00000  Uiso   1.00
H177   H     0.78042   0.04227   0.20800   0.00000  Uiso   1.00
H178   H     0.88624   0.29107   0.29200   0.00000  Uiso   1.00
N179   N     0.83333   0.28573   0.25000   0.00000  Uiso   1.00
N180   N     0.83333   0.04760   0.25000   0.00000  Uiso   1.00
N181   N     0.88517   0.10233   0.38389   0.00000  Uiso   1.00
O182   O     0.87686   0.05919   0.38556   0.00000  Uiso   1.00
O183   O     0.91504   0.11683   0.35827   0.00000  Uiso   1.00
N184   N     0.78148   0.23101   0.11611   0.00000  Uiso   1.00
O185   O     0.75168   0.21653   0.14184   0.00000  Uiso   1.00
O186   O     0.78977   0.27415   0.11438   0.00000  Uiso   1.00
O187   O     0.10559   0.53821   0.24999   0.00000  Uiso   1.00
O188   O     0.22774   0.46179   0.25000   0.00000  Uiso   1.00
O189   O     0.22774   0.53821   0.25000   0.00000  Uiso   1.00
O190   O     0.10559   0.46179   0.24999   0.00000  Uiso   1.00
C191   C     0.08662   0.49999   0.24997   0.00000  Uiso   1.00
C192   C     0.24671   0.50001   0.25003   0.00000  Uiso   1.00
O193   O     0.16666   0.53823   0.18392   0.00000  Uiso   1.00
O194   O     0.16667   0.46177   0.31607   0.00000  Uiso   1.00
O195   O     0.16667   0.53823   0.31607   0.00000  Uiso   1.00
O196   O     0.16666   0.46177   0.18392   0.00000  Uiso   1.00
C197   C     0.16565   0.50010   0.16342   0.00000  Uiso   1.00
C198   C     0.16767   0.49990   0.33658   0.00000  Uiso   1.00
Zn199  Zn    0.16667   0.55104   0.25000   0.00000  Uiso   1.00
Zn200  Zn    0.16667   0.44896   0.25000   0.00000  Uiso   1.00
C201   C     0.19291   0.46736   0.40763   0.00000  Uiso   1.00
C202   C     0.14039   0.53263   0.09237   0.00000  Uiso   1.00
C203   C     0.16911   0.49975   0.38438   0.00000  Uiso   1.00
C204   C     0.16420   0.50024   0.11562   0.00000  Uiso   1.00
C205   C     0.14519   0.53186   0.40659   0.00000  Uiso   1.00
C206   C     0.18811   0.46813   0.09341   0.00000  Uiso   1.00
C207   C     0.14383   0.53195   0.45259   0.00000  Uiso   1.00
C208   C     0.18946   0.46803   0.04741   0.00000  Uiso   1.00
C209   C     0.16727   0.49977   0.47671   0.00000  Uiso   1.00
C210   C     0.16601   0.50021   0.02329   0.00000  Uiso   1.00
C211   C     0.19206   0.46732   0.45430   0.00000  Uiso   1.00
C212   C     0.14123   0.53266   0.04570   0.00000  Uiso   1.00
C213   C     0.11900   0.56354   0.47467   0.00000  Uiso   1.00
C214   C     0.21428   0.43643   0.02533   0.00000  Uiso   1.00
C215   C     0.11745   0.56376   0.02088   0.00000  Uiso   1.00
C216   C     0.21582   0.43621   0.47912   0.00000  Uiso   1.00
H217   H     0.12680   0.55622   0.38783   0.00000  Uiso   1.00
H218   H     0.20650   0.44376   0.11216   0.00000  Uiso   1.00
H219   H     0.10062   0.58802   0.45616   0.00000  Uiso   1.00
H220   H     0.23265   0.41195   0.04384   0.00000  Uiso   1.00
H221   H     0.09745   0.58832   0.03679   0.00000  Uiso   1.00
H222   H     0.23582   0.41165   0.46321   0.00000  Uiso   1.00
C223   C     0.02129   0.45974   0.25946   0.00000  Uiso   1.00
C224   C     0.31204   0.54026   0.24055   0.00000  Uiso   1.00
C225   C     0.31200   0.45977   0.25954   0.00000  Uiso   1.00
C226   C     0.02133   0.54024   0.24047   0.00000  Uiso   1.00
H227   H     0.03752   0.42849   0.26712   0.00000  Uiso   1.00
H228   H     0.29581   0.57151   0.23288   0.00000  Uiso   1.00
H229   H     0.29574   0.42853   0.26727   0.00000  Uiso   1.00
H230   H     0.03760   0.57147   0.23274   0.00000  Uiso   1.00
C231   C     0.29085   0.50002   0.25006   0.00000  Uiso   1.00
C232   C     0.04248   0.49998   0.24994   0.00000  Uiso   1.00
C233   C     0.19610   0.35726   0.27330   0.00000  Uiso   1.00
C234   C     0.13724   0.64274   0.22670   0.00000  Uiso   1.00
C235   C     0.13725   0.35738   0.22667   0.00000  Uiso   1.00
C236   C     0.19608   0.64262   0.27333   0.00000  Uiso   1.00
H237   H     0.21966   0.37540   0.29186   0.00000  Uiso   1.00
H238   H     0.11368   0.62460   0.20814   0.00000  Uiso   1.00
H239   H     0.11376   0.37560   0.20800   0.00000  Uiso   1.00
H240   H     0.21958   0.62440   0.29200   0.00000  Uiso   1.00
N241   N     0.16667   0.61907   0.25000   0.00000  Uiso   1.00
N242   N     0.16667   0.38093   0.25000   0.00000  Uiso   1.00
N243   N     0.21851   0.43566   0.38389   0.00000  Uiso   1.00
O244   O     0.21020   0.39252   0.38556   0.00000  Uiso   1.00
O245   O     0.24838   0.45016   0.35827   0.00000  Uiso   1.00
N246   N     0.11481   0.56434   0.11611   0.00000  Uiso   1.00
O247   O     0.08502   0.54986   0.14184   0.00000  Uiso   1.00
O248   O     0.12310   0.60748   0.11438   0.00000  Uiso   1.00
O249   O     0.43892   0.53821   0.24999   0.00000  Uiso   1.00
O250   O     0.56108   0.46179   0.25000   0.00000  Uiso   1.00
O251   O     0.56108   0.53821   0.25000   0.00000  Uiso   1.00
O252   O     0.43892   0.46179   0.24999   0.00000  Uiso   1.00
C253   C     0.41996   0.49999   0.24997   0.00000  Uiso   1.00
C254   C     0.58005   0.50001   0.25003   0.00000  Uiso   1.00
O255   O     0.49999   0.53823   0.18392   0.00000  Uiso   1.00
O256   O     0.50001   0.46177   0.31607   0.00000  Uiso   1.00
O257   O     0.50001   0.53823   0.31607   0.00000  Uiso   1.00
O258   O     0.49999   0.46177   0.18392   0.00000  Uiso   1.00
C259   C     0.49899   0.50010   0.16342   0.00000  Uiso   1.00
C260   C     0.50101   0.49990   0.33658   0.00000  Uiso   1.00
Zn261  Zn    0.50000   0.55104   0.25000   0.00000  Uiso   1.00
Zn262  Zn    0.50000   0.44896   0.25000   0.00000  Uiso   1.00
C263   C     0.52625   0.46736   0.40763   0.00000  Uiso   1.00
C264   C     0.47372   0.53263   0.09237   0.00000  Uiso   1.00
C265   C     0.50244   0.49975   0.38438   0.00000  Uiso   1.00
C266   C     0.49753   0.50024   0.11562   0.00000  Uiso   1.00
C267   C     0.47852   0.53186   0.40659   0.00000  Uiso   1.00
C268   C     0.52144   0.46813   0.09341   0.00000  Uiso   1.00
C269   C     0.47716   0.53195   0.45259   0.00000  Uiso   1.00
C270   C     0.52279   0.46803   0.04741   0.00000  Uiso   1.00
C271   C     0.50060   0.49977   0.47671   0.00000  Uiso   1.00
C272   C     0.49935   0.50021   0.02329   0.00000  Uiso   1.00
C273   C     0.52539   0.46732   0.45430   0.00000  Uiso   1.00
C274   C     0.47456   0.53266   0.04570   0.00000  Uiso   1.00
C275   C     0.45233   0.56354   0.47467   0.00000  Uiso   1.00
C276   C     0.54761   0.43643   0.02533   0.00000  Uiso   1.00
C277   C     0.45079   0.56376   0.02088   0.00000  Uiso   1.00
C278   C     0.54916   0.43621   0.47912   0.00000  Uiso   1.00
H279   H     0.46014   0.55622   0.38783   0.00000  Uiso   1.00
H280   H     0.53983   0.44376   0.11216   0.00000  Uiso   1.00
H281   H     0.43395   0.58802   0.45616   0.00000  Uiso   1.00
H282   H     0.56599   0.41195   0.04384   0.00000  Uiso   1.00
H283   H     0.43078   0.58832   0.03679   0.00000  Uiso   1.00
H284   H     0.56916   0.41165   0.46321   0.00000  Uiso   1.00
C285   C     0.35462   0.45974   0.25946   0.00000  Uiso   1.00
C286   C     0.64538   0.54026   0.24055   0.00000  Uiso   1.00
C287   C     0.64533   0.45977   0.25954   0.00000  Uiso   1.00
C288   C     0.35467   0.54024   0.24047   0.00000  Uiso   1.00
H289   H     0.37086   0.42849   0.26712   0.00000  Uiso   1.00
H290   H     0.62914   0.57151   0.23288   0.00000  Uiso   1.00
H291   H     0.62907   0.42853   0.26727   0.00000  Uiso   1.00
H292   H     0.37093   0.57147   0.23274   0.00000  Uiso   1.00
C293   C     0.62419   0.50002   0.25006   0.00000  Uiso   1.00
C294   C     0.37581   0.49998   0.24994   0.00000  Uiso   1.00
C295   C     0.52943   0.35726   0.27330   0.00000  Uiso   1.00
C296   C     0.47057   0.64274   0.22670   0.00000  Uiso   1.00
C297   C     0.47059   0.35738   0.22667   0.00000  Uiso   1.00
C298   C     0.52941   0.64262   0.27333   0.00000  Uiso   1.00
H299   H     0.55299   0.37540   0.29186   0.00000  Uiso   1.00
H300   H     0.44701   0.62460   0.20814   0.00000  Uiso   1.00
H301   H     0.44709   0.37560   0.20800   0.00000  Uiso   1.00
H302   H     0.55291   0.62440   0.29200   0.00000  Uiso   1.00
N303   N     0.50000   0.61907   0.25000   0.00000  Uiso   1.00
N304   N     0.50000   0.38093   0.25000   0.00000  Uiso   1.00
N305   N     0.55184   0.43566   0.38389   0.00000  Uiso   1.00
O306   O     0.54353   0.39252   0.38556   0.00000  Uiso   1.00
O307   O     0.58171   0.45016   0.35827   0.00000  Uiso   1.00
N308   N     0.44814   0.56434   0.11611   0.00000  Uiso   1.00
O309   O     0.41835   0.54986   0.14184   0.00000  Uiso   1.00
O310   O     0.45644   0.60748   0.11438   0.00000  Uiso   1.00
O311   O     0.77226   0.53821   0.24999   0.00000  Uiso   1.00
O312   O     0.89441   0.46179   0.25000   0.00000  Uiso   1.00
O313   O     0.89441   0.53821   0.25000   0.00000  Uiso   1.00
O314   O     0.77226   0.46179   0.24999   0.00000  Uiso   1.00
C315   C     0.75329   0.49999   0.24997   0.00000  Uiso   1.00
C316   C     0.91338   0.50001   0.25003   0.00000  Uiso   1.00
O317   O     0.83333   0.53823   0.18392   0.00000  Uiso   1.00
O318   O     0.83334   0.46177   0.31607   0.00000  Uiso   1.00
O319   O     0.83334   0.53823   0.31607   0.00000  Uiso   1.00
O320   O     0.83333   0.46177   0.18392   0.00000  Uiso   1.00
C321   C     0.83232   0.50010   0.16342   0.00000  Uiso   1.00
C322   C     0.83434   0.49990   0.33658   0.00000  Uiso   1.00
Zn323  Zn    0.83333   0.55104   0.25000   0.00000  Uiso   1.00
Zn324  Zn    0.83333   0.44896   0.25000   0.00000  Uiso   1.00
C325   C     0.85958   0.46736   0.40763   0.00000  Uiso   1.00
C326   C     0.80705   0.53263   0.09237   0.00000  Uiso   1.00
C327   C     0.83578   0.49975   0.38438   0.00000  Uiso   1.00
C328   C     0.83087   0.50024   0.11562   0.00000  Uiso   1.00
C329   C     0.81185   0.53186   0.40659   0.00000  Uiso   1.00
C330   C     0.85478   0.46813   0.09341   0.00000  Uiso   1.00
C331   C     0.81049   0.53195   0.45259   0.00000  Uiso   1.00
C332   C     0.85612   0.46803   0.04741   0.00000  Uiso   1.00
C333   C     0.83393   0.49977   0.47671   0.00000  Uiso   1.00
C334   C     0.83268   0.50021   0.02329   0.00000  Uiso   1.00
C335   C     0.85872   0.46732   0.45430   0.00000  Uiso   1.00
C336   C     0.80789   0.53266   0.04570   0.00000  Uiso   1.00
C337   C     0.78567   0.56354   0.47467   0.00000  Uiso   1.00
C338   C     0.88094   0.43643   0.02533   0.00000  Uiso   1.00
C339   C     0.78412   0.56376   0.02088   0.00000  Uiso   1.00
C340   C     0.88249   0.43621   0.47912   0.00000  Uiso   1.00
H341   H     0.79347   0.55622   0.38783   0.00000  Uiso   1.00
H342   H     0.87317   0.44376   0.11216   0.00000  Uiso   1.00
H343   H     0.76729   0.58802   0.45616   0.00000  Uiso   1.00
H344   H     0.89932   0.41195   0.04384   0.00000  Uiso   1.00
H345   H     0.76411   0.58832   0.03679   0.00000  Uiso   1.00
H346   H     0.90249   0.41165   0.46321   0.00000  Uiso   1.00
C347   C     0.68796   0.45974   0.25946   0.00000  Uiso   1.00
C348   C     0.97871   0.54026   0.24055   0.00000  Uiso   1.00
C349   C     0.97867   0.45977   0.25954   0.00000  Uiso   1.00
C350   C     0.68800   0.54024   0.24047   0.00000  Uiso   1.00
H351   H     0.70419   0.42849   0.26712   0.00000  Uiso   1.00
H352   H     0.96248   0.57151   0.23288   0.00000  Uiso   1.00
H353   H     0.96240   0.42853   0.26727   0.00000  Uiso   1.00
H354   H     0.70426   0.57147   0.23274   0.00000  Uiso   1.00
C355   C     0.95752   0.50002   0.25006   0.00000  Uiso   1.00
C356   C     0.70915   0.49998   0.24994   0.00000  Uiso   1.00
C357   C     0.86276   0.35726   0.27330   0.00000  Uiso   1.00
C358   C     0.80390   0.64274   0.22670   0.00000  Uiso   1.00
C359   C     0.80392   0.35738   0.22667   0.00000  Uiso   1.00
C360   C     0.86275   0.64262   0.27333   0.00000  Uiso   1.00
H361   H     0.88632   0.37540   0.29186   0.00000  Uiso   1.00
H362   H     0.78035   0.62460   0.20814   0.00000  Uiso   1.00
H363   H     0.78042   0.37560   0.20800   0.00000  Uiso   1.00
H364   H     0.88624   0.62440   0.29200   0.00000  Uiso   1.00
N365   N     0.83333   0.61907   0.25000   0.00000  Uiso   1.00
N366   N     0.83333   0.38093   0.25000   0.00000  Uiso   1.00
N367   N     0.88517   0.43566   0.38389   0.00000  Uiso   1.00
O368   O     0.87686   0.39252   0.38556   0.00000  Uiso   1.00
O369   O     0.91504   0.45016   0.35827   0.00000  Uiso   1.00
N370   N     0.78148   0.56434   0.11611   0.00000  Uiso   1.00
O371   O     0.75168   0.54986   0.14184   0.00000  Uiso   1.00
O372   O     0.78977   0.60748   0.11438   0.00000  Uiso   1.00
O373   O     0.10559   0.87154   0.24999   0.00000  Uiso   1.00
O374   O     0.22774   0.79513   0.25000   0.00000  Uiso   1.00
O375   O     0.22774   0.87154   0.25000   0.00000  Uiso   1.00
O376   O     0.10559   0.79513   0.24999   0.00000  Uiso   1.00
C377   C     0.08662   0.83332   0.24997   0.00000  Uiso   1.00
C378   C     0.24671   0.83335   0.25003   0.00000  Uiso   1.00
O379   O     0.16666   0.87156   0.18392   0.00000  Uiso   1.00
O380   O     0.16667   0.79511   0.31607   0.00000  Uiso   1.00
O381   O     0.16667   0.87156   0.31607   0.00000  Uiso   1.00
O382   O     0.16666   0.79511   0.18392   0.00000  Uiso   1.00
C383   C     0.16565   0.83343   0.16342   0.00000  Uiso   1.00
C384   C     0.16767   0.83323   0.33658   0.00000  Uiso   1.00
Zn385  Zn    0.16667   0.88437   0.25000   0.00000  Uiso   1.00
Zn386  Zn    0.16667   0.78229   0.25000   0.00000  Uiso   1.00
C387   C     0.19291   0.80069   0.40763   0.00000  Uiso   1.00
C388   C     0.14039   0.86596   0.09237   0.00000  Uiso   1.00
C389   C     0.16911   0.83309   0.38438   0.00000  Uiso   1.00
C390   C     0.16420   0.83358   0.11562   0.00000  Uiso   1.00
C391   C     0.14519   0.86519   0.40659   0.00000  Uiso   1.00
C392   C     0.18811   0.80146   0.09341   0.00000  Uiso   1.00
C393   C     0.14383   0.86528   0.45259   0.00000  Uiso   1.00
C394   C     0.18946   0.80136   0.04741   0.00000  Uiso   1.00
C395   C     0.16727   0.83310   0.47671   0.00000  Uiso   1.00
C396   C     0.16601   0.83354   0.02329   0.00000  Uiso   1.00
C397   C     0.19206   0.80065   0.45430   0.00000  Uiso   1.00
C398   C     0.14123   0.86599   0.04570   0.00000  Uiso   1.00
C399   C     0.11900   0.89688   0.47467   0.00000  Uiso   1.00
C400   C     0.21428   0.76976   0.02533   0.00000  Uiso   1.00
C401   C     0.11745   0.89709   0.02088   0.00000  Uiso   1.00
C402   C     0.21582   0.76955   0.47912   0.00000  Uiso   1.00
H403   H     0.12680   0.88956   0.38783   0.00000  Uiso   1.00
H404   H     0.20650   0.77710   0.11216   0.00000  Uiso   1.00
H405   H     0.10062   0.92135   0.45616   0.00000  Uiso   1.00
H406   H     0.23265   0.74528   0.04384   0.00000  Uiso   1.00
H407   H     0.09745   0.92165   0.03679   0.00000  Uiso   1.00
H408   H     0.23582   0.74498   0.46321   0.00000  Uiso   1.00
C409   C     0.02129   0.79308   0.25946   0.00000  Uiso   1.00
C410   C     0.31204   0.87359   0.24055   0.00000  Uiso   1.00
C411   C     0.31200   0.79310   0.25954   0.00000  Uiso   1.00
C412   C     0.02133   0.87357   0.24047   0.00000  Uiso   1.00
H413   H     0.03752   0.76182   0.26712   0.00000  Uiso   1.00
H414   H     0.29581   0.90485   0.23288   0.00000  Uiso   1.00
H415   H     0.29574   0.76186   0.26727   0.00000  Uiso   1.00
H416   H     0.03760   0.90481   0.23274   0.00000  Uiso   1.00
C417   C     0.29085   0.83335   0.25006   0.00000  Uiso   1.00
C418   C     0.04248   0.83331   0.24994   0.00000  Uiso   1.00
C419   C     0.19610   0.69060   0.27330   0.00000  Uiso   1.00
C420   C     0.13724   0.97607   0.22670   0.00000  Uiso   1.00
C421   C     0.13725   0.69071   0.22667   0.00000  Uiso   1.00
C422   C     0.19608   0.97596   0.27333   0.00000  Uiso   1.00
H423   H     0.21966   0.70873   0.29186   0.00000  Uiso   1.00
H424   H     0.11368   0.95793   0.20814   0.00000  Uiso   1.00
H425   H     0.11376   0.70893   0.20800   0.00000  Uiso   1.00
H426   H     0.21958   0.95773   0.29200   0.00000  Uiso   1.00
N427   N     0.16667   0.95240   0.25000   0.00000  Uiso   1.00
N428   N     0.16667   0.71427   0.25000   0.00000  Uiso   1.00
N429   N     0.21851   0.76900   0.38389   0.00000  Uiso   1.00
O430   O     0.21020   0.72586   0.38556   0.00000  Uiso   1.00
O431   O     0.24838   0.78350   0.35827   0.00000  Uiso   1.00
N432   N     0.11481   0.89768   0.11611   0.00000  Uiso   1.00
O433   O     0.08502   0.88319   0.14184   0.00000  Uiso   1.00
O434   O     0.12310   0.94082   0.11438   0.00000  Uiso   1.00
O435   O     0.43892   0.87154   0.24999   0.00000  Uiso   1.00
O436   O     0.56108   0.79513   0.25000   0.00000  Uiso   1.00
O437   O     0.56108   0.87154   0.25000   0.00000  Uiso   1.00
O438   O     0.43892   0.79513   0.24999   0.00000  Uiso   1.00
C439   C     0.41996   0.83332   0.24997   0.00000  Uiso   1.00
C440   C     0.58005   0.83335   0.25003   0.00000  Uiso   1.00
O441   O     0.49999   0.87156   0.18392   0.00000  Uiso   1.00
O442   O     0.50001   0.79511   0.31607   0.00000  Uiso   1.00
O443   O     0.50001   0.87156   0.31607   0.00000  Uiso   1.00
O444   O     0.49999   0.79511   0.18392   0.00000  Uiso   1.00
C445   C     0.49899   0.83343   0.16342   0.00000  Uiso   1.00
C446   C     0.50101   0.83323   0.33658   0.00000  Uiso   1.00
Zn447  Zn    0.50000   0.88437   0.25000   0.00000  Uiso   1.00
Zn448  Zn    0.50000   0.78229   0.25000   0.00000  Uiso   1.00
C449   C     0.52625   0.80069   0.40763   0.00000  Uiso   1.00
C450   C     0.47372   0.86596   0.09237   0.00000  Uiso   1.00
C451   C     0.50244   0.83309   0.38438   0.00000  Uiso   1.00
C452   C     0.49753   0.83358   0.11562   0.00000  Uiso   1.00
C453   C     0.47852   0.86519   0.40659   0.00000  Uiso   1.00
C454   C     0.52144   0.80146   0.09341   0.00000  Uiso   1.00
C455   C     0.47716   0.86528   0.45259   0.00000  Uiso   1.00
C456   C     0.52279   0.80136   0.04741   0.00000  Uiso   1.00
C457   C     0.50060   0.83310   0.47671   0.00000  Uiso   1.00
C458   C     0.49935   0.83354   0.02329   0.00000  Uiso   1.00
C459   C     0.52539   0.80065   0.45430   0.00000  Uiso   1.00
C460   C     0.47456   0.86599   0.04570   0.00000  Uiso   1.00
C461   C     0.45233   0.89688   0.47467   0.00000  Uiso   1.00
C462   C     0.54761   0.76976   0.02533   0.00000  Uiso   1.00
C463   C     0.45079   0.89709   0.02088   0.00000  Uiso   1.00
C464   C     0.54916   0.76955   0.47912   0.00000  Uiso   1.00
H465   H     0.46014   0.88956   0.38783   0.00000  Uiso   1.00
H466   H     0.53983   0.77710   0.11216   0.00000  Uiso   1.00
H467   H     0.43395   0.92135   0.45616   0.00000  Uiso   1.00
H468   H     0.56599   0.74528   0.04384   0.00000  Uiso   1.00
H469   H     0.43078   0.92165   0.03679   0.00000  Uiso   1.00
H470   H     0.56916   0.74498   0.46321   0.00000  Uiso   1.00
C471   C     0.35462   0.79308   0.25946   0.00000  Uiso   1.00
C472   C     0.64538   0.87359   0.24055   0.00000  Uiso   1.00
C473   C     0.64533   0.79310   0.25954   0.00000  Uiso   1.00
C474   C     0.35467   0.87357   0.24047   0.00000  Uiso   1.00
H475   H     0.37086   0.76182   0.26712   0.00000  Uiso   1.00
H476   H     0.62914   0.90485   0.23288   0.00000  Uiso   1.00
H477   H     0.62907   0.76186   0.26727   0.00000  Uiso   1.00
H478   H     0.37093   0.90481   0.23274   0.00000  Uiso   1.00
C479   C     0.62419   0.83335   0.25006   0.00000  Uiso   1.00
C480   C     0.37581   0.83331   0.24994   0.00000  Uiso   1.00
C481   C     0.52943   0.69060   0.27330   0.00000  Uiso   1.00
C482   C     0.47057   0.97607   0.22670   0.00000  Uiso   1.00
C483   C     0.47059   0.69071   0.22667   0.00000  Uiso   1.00
C484   C     0.52941   0.97596   0.27333   0.00000  Uiso   1.00
H485   H     0.55299   0.70873   0.29186   0.00000  Uiso   1.00
H486   H     0.44701   0.95793   0.20814   0.00000  Uiso   1.00
H487   H     0.44709   0.70893   0.20800   0.00000  Uiso   1.00
H488   H     0.55291   0.95773   0.29200   0.00000  Uiso   1.00
N489   N     0.50000   0.95240   0.25000   0.00000  Uiso   1.00
N490   N     0.50000   0.71427   0.25000   0.00000  Uiso   1.00
N491   N     0.55184   0.76900   0.38389   0.00000  Uiso   1.00
O492   O     0.54353   0.72586   0.38556   0.00000  Uiso   1.00
O493   O     0.58171   0.78350   0.35827   0.00000  Uiso   1.00
N494   N     0.44814   0.89768   0.11611   0.00000  Uiso   1.00
O495   O     0.41835   0.88319   0.14184   0.00000  Uiso   1.00
O496   O     0.45644   0.94082   0.11438   0.00000  Uiso   1.00
O497   O     0.77226   0.87154   0.24999   0.00000  Uiso   1.00
O498   O     0.89441   0.79513   0.25000   0.00000  Uiso   1.00
O499   O     0.89441   0.87154   0.25000   0.00000  Uiso   1.00
O500   O     0.77226   0.79513   0.24999   0.00000  Uiso   1.00
C501   C     0.75329   0.83332   0.24997   0.00000  Uiso   1.00
C502   C     0.91338   0.83335   0.25003   0.00000  Uiso   1.00
O503   O     0.83333   0.87156   0.18392   0.00000  Uiso   1.00
O504   O     0.83334   0.79511   0.31607   0.00000  Uiso   1.00
O505   O     0.83334   0.87156   0.31607   0.00000  Uiso   1.00
O506   O     0.83333   0.79511   0.18392   0.00000  Uiso   1.00
C507   C     0.83232   0.83343   0.16342   0.00000  Uiso   1.00
C508   C     0.83434   0.83323   0.33658   0.00000  Uiso   1.00
Zn509  Zn    0.83333   0.88437   0.25000   0.00000  Uiso   1.00
Zn510  Zn    0.83333   0.78229   0.25000   0.00000  Uiso   1.00
C511   C     0.85958   0.80069   0.40763   0.00000  Uiso   1.00
C512   C     0.80705   0.86596   0.09237   0.00000  Uiso   1.00
C513   C     0.83578   0.83309   0.38438   0.00000  Uiso   1.00
C514   C     0.83087   0.83358   0.11562   0.00000  Uiso   1.00
C515   C     0.81185   0.86519   0.40659   0.00000  Uiso   1.00
C516   C     0.85478   0.80146   0.09341   0.00000  Uiso   1.00
C517   C     0.81049   0.86528   0.45259   0.00000  Uiso   1.00
C518   C     0.85612   0.80136   0.04741   0.00000  Uiso   1.00
C519   C     0.83393   0.83310   0.47671   0.00000  Uiso   1.00
C520   C     0.83268   0.83354   0.02329   0.00000  Uiso   1.00
C521   C     0.85872   0.80065   0.45430   0.00000  Uiso   1.00
C522   C     0.80789   0.86599   0.04570   0.00000  Uiso   1.00
C523   C     0.78567   0.89688   0.47467   0.00000  Uiso   1.00
C524   C     0.88094   0.76976   0.02533   0.00000  Uiso   1.00
C525   C     0.78412   0.89709   0.02088   0.00000  Uiso   1.00
C526   C     0.88249   0.76955   0.47912   0.00000  Uiso   1.00
H527   H     0.79347   0.88956   0.38783   0.00000  Uiso   1.00
H528   H     0.87317   0.77710   0.11216   0.00000  Uiso   1.00
H529   H     0.76729   0.92135   0.45616   0.00000  Uiso   1.00
H530   H     0.89932   0.74528   0.04384   0.00000  Uiso   1.00
H531   H     0.76411   0.92165   0.03679   0.00000  Uiso   1.00
H532   H     0.90249   0.74498   0.46321   0.00000  Uiso   1.00
C533   C     0.68796   0.79308   0.25946   0.00000  Uiso   1.00
C534   C     0.97871   0.87359   0.24055   0.00000  Uiso   1.00
C535   C     0.97867   0.79310   0.25954   0.00000  Uiso   1.00
C536   C     0.68800   0.87357   0.24047   0.00000  Uiso   1.00
H537   H     0.70419   0.76182   0.26712   0.00000  Uiso   1.00
H538   H     0.96248   0.90485   0.23288   0.00000  Uiso   1.00
H539   H     0.96240   0.76186   0.26727   0.00000  Uiso   1.00
H540   H     0.70426   0.90481   0.23274   0.00000  Uiso   1.00
C541   C     0.95752   0.83335   0.25006   0.00000  Uiso   1.00
C542   C     0.70915   0.83331   0.24994   0.00000  Uiso   1.00
C543   C     0.86276   0.69060   0.27330   0.00000  Uiso   1.00
C544   C     0.80390   0.97607   0.22670   0.00000  Uiso   1.00
C545   C     0.80392   0.69071   0.22667   0.00000  Uiso   1.00
C546   C     0.86275   0.97596   0.27333   0.00000  Uiso   1.00
H547   H     0.88632   0.70873   0.29186   0.00000  Uiso   1.00
H548   H     0.78035   0.95793   0.20814   0.00000  Uiso   1.00
H549   H     0.78042   0.70893   0.20800   0.00000  Uiso   1.00
H550   H     0.88624   0.95773   0.29200   0.00000  Uiso   1.00
N551   N     0.83333   0.95240   0.25000   0.00000  Uiso   1.00
N552   N     0.83333   0.71427   0.25000   0.00000  Uiso   1.00
N553   N     0.88517   0.76900   0.38389   0.00000  Uiso   1.00
O554   O     0.87686   0.72586   0.38556   0.00000  Uiso   1.00
O555   O     0.91504   0.78350   0.35827   0.00000  Uiso   1.00
N556   N     0.78148   0.89768   0.11611   0.00000  Uiso   1.00
O557   O     0.75168   0.88319   0.14184   0.00000  Uiso   1.00
O558   O     0.78977   0.94082   0.11438   0.00000  Uiso   1.00
O559   O     0.10559   0.20487   0.74999   0.00000  Uiso   1.00
O560   O     0.22774   0.12846   0.75000   0.00000  Uiso   1.00
O561   O     0.22774   0.20487   0.75000   0.00000  Uiso   1.00
O562   O     0.10559   0.12846   0.74999   0.00000  Uiso   1.00
C563   C     0.08662   0.16666   0.74997   0.00000  Uiso   1.00
C564   C     0.24671   0.16668   0.75003   0.00000  Uiso   1.00
O565   O     0.16666   0.20489   0.68392   0.00000  Uiso   1.00
O566   O     0.16667   0.12844   0.81607   0.00000  Uiso   1.00
O567   O     0.16667   0.20489   0.81607   0.00000  Uiso   1.00
O568   O     0.16666   0.12844   0.68392   0.00000  Uiso   1.00
C569   C     0.16565   0.16677   0.66342   0.00000  Uiso   1.00
C570   C     0.16767   0.16657   0.83658   0.00000  Uiso   1.00
Zn571  Zn    0.16667   0.21771   0.75000   0.00000  Uiso   1.00
Zn572  Zn    0.16667   0.11563   0.75000   0.00000  Uiso   1.00
C573   C     0.19291   0.13403   0.90763   0.00000  Uiso   1.00
C574   C     0.14039   0.19929   0.59237   0.00000  Uiso   1.00
C575   C     0.16911   0.16642   0.88438   0.00000  Uiso   1.00
C576   C     0.16420   0.16691   0.61562   0.00000  Uiso   1.00
C577   C     0.14519   0.19853   0.90659   0.00000  Uiso   1.00
C578   C     0.18811   0.13479   0.59341   0.00000  Uiso   1.00
C579   C     0.14383   0.19861   0.95259   0.00000  Uiso   1.00
C580   C     0.18946   0.13470   0.54741   0.00000  Uiso   1.00
C581   C     0.16727   0.16643   0.97671   0.00000  Uiso   1.00
C582   C     0.16601   0.16687   0.52329   0.00000  Uiso   1.00
C583   C     0.19206   0.13399   0.95430   0.00000  Uiso   1.00
C584   C     0.14123   0.19932   0.54570   0.00000  Uiso   1.00
C585   C     0.11900   0.23021   0.97467   0.00000  Uiso   1.00
C586   C     0.21428   0.10309   0.52533   0.00000  Uiso   1.00
C587   C     0.11745   0.23042   0.52088   0.00000  Uiso   1.00
C588   C     0.21582   0.10288   0.97912   0.00000  Uiso   1.00
H589   H     0.12680   0.22289   0.88783   0.00000  Uiso   1.00
H590   H     0.20650   0.11043   0.61216   0.00000  Uiso   1.00
H591   H     0.10062   0.25468   0.95616   0.00000  Uiso   1.00
H592   H     0.23265   0.07862   0.54384   0.00000  Uiso   1.00
H593   H     0.09745   0.25498   0.53679   0.00000  Uiso   1.00
H594   H     0.23582   0.07831   0.96321   0.00000  Uiso   1.00
C595   C     0.02129   0.12641   0.75946   0.00000  Uiso   1.00
C596   C     0.31204   0.20693   0.74055   0.00000  Uiso   1.00
C597   C     0.31200   0.12643   0.75954   0.00000  Uiso   1.00
C598   C     0.02133   0.20690   0.74047   0.00000  Uiso   1.00
H599   H     0.03752   0.09515   0.76712   0.00000  Uiso   1.00
H600   H     0.29581   0.23818   0.73288   0.00000  Uiso   1.00
H601   H     0.29574   0.09519   0.76727   0.00000  Uiso   1.00
H602   H     0.03760   0.23814   0.73274   0.00000  Uiso   1.00
C603   C     0.29085   0.16669   0.75006   0.00000  Uiso   1.00
C604   C     0.04248   0.16665   0.74994   0.00000  Uiso   1.00
C605   C     0.19610   0.02393   0.77330   0.00000  Uiso   1.00
C606   C     0.13724   0.30940   0.72670   0.00000  Uiso   1.00
C607   C     0.13725   0.02404   0.72667   0.00000  Uiso   1.00
C608   C     0.19608   0.30929   0.77333   0.00000  Uiso   1.00
H609   H     0.21966   0.04207   0.79186   0.00000  Uiso   1.00
H610   H     0.11368   0.29127   0.70814   0.00000  Uiso   1.00
H611   H     0.11376   0.04227   0.70800   0.00000  Uiso   1.00
H612   H     0.21958   0.29107   0.79200   0.00000  Uiso   1.00
N613   N     0.16667   0.28573   0.75000   0.00000  Uiso   1.00
N614   N     0.16667   0.04760   0.75000   0.00000  Uiso   1.00
N615   N     0.21851   0.10233   0.88389   0.00000  Uiso   1.00
O616   O     0.21020   0.05919   0.88556   0.00000  Uiso   1.00
O617   O     0.24838   0.11683   0.85827   0.00000  Uiso   1.00
N618   N     0.11481   0.23101   0.61611   0.00000  Uiso   1.00
O619   O     0.08502   0.21653   0.64184   0.00000  Uiso   1.00
O620   O     0.12310   0.27415   0.61438   0.00000  Uiso   1.00
O621   O     0.43892   0.20487   0.74999   0.00000  Uiso   1.00
O622   O     0.56108   0.12846   0.75000   0.00000  Uiso   1.00
O623   O     0.56108   0.20487   0.75000   0.00000  Uiso   1.00
O624   O     0.43892   0.12846   0.74999   0.00000  Uiso   1.00
C625   C     0.41996   0.16666   0.74997   0.00000  Uiso   1.00
C626   C     0.58005   0.16668   0.75003   0.00000  Uiso   1.00
O627   O     0.49999   0.20489   0.68392   0.00000  Uiso   1.00
O628   O     0.50001   0.12844   0.81607   0.00000  Uiso   1.00
O629   O     0.50001   0.20489   0.81607   0.00000  Uiso   1.00
O630   O     0.49999   0.12844   0.68392   0.00000  Uiso   1.00
C631   C     0.49899   0.16677   0.66342   0.00000  Uiso   1.00
C632   C     0.50101   0.16657   0.83658   0.00000  Uiso   1.00
Zn633  Zn    0.50000   0.21771   0.75000   0.00000  Uiso   1.00
Zn634  Zn    0.50000   0.11563   0.75000   0.00000  Uiso   1.00
C635   C     0.52625   0.13403   0.90763   0.00000  Uiso   1.00
C636   C     0.47372   0.19929   0.59237   0.00000  Uiso   1.00
C637   C     0.50244   0.16642   0.88438   0.00000  Uiso   1.00
C638   C     0.49753   0.16691   0.61562   0.00000  Uiso   1.00
C639   C     0.47852   0.19853   0.90659   0.00000  Uiso   1.00
C640   C     0.52144   0.13479   0.59341   0.00000  Uiso   1.00
C641   C     0.47716   0.19861   0.95259   0.00000  Uiso   1.00
C642   C     0.52279   0.13470   0.54741   0.00000  Uiso   1.00
C643   C     0.50060   0.16643   0.97671   0.00000  Uiso   1.00
C644   C     0.49935   0.16687   0.52329   0.00000  Uiso   1.00
C645   C     0.52539   0.13399   0.95430   0.00000  Uiso   1.00
C646   C     0.47456   0.19932   0.54570   0.00000  Uiso   1.00
C647   C     0.45233   0.23021   0.97467   0.00000  Uiso   1.00
C648   C     0.54761   0.10309   0.52533   0.00000  Uiso   1.00
C649   C     0.45079   0.23042   0.52088   0.00000  Uiso   1.00
C650   C     0.54916   0.10288   0.97912   0.00000  Uiso   1.00
H651   H     0.46014   0.22289   0.88783   0.00000  Uiso   1.00
H652   H     0.53983   0.11043   0.61216   0.00000  Uiso   1.00
H653   H     0.43395   0.25468   0.95616   0.00000  Uiso   1.00
H654   H     0.56599   0.07862   0.54384   0.00000  Uiso   1.00
H655   H     0.43078   0.25498   0.53679   0.00000  Uiso   1.00
H656   H     0.56916   0.07831   0.96321   0.00000  Uiso   1.00
C657   C     0.35462   0.12641   0.75946   0.00000  Uiso   1.00
C658   C     0.64538   0.20693   0.74055   0.00000  Uiso   1.00
C659   C     0.64533   0.12643   0.75954   0.00000  Uiso   1.00
C660   C     0.35467   0.20690   0.74047   0.00000  Uiso   1.00
H661   H     0.37086   0.09515   0.76712   0.00000  Uiso   1.00
H662   H     0.62914   0.23818   0.73288   0.00000  Uiso   1.00
H663   H     0.62907   0.09519   0.76727   0.00000  Uiso   1.00
H664   H     0.37093   0.23814   0.73274   0.00000  Uiso   1.00
C665   C     0.62419   0.16669   0.75006   0.00000  Uiso   1.00
C666   C     0.37581   0.16665   0.74994   0.00000  Uiso   1.00
C667   C     0.52943   0.02393   0.77330   0.00000  Uiso   1.00
C668   C     0.47057   0.30940   0.72670   0.00000  Uiso   1.00
C669   C     0.47059   0.02404   0.72667   0.00000  Uiso   1.00
C670   C     0.52941   0.30929   0.77333   0.00000  Uiso   1.00
H671   H     0.55299   0.04207   0.79186   0.00000  Uiso   1.00
H672   H     0.44701   0.29127   0.70814   0.00000  Uiso   1.00
H673   H     0.44709   0.04227   0.70800   0.00000  Uiso   1.00
H674   H     0.55291   0.29107   0.79200   0.00000  Uiso   1.00
N675   N     0.50000   0.28573   0.75000   0.00000  Uiso   1.00
N676   N     0.50000   0.04760   0.75000   0.00000  Uiso   1.00
N677   N     0.55184   0.10233   0.88389   0.00000  Uiso   1.00
O678   O     0.54353   0.05919   0.88556   0.00000  Uiso   1.00
O679   O     0.58171   0.11683   0.85827   0.00000  Uiso   1.00
N680   N     0.44814   0.23101   0.61611   0.00000  Uiso   1.00
O681   O     0.41835   0.21653   0.64184   0.00000  Uiso   1.00
O682   O     0.45644   0.27415   0.61438   0.00000  Uiso   1.00
O683   O     0.77226   0.20487   0.74999   0.00000  Uiso   1.00
O684   O     0.89441   0.12846   0.75000   0.00000  Uiso   1.00
O685   O     0.89441   0.20487   0.75000   0.00000  Uiso   1.00
O686   O     0.77226   0.12846   0.74999   0.00000  Uiso   1.00
C687   C     0.75329   0.16666   0.74997   0.00000  Uiso   1.00
C688   C     0.91338   0.16668   0.75003   0.00000  Uiso   1.00
O689   O     0.83333   0.20489   0.68392   0.00000  Uiso   1.00
O690   O     0.83334   0.12844   0.81607   0.00000  Uiso   1.00
O691   O     0.83334   0.20489   0.81607   0.00000  Uiso   1.00
O692   O     0.83333   0.12844   0.68392   0.00000  Uiso   1.00
C693   C     0.83232   0.16677   0.66342   0.00000  Uiso   1.00
C694   C     0.83434   0.16657   0.83658   0.00000  Uiso   1.00
Zn695  Zn    0.83333   0.21771   0.75000   0.00000  Uiso   1.00
Zn696  Zn    0.83333   0.11563   0.75000   0.00000  Uiso   1.00
C697   C     0.85958   0.13403   0.90763   0.00000  Uiso   1.00
C698   C     0.80705   0.19929   0.59237   0.00000  Uiso   1.00
C699   C     0.83578   0.16642   0.88438   0.00000  Uiso   1.00
C700   C     0.83087   0.16691   0.61562   0.00000  Uiso   1.00
C701   C     0.81185   0.19853   0.90659   0.00000  Uiso   1.00
C702   C     0.85478   0.13479   0.59341   0.00000  Uiso   1.00
C703   C     0.81049   0.19861   0.95259   0.00000  Uiso   1.00
C704   C     0.85612   0.13470   0.54741   0.00000  Uiso   1.00
C705   C     0.83393   0.16643   0.97671   0.00000  Uiso   1.00
C706   C     0.83268   0.16687   0.52329   0.00000  Uiso   1.00
C707   C     0.85872   0.13399   0.95430   0.00000  Uiso   1.00
C708   C     0.80789   0.19932   0.54570   0.00000  Uiso   1.00
C709   C     0.78567   0.23021   0.97467   0.00000  Uiso   1.00
C710   C     0.88094   0.10309   0.52533   0.00000  Uiso   1.00
C711   C     0.78412   0.23042   0.52088   0.00000  Uiso   1.00
C712   C     0.88249   0.10288   0.97912   0.00000  Uiso   1.00
H713   H     0.79347   0.22289   0.88783   0.00000  Uiso   1.00
H714   H     0.87317   0.11043   0.61216   0.00000  Uiso   1.00
H715   H     0.76729   0.25468   0.95616   0.00000  Uiso   1.00
H716   H     0.89932   0.07862   0.54384   0.00000  Uiso   1.00
H717   H     0.76411   0.25498   0.53679   0.00000  Uiso   1.00
H718   H     0.90249   0.07831   0.96321   0.00000  Uiso   1.00
C719   C     0.68796   0.12641   0.75946   0.00000  Uiso   1.00
C720   C     0.97871   0.20693   0.74055   0.00000  Uiso   1.00
C721   C     0.97867   0.12643   0.75954   0.00000  Uiso   1.00
C722   C     0.68800   0.20690   0.74047   0.00000  Uiso   1.00
H723   H     0.70419   0.09515   0.76712   0.00000  Uiso   1.00
H724   H     0.96248   0.23818   0.73288   0.00000  Uiso   1.00
H725   H     0.96240   0.09519   0.76727   0.00000  Uiso   1.00
H726   H     0.70426   0.23814   0.73274   0.00000  Uiso   1.00
C727   C     0.95752   0.16669   0.75006   0.00000  Uiso   1.00
C728   C     0.70915   0.16665   0.74994   0.00000  Uiso   1.00
C729   C     0.86276   0.02393   0.77330   0.00000  Uiso   1.00
C730   C     0.80390   0.30940   0.72670   0.00000  Uiso   1.00
C731   C     0.80392   0.02404   0.72667   0.00000  Uiso   1.00
C732   C     0.86275   0.30929   0.77333   0.00000  Uiso   1.00
H733   H     0.88632   0.04207   0.79186   0.00000  Uiso   1.00
H734   H     0.78035   0.29127   0.70814   0.00000  Uiso   1.00
H735   H     0.78042   0.04227   0.70800   0.00000  Uiso   1.00
H736   H     0.88624   0.29107   0.79200   0.00000  Uiso   1.00
N737   N     0.83333   0.28573   0.75000   0.00000  Uiso   1.00
N738   N     0.83333   0.04760   0.75000   0.00000  Uiso   1.00
N739   N     0.88517   0.10233   0.88389   0.00000  Uiso   1.00
O740   O     0.87686   0.05919   0.88556   0.00000  Uiso   1.00
O741   O     0.91504   0.11683   0.85827   0.00000  Uiso   1.00
N742   N     0.78148   0.23101   0.61611   0.00000  Uiso   1.00
O743   O     0.75168   0.21653   0.64184   0.00000  Uiso   1.00
O744   O     0.78977   0.27415   0.61438   0.00000  Uiso   1.00
O745   O     0.10559   0.53821   0.74999   0.00000  Uiso   1.00
O746   O     0.22774   0.46179   0.75000   0.00000  Uiso   1.00
O747   O     0.22774   0.53821   0.75000   0.00000  Uiso   1.00
O748   O     0.10559   0.46179   0.74999   0.00000  Uiso   1.00
C749   C     0.08662   0.49999   0.74997   0.00000  Uiso   1.00
C750   C     0.24671   0.50001   0.75003   0.00000  Uiso   1.00
O751   O     0.16666   0.53823   0.68392   0.00000  Uiso   1.00
O752   O     0.16667   0.46177   0.81607   0.00000  Uiso   1.00
O753   O     0.16667   0.53823   0.81607   0.00000  Uiso   1.00
O754   O     0.16666   0.46177   0.68392   0.00000  Uiso   1.00
C755   C     0.16565   0.50010   0.66342   0.00000  Uiso   1.00
C756   C     0.16767   0.49990   0.83658   0.00000  Uiso   1.00
Zn757  Zn    0.16667   0.55104   0.75000   0.00000  Uiso   1.00
Zn758  Zn    0.16667   0.44896   0.75000   0.00000  Uiso   1.00
C759   C     0.19291   0.46736   0.90763   0.00000  Uiso   1.00
C760   C     0.14039   0.53263   0.59237   0.00000  Uiso   1.00
C761   C     0.16911   0.49975   0.88438   0.00000  Uiso   1.00
C762   C     0.16420   0.50024   0.61562   0.00000  Uiso   1.00
C763   C     0.14519   0.53186   0.90659   0.00000  Uiso   1.00
C764   C     0.18811   0.46813   0.59341   0.00000  Uiso   1.00
C765   C     0.14383   0.53195   0.95259   0.00000  Uiso   1.00
C766   C     0.18946   0.46803   0.54741   0.00000  Uiso   1.00
C767   C     0.16727   0.49977   0.97671   0.00000  Uiso   1.00
C768   C     0.16601   0.50021   0.52329   0.00000  Uiso   1.00
C769   C     0.19206   0.46732   0.95430   0.00000  Uiso   1.00
C770   C     0.14123   0.53266   0.54570   0.00000  Uiso   1.00
C771   C     0.11900   0.56354   0.97467   0.00000  Uiso   1.00
C772   C     0.21428   0.43643   0.52533   0.00000  Uiso   1.00
C773   C     0.11745   0.56376   0.52088   0.00000  Uiso   1.00
C774   C     0.21582   0.43621   0.97912   0.00000  Uiso   1.00
H775   H     0.12680   0.55622   0.88783   0.00000  Uiso   1.00
H776   H     0.20650   0.44376   0.61216   0.00000  Uiso   1.00
H777   H     0.10062   0.58802   0.95616   0.00000  Uiso   1.00
H778   H     0.23265   0.41195   0.54384   0.00000  Uiso   1.00
H779   H     0.09745   0.58832   0.53679   0.00000  Uiso   1.00
H780   H     0.23582   0.41165   0.96321   0.00000  Uiso   1.00
C781   C     0.02129   0.45974   0.75946   0.00000  Uiso   1.00
C782   C     0.31204   0.54026   0.74055   0.00000  Uiso   1.00
C783   C     0.31200   0.45977   0.75954   0.00000  Uiso   1.00
C784   C     0.02133   0.54024   0.74047   0.00000  Uiso   1.00
H785   H     0.03752   0.42849   0.76712   0.00000  Uiso   1.00
H786   H     0.29581   0.57151   0.73288   0.00000  Uiso   1.00
H787   H     0.29574   0.42853   0.76727   0.00000  Uiso   1.00
H788   H     0.03760   0.57147   0.73274   0.00000  Uiso   1.00
C789   C     0.29085   0.50002   0.75006   0.00000  Uiso   1.00
C790   C     0.04248   0.49998   0.74994   0.00000  Uiso   1.00
C791   C     0.19610   0.35726   0.77330   0.00000  Uiso   1.00
C792   C     0.13724   0.64274   0.72670   0.00000  Uiso   1.00
C793   C     0.13725   0.35738   0.72667   0.00000  Uiso   1.00
C794   C     0.19608   0.64262   0.77333   0.00000  Uiso   1.00
H795   H     0.21966   0.37540   0.79186   0.00000  Uiso   1.00
H796   H     0.11368   0.62460   0.70814   0.00000  Uiso   1.00
H797   H     0.11376   0.37560   0.70800   0.00000  Uiso   1.00
H798   H     0.21958   0.62440   0.79200   0.00000  Uiso   1.00
N799   N     0.16667   0.61907   0.75000   0.00000  Uiso   1.00
N800   N     0.16667   0.38093   0.75000   0.00000  Uiso   1.00
N801   N     0.21851   0.43566   0.88389   0.00000  Uiso   1.00
O802   O     0.21020   0.39252   0.88556   0.00000  Uiso   1.00
O803   O     0.24838   0.45016   0.85827   0.00000  Uiso   1.00
N804   N     0.11481   0.56434   0.61611   0.00000  Uiso   1.00
O805   O     0.08502   0.54986   0.64184   0.00000  Uiso   1.00
O806   O     0.12310   0.60748   0.61438   0.00000  Uiso   1.00
O807   O     0.43892   0.53821   0.74999   0.00000  Uiso   1.00
O808   O     0.56108   0.46179   0.75000   0.00000  Uiso   1.00
O809   O     0.56108   0.53821   0.75000   0.00000  Uiso   1.00
O810   O     0.43892   0.46179   0.74999   0.00000  Uiso   1.00
C811   C     0.41996   0.49999   0.74997   0.00000  Uiso   1.00
C812   C     0.58005   0.50001   0.75003   0.00000  Uiso   1.00
O813   O     0.49999   0.53823   0.68392   0.00000  Uiso   1.00
O814   O     0.50001   0.46177   0.81607   0.00000  Uiso   1.00
O815   O     0.50001   0.53823   0.81607   0.00000  Uiso   1.00
O816   O     0.49999   0.46177   0.68392   0.00000  Uiso   1.00
C817   C     0.49899   0.50010   0.66342   0.00000  Uiso   1.00
C818   C     0.50101   0.49990   0.83658   0.00000  Uiso   1.00
Zn819  Zn    0.50000   0.55104   0.75000   0.00000  Uiso   1.00
Zn820  Zn    0.50000   0.44896   0.75000   0.00000  Uiso   1.00
C821   C     0.52625   0.46736   0.90763   0.00000  Uiso   1.00
C822   C     0.47372   0.53263   0.59237   0.00000  Uiso   1.00
C823   C     0.50244   0.49975   0.88438   0.00000  Uiso   1.00
C824   C     0.49753   0.50024   0.61562   0.00000  Uiso   1.00
C825   C     0.47852   0.53186   0.90659   0.00000  Uiso   1.00
C826   C     0.52144   0.46813   0.59341   0.00000  Uiso   1.00
C827   C     0.47716   0.53195   0.95259   0.00000  Uiso   1.00
C828   C     0.52279   0.46803   0.54741   0.00000  Uiso   1.00
C829   C     0.50060   0.49977   0.97671   0.00000  Uiso   1.00
C830   C     0.49935   0.50021   0.52329   0.00000  Uiso   1.00
C831   C     0.52539   0.46732   0.95430   0.00000  Uiso   1.00
C832   C     0.47456   0.53266   0.54570   0.00000  Uiso   1.00
C833   C     0.45233   0.56354   0.97467   0.00000  Uiso   1.00
C834   C     0.54761   0.43643   0.52533   0.00000  Uiso   1.00
C835   C     0.45079   0.56376   0.52088   0.00000  Uiso   1.00
C836   C     0.54916   0.43621   0.97912   0.00000  Uiso   1.00
H837   H     0.46014   0.55622   0.88783   0.00000  Uiso   1.00
H838   H     0.53983   0.44376   0.61216   0.00000  Uiso   1.00
H839   H     0.43395   0.58802   0.95616   0.00000  Uiso   1.00
H840   H     0.56599   0.41195   0.54384   0.00000  Uiso   1.00
H841   H     0.43078   0.58832   0.53679   0.00000  Uiso   1.00
H842   H     0.56916   0.41165   0.96321   0.00000  Uiso   1.00
C843   C     0.35462   0.45974   0.75946   0.00000  Uiso   1.00
C844   C     0.64538   0.54026   0.74055   0.00000  Uiso   1.00
C845   C     0.64533   0.45977   0.75954   0.00000  Uiso   1.00
C846   C     0.35467   0.54024   0.74047   0.00000  Uiso   1.00
H847   H     0.37086   0.42849   0.76712   0.00000  Uiso   1.00
H848   H     0.62914   0.57151   0.73288   0.00000  Uiso   1.00
H849   H     0.62907   0.42853   0.76727   0.00000  Uiso   1.00
H850   H     0.37093   0.57147   0.73274   0.00000  Uiso   1.00
C851   C     0.62419   0.50002   0.75006   0.00000  Uiso   1.00
C852   C     0.37581   0.49998   0.74994   0.00000  Uiso   1.00
C853   C     0.52943   0.35726   0.77330   0.00000  Uiso   1.00
C854   C     0.47057   0.64274   0.72670   0.00000  Uiso   1.00
C855   C     0.47059   0.35738   0.72667   0.00000  Uiso   1.00
C856   C     0.52941   0.64262   0.77333   0.00000  Uiso   1.00
H857   H     0.55299   0.37540   0.79186   0.00000  Uiso   1.00
H858   H     0.44701   0.62460   0.70814   0.00000  Uiso   1.00
H859   H     0.44709   0.37560   0.70800   0.00000  Uiso   1.00
H860   H     0.55291   0.62440   0.79200   0.00000  Uiso   1.00
N861   N     0.50000   0.61907   0.75000   0.00000  Uiso   1.00
N862   N     0.50000   0.38093   0.75000   0.00000  Uiso   1.00
N863   N     0.55184   0.43566   0.88389   0.00000  Uiso   1.00
O864   O     0.54353   0.39252   0.88556   0.00000  Uiso   1.00
O865   O     0.58171   0.45016   0.85827   0.00000  Uiso   1.00
N866   N     0.44814   0.56434   0.61611   0.00000  Uiso   1.00
O867   O     0.41835   0.54986   0.64184   0.00000  Uiso   1.00
O868   O     0.45644   0.60748   0.61438   0.00000  Uiso   1.00
O869   O     0.77226   0.53821   0.74999   0.00000  Uiso   1.00
O870   O     0.89441   0.46179   0.75000   0.00000  Uiso   1.00
O871   O     0.89441   0.53821   0.75000   0.00000  Uiso   1.00
O872   O     0.77226   0.46179   0.74999   0.00000  Uiso   1.00
C873   C     0.75329   0.49999   0.74997   0.00000  Uiso   1.00
C874   C     0.91338   0.50001   0.75003   0.00000  Uiso   1.00
O875   O     0.83333   0.53823   0.68392   0.00000  Uiso   1.00
O876   O     0.83334   0.46177   0.81607   0.00000  Uiso   1.00
O877   O     0.83334   0.53823   0.81607   0.00000  Uiso   1.00
O878   O     0.83333   0.46177   0.68392   0.00000  Uiso   1.00
C879   C     0.83232   0.50010   0.66342   0.00000  Uiso   1.00
C880   C     0.83434   0.49990   0.83658   0.00000  Uiso   1.00
Zn881  Zn    0.83333   0.55104   0.75000   0.00000  Uiso   1.00
Zn882  Zn    0.83333   0.44896   0.75000   0.00000  Uiso   1.00
C883   C     0.85958   0.46736   0.90763   0.00000  Uiso   1.00
C884   C     0.80705   0.53263   0.59237   0.00000  Uiso   1.00
C885   C     0.83578   0.49975   0.88438   0.00000  Uiso   1.00
C886   C     0.83087   0.50024   0.61562   0.00000  Uiso   1.00
C887   C     0.81185   0.53186   0.90659   0.00000  Uiso   1.00
C888   C     0.85478   0.46813   0.59341   0.00000  Uiso   1.00
C889   C     0.81049   0.53195   0.95259   0.00000  Uiso   1.00
C890   C     0.85612   0.46803   0.54741   0.00000  Uiso   1.00
C891   C     0.83393   0.49977   0.97671   0.00000  Uiso   1.00
C892   C     0.83268   0.50021   0.52329   0.00000  Uiso   1.00
C893   C     0.85872   0.46732   0.95430   0.00000  Uiso   1.00
C894   C     0.80789   0.53266   0.54570   0.00000  Uiso   1.00
C895   C     0.78567   0.56354   0.97467   0.00000  Uiso   1.00
C896   C     0.88094   0.43643   0.52533   0.00000  Uiso   1.00
C897   C     0.78412   0.56376   0.52088   0.00000  Uiso   1.00
C898   C     0.88249   0.43621   0.97912   0.00000  Uiso   1.00
H899   H     0.79347   0.55622   0.88783   0.00000  Uiso   1.00
H900   H     0.87317   0.44376   0.61216   0.00000  Uiso   1.00
H901   H     0.76729   0.58802   0.95616   0.00000  Uiso   1.00
H902   H     0.89932   0.41195   0.54384   0.00000  Uiso   1.00
H903   H     0.76411   0.58832   0.53679   0.00000  Uiso   1.00
H904   H     0.90249   0.41165   0.96321   0.00000  Uiso   1.00
C905   C     0.68796   0.45974   0.75946   0.00000  Uiso   1.00
C906   C     0.97871   0.54026   0.74055   0.00000  Uiso   1.00
C907   C     0.97867   0.45977   0.75954   0.00000  Uiso   1.00
C908   C     0.68800   0.54024   0.74047   0.00000  Uiso   1.00
H909   H     0.70419   0.42849   0.76712   0.00000  Uiso   1.00
H910   H     0.96248   0.57151   0.73288   0.00000  Uiso   1.00
H911   H     0.96240   0.42853   0.76727   0.00000  Uiso   1.00
H912   H     0.70426   0.57147   0.73274   0.00000  Uiso   1.00
C913   C     0.95752   0.50002   0.75006   0.00000  Uiso   1.00
C914   C     0.70915   0.49998   0.74994   0.00000  Uiso   1.00
C915   C     0.86276   0.35726   0.77330   0.00000  Uiso   1.00
C916   C     0.80390   0.64274   0.72670   0.00000  Uiso   1.00
C917   C     0.80392   0.35738   0.72667   0.00000  Uiso   1.00
C918   C     0.86275   0.64262   0.77333   0.00000  Uiso   1.00
H919   H     0.88632   0.37540   0.79186   0.00000  Uiso   1.00
H920   H     0.78035   0.62460   0.70814   0.00000  Uiso   1.00
H921   H     0.78042   0.37560   0.70800   0.00000  Uiso   1.00
H922   H     0.88624   0.62440   0.79200   0.00000  Uiso   1.00
N923   N     0.83333   0.61907   0.75000   0.00000  Uiso   1.00
N924   N     0.83333   0.38093   0.75000   0.00000  Uiso   1.00
N925   N     0.88517   0.43566   0.88389   0.00000  Uiso   1.00
O926   O     0.87686   0.39252   0.88556   0.00000  Uiso   1.00
O927   O     0.91504   0.45016   0.85827   0.00000  Uiso   1.00
N928   N     0.78148   0.56434   0.61611   0.00000  Uiso   1.00
O929   O     0.75168   0.54986   0.64184   0.00000  Uiso   1.00
O930   O     0.78977   0.60748   0.61438   0.00000  Uiso   1.00
O931   O     0.10559   0.87154   0.74999   0.00000  Uiso   1.00
O932   O     0.22774   0.79513   0.75000   0.00000  Uiso   1.00
O933   O     0.22774   0.87154   0.75000   0.00000  Uiso   1.00
O934   O     0.10559   0.79513   0.74999   0.00000  Uiso   1.00
C935   C     0.08662   0.83332   0.74997   0.00000  Uiso   1.00
C936   C     0.24671   0.83335   0.75003   0.00000  Uiso   1.00
O937   O     0.16666   0.87156   0.68392   0.00000  Uiso   1.00
O938   O     0.16667   0.79511   0.81607   0.00000  Uiso   1.00
O939   O     0.16667   0.87156   0.81607   0.00000  Uiso   1.00
O940   O     0.16666   0.79511   0.68392   0.00000  Uiso   1.00
C941   C     0.16565   0.83343   0.66342   0.00000  Uiso   1.00
C942   C     0.16767   0.83323   0.83658   0.00000  Uiso   1.00
Zn943  Zn    0.16667   0.88437   0.75000   0.00000  Uiso   1.00
Zn944  Zn    0.16667   0.78229   0.75000   0.00000  Uiso   1.00
C945   C     0.19291   0.80069   0.90763   0.00000  Uiso   1.00
C946   C     0.14039   0.86596   0.59237   0.00000  Uiso   1.00
C947   C     0.16911   0.83309   0.88438   0.00000  Uiso   1.00
C948   C     0.16420   0.83358   0.61562   0.00000  Uiso   1.00
C949   C     0.14519   0.86519   0.90659   0.00000  Uiso   1.00
C950   C     0.18811   0.80146   0.59341   0.00000  Uiso   1.00
C951   C     0.14383   0.86528   0.95259   0.00000  Uiso   1.00
C952   C     0.18946   0.80136   0.54741   0.00000  Uiso   1.00
C953   C     0.16727   0.83310   0.97671   0.00000  Uiso   1.00
C954   C     0.16601   0.83354   0.52329   0.00000  Uiso   1.00
C955   C     0.19206   0.80065   0.95430   0.00000  Uiso   1.00
C956   C     0.14123   0.86599   0.54570   0.00000  Uiso   1.00
C957   C     0.11900   0.89688   0.97467   0.00000  Uiso   1.00
C958   C     0.21428   0.76976   0.52533   0.00000  Uiso   1.00
C959   C     0.11745   0.89709   0.52088   0.00000  Uiso   1.00
C960   C     0.21582   0.76955   0.97912   0.00000  Uiso   1.00
H961   H     0.12680   0.88956   0.88783   0.00000  Uiso   1.00
H962   H     0.20650   0.77710   0.61216   0.00000  Uiso   1.00
H963   H     0.10062   0.92135   0.95616   0.00000  Uiso   1.00
H964   H     0.23265   0.74528   0.54384   0.00000  Uiso   1.00
H965   H     0.09745   0.92165   0.53679   0.00000  Uiso   1.00
H966   H     0.23582   0.74498   0.96321   0.00000  Uiso   1.00
C967   C     0.02129   0.79308   0.75946   0.00000  Uiso   1.00
C968   C     0.31204   0.87359   0.74055   0.00000  Uiso   1.00
C969   C     0.31200   0.79310   0.75954   0.00000  Uiso   1.00
C970   C     0.02133   0.87357   0.74047   0.00000  Uiso   1.00
H971   H     0.03752   0.76182   0.76712   0.00000  Uiso   1.00
H972   H     0.29581   0.90485   0.73288   0.00000  Uiso   1.00
H973   H     0.29574   0.76186   0.76727   0.00000  Uiso   1.00
H974   H     0.03760   0.90481   0.73274   0.00000  Uiso   1.00
C975   C     0.29085   0.83335   0.75006   0.00000  Uiso   1.00
C976   C     0.04248   0.83331   0.74994   0.00000  Uiso   1.00
C977   C     0.19610   0.69060   0.77330   0.00000  Uiso   1.00
C978   C     0.13724   0.97607   0.72670   0.00000  Uiso   1.00
C979   C     0.13725   0.69071   0.72667   0.00000  Uiso   1.00
C980   C     0.19608   0.97596   0.77333   0.00000  Uiso   1.00
H981   H     0.21966   0.70873   0.79186   0.00000  Uiso   1.00
H982   H     0.11368   0.95793   0.70814   0.00000  Uiso   1.00
H983   H     0.11376   0.70893   0.70800   0.00000  Uiso   1.00
H984   H     0.21958   0.95773   0.79200   0.00000  Uiso   1.00
N985   N     0.16667   0.95240   0.75000   0.00000  Uiso   1.00
N986   N     0.16667   0.71427   0.75000   0.00000  Uiso   1.00
N987   N     0.21851   0.76900   0.88389   0.00000  Uiso   1.00
O988   O     0.21020   0.72586   0.88556   0.00000  Uiso   1.00
O989   O     0.24838   0.78350   0.85827   0.00000  Uiso   1.00
N990   N     0.11481   0.89768   0.61611   0.00000  Uiso   1.00
O991   O     0.08502   0.88319   0.64184   0.00000  Uiso   1.00
O992   O     0.12310   0.94082   0.61438   0.00000  Uiso   1.00
O993   O     0.43892   0.87154   0.74999   0.00000  Uiso   1.00
O994   O     0.56108   0.79513   0.75000   0.00000  Uiso   1.00
O995   O     0.56108   0.87154   0.75000   0.00000  Uiso   1.00
O996   O     0.43892   0.79513   0.74999   0.00000  Uiso   1.00
C997   C     0.41996   0.83332   0.74997   0.00000  Uiso   1.00
C998   C     0.58005   0.83335   0.75003   0.00000  Uiso   1.00
O999   O     0.49999   0.87156   0.68392   0.00000  Uiso   1.00
O1000  O     0.50001   0.79511   0.81607   0.00000  Uiso   1.00
O1001  O     0.50001   0.87156   0.81607   0.00000  Uiso   1.00
O1002  O     0.49999   0.79511   0.68392   0.00000  Uiso   1.00
C1003  C     0.49899   0.83343   0.66342   0.00000  Uiso   1.00
C1004  C     0.50101   0.83323   0.83658   0.00000  Uiso   1.00
Zn1005 Zn    0.50000   0.88437   0.75000   0.00000  Uiso   1.00
Zn1006 Zn    0.50000   0.78229   0.75000   0.00000  Uiso   1.00
C1007  C     0.52625   0.80069   0.90763   0.00000  Uiso   1.00
C1008  C     0.47372   0.86596   0.59237   0.00000  Uiso   1.00
C1009  C     0.50244   0.83309   0.88438   0.00000  Uiso   1.00
C1010  C     0.49753   0.83358   0.61562   0.00000  Uiso   1.00
C1011  C     0.47852   0.86519   0.90659   0.00000  Uiso   1.00
C1012  C     0.52144   0.80146   0.59341   0.00000  Uiso   1.00
C1013  C     0.47716   0.86528   0.95259   0.00000  Uiso   1.00
C1014  C     0.52279   0.80136   0.54741   0.00000  Uiso   1.00
C1015  C     0.50060   0.83310   0.97671   0.00000  Uiso   1.00
C1016  C     0.49935   0.83354   0.52329   0.00000  Uiso   1.00
C1017  C     0.52539   0.80065   0.95430   0.00000  Uiso   1.00
C1018  C     0.47456   0.86599   0.54570   0.00000  Uiso   1.00
C1019  C     0.45233   0.89688   0.97467   0.00000  Uiso   1.00
C1020  C     0.54761   0.76976   0.52533   0.00000  Uiso   1.00
C1021  C     0.45079   0.89709   0.52088   0.00000  Uiso   1.00
C1022  C     0.54916   0.76955   0.97912   0.00000  Uiso   1.00
H1023  H     0.46014   0.88956   0.88783   0.00000  Uiso   1.00
H1024  H     0.53983   0.77710   0.61216   0.00000  Uiso   1.00
H1025  H     0.43395   0.92135   0.95616   0.00000  Uiso   1.00
H1026  H     0.56599   0.74528   0.54384   0.00000  Uiso   1.00
H1027  H     0.43078   0.92165   0.53679   0.00000  Uiso   1.00
H1028  H     0.56916   0.74498   0.96321   0.00000  Uiso   1.00
C1029  C     0.35462   0.79308   0.75946   0.00000  Uiso   1.00
C1030  C     0.64538   0.87359   0.74055   0.00000  Uiso   1.00
C1031  C     0.64533   0.79310   0.75954   0.00000  Uiso   1.00
C1032  C     0.35467   0.87357   0.74047   0.00000  Uiso   1.00
H1033  H     0.37086   0.76182   0.76712   0.00000  Uiso   1.00
H1034  H     0.62914   0.90485   0.73288   0.00000  Uiso   1.00
H1035  H     0.62907   0.76186   0.76727   0.00000  Uiso   1.00
H1036  H     0.37093   0.90481   0.73274   0.00000  Uiso   1.00
C1037  C     0.62419   0.83335   0.75006   0.00000  Uiso   1.00
C1038  C     0.37581   0.83331   0.74994   0.00000  Uiso   1.00
C1039  C     0.52943   0.69060   0.77330   0.00000  Uiso   1.00
C1040  C     0.47057   0.97607   0.72670   0.00000  Uiso   1.00
C1041  C     0.47059   0.69071   0.72667   0.00000  Uiso   1.00
C1042  C     0.52941   0.97596   0.77333   0.00000  Uiso   1.00
H1043  H     0.55299   0.70873   0.79186   0.00000  Uiso   1.00
H1044  H     0.44701   0.95793   0.70814   0.00000  Uiso   1.00
H1045  H     0.44709   0.70893   0.70800   0.00000  Uiso   1.00
H1046  H     0.55291   0.95773   0.79200   0.00000  Uiso   1.00
N1047  N     0.50000   0.95240   0.75000   0.00000  Uiso   1.00
N1048  N     0.50000   0.71427   0.75000   0.00000  Uiso   1.00
N1049  N     0.55184   0.76900   0.88389   0.00000  Uiso   1.00
O1050  O     0.54353   0.72586   0.88556   0.00000  Uiso   1.00
O1051  O     0.58171   0.78350   0.85827   0.00000  Uiso   1.00
N1052  N     0.44814   0.89768   0.61611   0.00000  Uiso   1.00
O1053  O     0.41835   0.88319   0.64184   0.00000  Uiso   1.00
O1054  O     0.45644   0.94082   0.61438   0.00000  Uiso   1.00
O1055  O     0.77226   0.87154   0.74999   0.00000  Uiso   1.00
O1056  O     0.89441   0.79513   0.75000   0.00000  Uiso   1.00
O1057  O     0.89441   0.87154   0.75000   0.00000  Uiso   1.00
O1058  O     0.77226   0.79513   0.74999   0.00000  Uiso   1.00
C1059  C     0.75329   0.83332   0.74997   0.00000  Uiso   1.00
C1060  C     0.91338   0.83335   0.75003   0.00000  Uiso   1.00
O1061  O     0.83333   0.87156   0.68392   0.00000  Uiso   1.00
O1062  O     0.83334   0.79511   0.81607   0.00000  Uiso   1.00
O1063  O     0.83334   0.87156   0.81607   0.00000  Uiso   1.00
O1064  O     0.83333   0.79511   0.68392   0.00000  Uiso   1.00
C1065  C     0.83232   0.83343   0.66342   0.00000  Uiso   1.00
C1066  C     0.83434   0.83323   0.83658   0.00000  Uiso   1.00
Zn1067 Zn    0.83333   0.88437   0.75000   0.00000  Uiso   1.00
Zn1068 Zn    0.83333   0.78229   0.75000   0.00000  Uiso   1.00
C1069  C     0.85958   0.80069   0.90763   0.00000  Uiso   1.00
C1070  C     0.80705   0.86596   0.59237   0.00000  Uiso   1.00
C1071  C     0.83578   0.83309   0.88438   0.00000  Uiso   1.00
C1072  C     0.83087   0.83358   0.61562   0.00000  Uiso   1.00
C1073  C     0.81185   0.86519   0.90659   0.00000  Uiso   1.00
C1074  C     0.85478   0.80146   0.59341   0.00000  Uiso   1.00
C1075  C     0.81049   0.86528   0.95259   0.00000  Uiso   1.00
C1076  C     0.85612   0.80136   0.54741   0.00000  Uiso   1.00
C1077  C     0.83393   0.83310   0.97671   0.00000  Uiso   1.00
C1078  C     0.83268   0.83354   0.52329   0.00000  Uiso   1.00
C1079  C     0.85872   0.80065   0.95430   0.00000  Uiso   1.00
C1080  C     0.80789   0.86599   0.54570   0.00000  Uiso   1.00
C1081  C     0.78567   0.89688   0.97467   0.00000  Uiso   1.00
C1082  C     0.88094   0.76976   0.52533   0.00000  Uiso   1.00
C1083  C     0.78412   0.89709   0.52088   0.00000  Uiso   1.00
C1084  C     0.88249   0.76955   0.97912   0.00000  Uiso   1.00
H1085  H     0.79347   0.88956   0.88783   0.00000  Uiso   1.00
H1086  H     0.87317   0.77710   0.61216   0.00000  Uiso   1.00
H1087  H     0.76729   0.92135   0.95616   0.00000  Uiso   1.00
H1088  H     0.89932   0.74528   0.54384   0.00000  Uiso   1.00
H1089  H     0.76411   0.92165   0.53679   0.00000  Uiso   1.00
H1090  H     0.90249   0.74498   0.96321   0.00000  Uiso   1.00
C1091  C     0.68796   0.79308   0.75946   0.00000  Uiso   1.00
C1092  C     0.97871   0.87359   0.74055   0.00000  Uiso   1.00
C1093  C     0.97867   0.79310   0.75954   0.00000  Uiso   1.00
C1094  C     0.68800   0.87357   0.74047   0.00000  Uiso   1.00
H1095  H     0.70419   0.76182   0.76712   0.00000  Uiso   1.00
H1096  H     0.96248   0.90485   0.73288   0.00000  Uiso   1.00
H1097  H     0.96240   0.76186   0.76727   0.00000  Uiso   1.00
H1098  H     0.70426   0.90481   0.73274   0.00000  Uiso   1.00
C1099  C     0.95752   0.83335   0.75006   0.00000  Uiso   1.00
C1100  C     0.70915   0.83331   0.74994   0.00000  Uiso   1.00
C1101  C     0.86276   0.69060   0.77330   0.00000  Uiso   1.00
C1102  C     0.80390   0.97607   0.72670   0.00000  Uiso   1.00
C1103  C     0.80392   0.69071   0.72667   0.00000  Uiso   1.00
C1104  C     0.86275   0.97596   0.77333   0.00000  Uiso   1.00
H1105  H     0.88632   0.70873   0.79186   0.00000  Uiso   1.00
H1106  H     0.78035   0.95793   0.70814   0.00000  Uiso   1.00
H1107  H     0.78042   0.70893   0.70800   0.00000  Uiso   1.00
H1108  H     0.88624   0.95773   0.79200   0.00000  Uiso   1.00
N1109  N     0.83333   0.95240   0.75000   0.00000  Uiso   1.00
N1110  N     0.83333   0.71427   0.75000   0.00000  Uiso   1.00
N1111  N     0.88517   0.76900   0.88389   0.00000  Uiso   1.00
O1112  O     0.87686   0.72586   0.88556   0.00000  Uiso   1.00
O1113  O     0.91504   0.78350   0.85827   0.00000  Uiso   1.00
N1114  N     0.78148   0.89768   0.61611   0.00000  Uiso   1.00
O1115  O     0.75168   0.88319   0.64184   0.00000  Uiso   1.00
O1116  O     0.78977   0.94082   0.61438   0.00000  Uiso   1.00
loop_
_geom_bond_atom_site_label_1
_geom_bond_atom_site_label_2
_geom_bond_distance
_geom_bond_site_symmetry_2
_ccdc_geom_bond_type
O1     C5      1.281   .     A
O1     Zn13    1.999   .     S
O2     Zn14    1.999   .     S
O2     C6      1.281   .     A
O3     Zn13    1.999   .     S
O3     C6      1.282   .     A
O4     Zn14    1.999   .     S
O4     C5      1.282   .     A
C5     C46     1.419   .     S
C6     C45     1.419   .     S
O7     C11     1.284   .     A
O7     Zn13    2.017   .     S
O8     C12     1.284   .     A
O8     Zn14    2.017   .     S
O9     C12     1.285   .     A
O9     Zn13    2.015   .     S
O10    C11     1.285   .     A
O10    Zn14    2.015   .     S
C11    C18     1.433   .     S
C12    C17     1.433   .     S
Zn13   N55     2.007   .     S
Zn14   N56     2.007   .     S
C15    N57     1.437   .     S
C15    C25     1.399   .     A
C15    C17     1.407   .     A
C16    C18     1.407   .     A
C16    N60     1.437   .     S
C16    C26     1.399   .     A
C17    C19     1.392   .     A
C18    C20     1.392   .     A
C19    H31     1.086   .     S
C19    C21     1.379   .     A
C20    C22     1.379   .     A
C20    H32     1.086   .     S
C21    C27     1.397   .     A
C21    C23     1.409   .     A
C22    C28     1.397   .     A
C22    C24     1.409   .     A
C23    C25     1.417   .     A
C23    C582    1.397   .     S
C24    C26     1.417   .     A
C24    C581    1.397   1_554 S
C25    C30     1.405   .     A
C26    C29     1.405   .     A
C27    H33     1.084   .     S
C27    C587    1.386   .     S
C28    H34     1.084   .     S
C28    C588    1.386   1_554 S
C29    H35     1.082   .     S
C29    C585    1.386   1_554 S
C30    H36     1.082   .     S
C30    C586    1.386   .     S
C37    H41     1.084   .     S
C37    C46     1.397   .     A
C37    C163    1.370   1_455 S
C38    H42     1.084   .     S
C38    C45     1.397   .     A
C38    C102    1.370   .     S
C39    C45     1.397   .     A
C39    H43     1.084   .     S
C39    C99     1.370   .     S
C40    C46     1.397   .     A
C40    H44     1.084   .     S
C40    C162    1.370   1_455 S
C47    N56     1.366   .     A
C47    H51     1.082   .     S
C47    C422    1.415   1_545 S
C48    N55     1.366   .     A
C48    H52     1.082   .     S
C48    C235    1.415   .     S
C49    N56     1.366   .     A
C49    H53     1.082   .     S
C49    C420    1.415   1_545 S
C50    N55     1.366   .     A
C50    H54     1.082   .     S
C50    C233    1.415   .     S
N57    O58     1.301   .     A
N57    O59     1.301   .     A
N60    O61     1.301   .     A
N60    O62     1.301   .     A
O63    C67     1.281   .     A
O63    Zn75    1.999   .     S
O64    Zn76    1.999   .     S
O64    C68     1.281   .     A
O65    Zn75    1.999   .     S
O65    C68     1.282   .     A
O66    Zn76    1.999   .     S
O66    C67     1.282   .     A
C67    C108    1.419   .     S
C68    C107    1.419   .     S
O69    C73     1.284   .     A
O69    Zn75    2.017   .     S
O70    C74     1.284   .     A
O70    Zn76    2.017   .     S
O71    C74     1.285   .     A
O71    Zn75    2.015   .     S
O72    C73     1.285   .     A
O72    Zn76    2.015   .     S
C73    C80     1.433   .     S
C74    C79     1.433   .     S
Zn75   N117    2.007   .     S
Zn76   N118    2.007   .     S
C77    N119    1.437   .     S
C77    C87     1.399   .     A
C77    C79     1.407   .     A
C78    C80     1.407   .     A
C78    N122    1.437   .     S
C78    C88     1.399   .     A
C79    C81     1.392   .     A
C80    C82     1.392   .     A
C81    H93     1.086   .     S
C81    C83     1.379   .     A
C82    C84     1.379   .     A
C82    H94     1.086   .     S
C83    C89     1.397   .     A
C83    C85     1.409   .     A
C84    C90     1.397   .     A
C84    C86     1.409   .     A
C85    C87     1.417   .     A
C85    C644    1.397   .     S
C86    C88     1.417   .     A
C86    C643    1.397   1_554 S
C87    C92     1.405   .     A
C88    C91     1.405   .     A
C89    H95     1.084   .     S
C89    C649    1.386   .     S
C90    H96     1.084   .     S
C90    C650    1.386   1_554 S
C91    H97     1.082   .     S
C91    C647    1.386   1_554 S
C92    H98     1.082   .     S
C92    C648    1.386   .     S
C99    H103    1.084   .     S
C99    C108    1.397   .     A
C100   H104    1.084   .     S
C100   C107    1.397   .     A
C100   C164    1.370   .     S
C101   C107    1.397   .     A
C101   H105    1.084   .     S
C101   C161    1.370   .     S
C102   C108    1.397   .     A
C102   H106    1.084   .     S
C109   N118    1.366   .     A
C109   H113    1.082   .     S
C109   C484    1.415   1_545 S
C110   N117    1.366   .     A
C110   H114    1.082   .     S
C110   C297    1.415   .     S
C111   N118    1.366   .     A
C111   H115    1.082   .     S
C111   C482    1.415   1_545 S
C112   N117    1.366   .     A
C112   H116    1.082   .     S
C112   C295    1.415   .     S
N119   O120    1.301   .     A
N119   O121    1.301   .     A
N122   O123    1.301   .     A
N122   O124    1.301   .     A
O125   C129    1.281   .     A
O125   Zn137   1.999   .     S
O126   Zn138   1.999   .     S
O126   C130    1.281   .     A
O127   Zn137   1.999   .     S
O127   C130    1.282   .     A
O128   Zn138   1.999   .     S
O128   C129    1.282   .     A
C129   C170    1.419   .     S
C130   C169    1.419   .     S
O131   C135    1.284   .     A
O131   Zn137   2.017   .     S
O132   C136    1.284   .     A
O132   Zn138   2.017   .     S
O133   C136    1.285   .     A
O133   Zn137   2.015   .     S
O134   C135    1.285   .     A
O134   Zn138   2.015   .     S
C135   C142    1.433   .     S
C136   C141    1.433   .     S
Zn137  N179    2.007   .     S
Zn138  N180    2.007   .     S
C139   N181    1.437   .     S
C139   C149    1.399   .     A
C139   C141    1.407   .     A
C140   C142    1.407   .     A
C140   N184    1.437   .     S
C140   C150    1.399   .     A
C141   C143    1.392   .     A
C142   C144    1.392   .     A
C143   H155    1.086   .     S
C143   C145    1.379   .     A
C144   C146    1.379   .     A
C144   H156    1.086   .     S
C145   C151    1.397   .     A
C145   C147    1.409   .     A
C146   C152    1.397   .     A
C146   C148    1.409   .     A
C147   C149    1.417   .     A
C147   C706    1.397   .     S
C148   C150    1.417   .     A
C148   C705    1.397   1_554 S
C149   C154    1.405   .     A
C150   C153    1.405   .     A
C151   H157    1.084   .     S
C151   C711    1.386   .     S
C152   H158    1.084   .     S
C152   C712    1.386   1_554 S
C153   H159    1.082   .     S
C153   C709    1.386   1_554 S
C154   H160    1.082   .     S
C154   C710    1.386   .     S
C161   H165    1.084   .     S
C161   C170    1.397   .     A
C162   H166    1.084   .     S
C162   C169    1.397   .     A
C162   C40     1.370   1_655 S
C163   C169    1.397   .     A
C163   H167    1.084   .     S
C163   C37     1.370   1_655 S
C164   C170    1.397   .     A
C164   H168    1.084   .     S
C171   N180    1.366   .     A
C171   H175    1.082   .     S
C171   C546    1.415   1_545 S
C172   N179    1.366   .     A
C172   H176    1.082   .     S
C172   C359    1.415   .     S
C173   N180    1.366   .     A
C173   H177    1.082   .     S
C173   C544    1.415   1_545 S
C174   N179    1.366   .     A
C174   H178    1.082   .     S
C174   C357    1.415   .     S
N181   O182    1.301   .     A
N181   O183    1.301   .     A
N184   O185    1.301   .     A
N184   O186    1.301   .     A
O187   C191    1.281   .     A
O187   Zn199   1.999   .     S
O188   Zn200   1.999   .     S
O188   C192    1.281   .     A
O189   Zn199   1.999   .     S
O189   C192    1.282   .     A
O190   Zn200   1.999   .     S
O190   C191    1.282   .     A
C191   C232    1.419   .     S
C192   C231    1.419   .     S
O193   C197    1.284   .     A
O193   Zn199   2.017   .     S
O194   C198    1.284   .     A
O194   Zn200   2.017   .     S
O195   C198    1.285   .     A
O195   Zn199   2.015   .     S
O196   C197    1.285   .     A
O196   Zn200   2.015   .     S
C197   C204    1.433   .     S
C198   C203    1.433   .     S
Zn199  N241    2.007   .     S
Zn200  N242    2.007   .     S
C201   N243    1.437   .     S
C201   C211    1.399   .     A
C201   C203    1.407   .     A
C202   C204    1.407   .     A
C202   N246    1.437   .     S
C202   C212    1.399   .     A
C203   C205    1.392   .     A
C204   C206    1.392   .     A
C205   H217    1.086   .     S
C205   C207    1.379   .     A
C206   C208    1.379   .     A
C206   H218    1.086   .     S
C207   C213    1.397   .     A
C207   C209    1.409   .     A
C208   C214    1.397   .     A
C208   C210    1.409   .     A
C209   C211    1.417   .     A
C209   C768    1.397   .     S
C210   C212    1.417   .     A
C210   C767    1.397   1_554 S
C211   C216    1.405   .     A
C212   C215    1.405   .     A
C213   H219    1.084   .     S
C213   C773    1.386   .     S
C214   H220    1.084   .     S
C214   C774    1.386   1_554 S
C215   H221    1.082   .     S
C215   C771    1.386   1_554 S
C216   H222    1.082   .     S
C216   C772    1.386   .     S
C223   H227    1.084   .     S
C223   C232    1.397   .     A
C223   C349    1.370   1_455 S
C224   H228    1.084   .     S
C224   C231    1.397   .     A
C224   C288    1.370   .     S
C225   C231    1.397   .     A
C225   H229    1.084   .     S
C225   C285    1.370   .     S
C226   C232    1.397   .     A
C226   H230    1.084   .     S
C226   C348    1.370   1_455 S
C233   N242    1.366   .     A
C233   H237    1.082   .     S
C234   N241    1.366   .     A
C234   H238    1.082   .     S
C234   C421    1.415   .     S
C235   N242    1.366   .     A
C235   H239    1.082   .     S
C236   N241    1.366   .     A
C236   H240    1.082   .     S
C236   C419    1.415   .     S
N243   O244    1.301   .     A
N243   O245    1.301   .     A
N246   O247    1.301   .     A
N246   O248    1.301   .     A
O249   C253    1.281   .     A
O249   Zn261   1.999   .     S
O250   Zn262   1.999   .     S
O250   C254    1.281   .     A
O251   Zn261   1.999   .     S
O251   C254    1.282   .     A
O252   Zn262   1.999   .     S
O252   C253    1.282   .     A
C253   C294    1.419   .     S
C254   C293    1.419   .     S
O255   C259    1.284   .     A
O255   Zn261   2.017   .     S
O256   C260    1.284   .     A
O256   Zn262   2.017   .     S
O257   C260    1.285   .     A
O257   Zn261   2.015   .     S
O258   C259    1.285   .     A
O258   Zn262   2.015   .     S
C259   C266    1.433   .     S
C260   C265    1.433   .     S
Zn261  N303    2.007   .     S
Zn262  N304    2.007   .     S
C263   N305    1.437   .     S
C263   C273    1.399   .     A
C263   C265    1.407   .     A
C264   C266    1.407   .     A
C264   N308    1.437   .     S
C264   C274    1.399   .     A
C265   C267    1.392   .     A
C266   C268    1.392   .     A
C267   H279    1.086   .     S
C267   C269    1.379   .     A
C268   C270    1.379   .     A
C268   H280    1.086   .     S
C269   C275    1.397   .     A
C269   C271    1.409   .     A
C270   C276    1.397   .     A
C270   C272    1.409   .     A
C271   C273    1.417   .     A
C271   C830    1.397   .     S
C272   C274    1.417   .     A
C272   C829    1.397   1_554 S
C273   C278    1.405   .     A
C274   C277    1.405   .     A
C275   H281    1.084   .     S
C275   C835    1.386   .     S
C276   H282    1.084   .     S
C276   C836    1.386   1_554 S
C277   H283    1.082   .     S
C277   C833    1.386   1_554 S
C278   H284    1.082   .     S
C278   C834    1.386   .     S
C285   H289    1.084   .     S
C285   C294    1.397   .     A
C286   H290    1.084   .     S
C286   C293    1.397   .     A
C286   C350    1.370   .     S
C287   C293    1.397   .     A
C287   H291    1.084   .     S
C287   C347    1.370   .     S
C288   C294    1.397   .     A
C288   H292    1.084   .     S
C295   N304    1.366   .     A
C295   H299    1.082   .     S
C296   N303    1.366   .     A
C296   H300    1.082   .     S
C296   C483    1.415   .     S
C297   N304    1.366   .     A
C297   H301    1.082   .     S
C298   N303    1.366   .     A
C298   H302    1.082   .     S
C298   C481    1.415   .     S
N305   O306    1.301   .     A
N305   O307    1.301   .     A
N308   O309    1.301   .     A
N308   O310    1.301   .     A
O311   C315    1.281   .     A
O311   Zn323   1.999   .     S
O312   Zn324   1.999   .     S
O312   C316    1.281   .     A
O313   Zn323   1.999   .     S
O313   C316    1.282   .     A
O314   Zn324   1.999   .     S
O314   C315    1.282   .     A
C315   C356    1.419   .     S
C316   C355    1.419   .     S
O317   C321    1.284   .     A
O317   Zn323   2.017   .     S
O318   C322    1.284   .     A
O318   Zn324   2.017   .     S
O319   C322    1.285   .     A
O319   Zn323   2.015   .     S
O320   C321    1.285   .     A
O320   Zn324   2.015   .     S
C321   C328    1.433   .     S
C322   C327    1.433   .     S
Zn323  N365    2.007   .     S
Zn324  N366    2.007   .     S
C325   N367    1.437   .     S
C325   C335    1.399   .     A
C325   C327    1.407   .     A
C326   C328    1.407   .     A
C326   N370    1.437   .     S
C326   C336    1.399   .     A
C327   C329    1.392   .     A
C328   C330    1.392   .     A
C329   H341    1.086   .     S
C329   C331    1.379   .     A
C330   C332    1.379   .     A
C330   H342    1.086   .     S
C331   C337    1.397   .     A
C331   C333    1.409   .     A
C332   C338    1.397   .     A
C332   C334    1.409   .     A
C333   C335    1.417   .     A
C333   C892    1.397   .     S
C334   C336    1.417   .     A
C334   C891    1.397   1_554 S
C335   C340    1.405   .     A
C336   C339    1.405   .     A
C337   H343    1.084   .     S
C337   C897    1.386   .     S
C338   H344    1.084   .     S
C338   C898    1.386   1_554 S
C339   H345    1.082   .     S
C339   C895    1.386   1_554 S
C340   H346    1.082   .     S
C340   C896    1.386   .     S
C347   H351    1.084   .     S
C347   C356    1.397   .     A
C348   H352    1.084   .     S
C348   C355    1.397   .     A
C348   C226    1.370   1_655 S
C349   C355    1.397   .     A
C349   H353    1.084   .     S
C349   C223    1.370   1_655 S
C350   C356    1.397   .     A
C350   H354    1.084   .     S
C357   N366    1.366   .     A
C357   H361    1.082   .     S
C358   N365    1.366   .     A
C358   H362    1.082   .     S
C358   C545    1.415   .     S
C359   N366    1.366   .     A
C359   H363    1.082   .     S
C360   N365    1.366   .     A
C360   H364    1.082   .     S
C360   C543    1.415   .     S
N367   O368    1.301   .     A
N367   O369    1.301   .     A
N370   O371    1.301   .     A
N370   O372    1.301   .     A
O373   C377    1.281   .     A
O373   Zn385   1.999   .     S
O374   Zn386   1.999   .     S
O374   C378    1.281   .     A
O375   Zn385   1.999   .     S
O375   C378    1.282   .     A
O376   Zn386   1.999   .     S
O376   C377    1.282   .     A
C377   C418    1.419   .     S
C378   C417    1.419   .     S
O379   C383    1.284   .     A
O379   Zn385   2.017   .     S
O380   C384    1.284   .     A
O380   Zn386   2.017   .     S
O381   C384    1.285   .     A
O381   Zn385   2.015   .     S
O382   C383    1.285   .     A
O382   Zn386   2.015   .     S
C383   C390    1.433   .     S
C384   C389    1.433   .     S
Zn385  N427    2.007   .     S
Zn386  N428    2.007   .     S
C387   N429    1.437   .     S
C387   C397    1.399   .     A
C387   C389    1.407   .     A
C388   C390    1.407   .     A
C388   N432    1.437   .     S
C388   C398    1.399   .     A
C389   C391    1.392   .     A
C390   C392    1.392   .     A
C391   H403    1.086   .     S
C391   C393    1.379   .     A
C392   C394    1.379   .     A
C392   H404    1.086   .     S
C393   C399    1.397   .     A
C393   C395    1.409   .     A
C394   C400    1.397   .     A
C394   C396    1.409   .     A
C395   C397    1.417   .     A
C395   C954    1.397   .     S
C396   C398    1.417   .     A
C396   C953    1.397   1_554 S
C397   C402    1.405   .     A
C398   C401    1.405   .     A
C399   H405    1.084   .     S
C399   C959    1.386   .     S
C400   H406    1.084   .     S
C400   C960    1.386   1_554 S
C401   H407    1.082   .     S
C401   C957    1.386   1_554 S
C402   H408    1.082   .     S
C402   C958    1.386   .     S
C409   H413    1.084   .     S
C409   C418    1.397   .     A
C409   C535    1.370   1_455 S
C410   H414    1.084   .     S
C410   C417    1.397   .     A
C410   C474    1.370   .     S
C411   C417    1.397   .     A
C411   H415    1.084   .     S
C411   C471    1.370   .     S
C412   C418    1.397   .     A
C412   H416    1.084   .     S
C412   C534    1.370   1_455 S
C419   N428    1.366   .     A
C419   H423    1.082   .     S
C420   N427    1.366   .     A
C420   H424    1.082   .     S
C420   C49     1.415   1_565 S
C421   N428    1.366   .     A
C421   H425    1.082   .     S
C422   N427    1.366   .     A
C422   H426    1.082   .     S
C422   C47     1.415   1_565 S
N429   O430    1.301   .     A
N429   O431    1.301   .     A
N432   O433    1.301   .     A
N432   O434    1.301   .     A
O435   C439    1.281   .     A
O435   Zn447   1.999   .     S
O436   Zn448   1.999   .     S
O436   C440    1.281   .     A
O437   Zn447   1.999   .     S
O437   C440    1.282   .     A
O438   Zn448   1.999   .     S
O438   C439    1.282   .     A
C439   C480    1.419   .     S
C440   C479    1.419   .     S
O441   C445    1.284   .     A
O441   Zn447   2.017   .     S
O442   C446    1.284   .     A
O442   Zn448   2.017   .     S
O443   C446    1.285   .     A
O443   Zn447   2.015   .     S
O444   C445    1.285   .     A
O444   Zn448   2.015   .     S
C445   C452    1.433   .     S
C446   C451    1.433   .     S
Zn447  N489    2.007   .     S
Zn448  N490    2.007   .     S
C449   N491    1.437   .     S
C449   C459    1.399   .     A
C449   C451    1.407   .     A
C450   C452    1.407   .     A
C450   N494    1.437   .     S
C450   C460    1.399   .     A
C451   C453    1.392   .     A
C452   C454    1.392   .     A
C453   H465    1.086   .     S
C453   C455    1.379   .     A
C454   C456    1.379   .     A
C454   H466    1.086   .     S
C455   C461    1.397   .     A
C455   C457    1.409   .     A
C456   C462    1.397   .     A
C456   C458    1.409   .     A
C457   C459    1.417   .     A
C457   C1016   1.397   .     S
C458   C460    1.417   .     A
C458   C1015   1.397   1_554 S
C459   C464    1.405   .     A
C460   C463    1.405   .     A
C461   H467    1.084   .     S
C461   C1021   1.386   .     S
C462   H468    1.084   .     S
C462   C1022   1.386   1_554 S
C463   H469    1.082   .     S
C463   C1019   1.386   1_554 S
C464   H470    1.082   .     S
C464   C1020   1.386   .     S
C471   H475    1.084   .     S
C471   C480    1.397   .     A
C472   H476    1.084   .     S
C472   C479    1.397   .     A
C472   C536    1.370   .     S
C473   C479    1.397   .     A
C473   H477    1.084   .     S
C473   C533    1.370   .     S
C474   C480    1.397   .     A
C474   H478    1.084   .     S
C481   N490    1.366   .     A
C481   H485    1.082   .     S
C482   N489    1.366   .     A
C482   H486    1.082   .     S
C482   C111    1.415   1_565 S
C483   N490    1.366   .     A
C483   H487    1.082   .     S
C484   N489    1.366   .     A
C484   H488    1.082   .     S
C484   C109    1.415   1_565 S
N491   O492    1.301   .     A
N491   O493    1.301   .     A
N494   O495    1.301   .     A
N494   O496    1.301   .     A
O497   C501    1.281   .     A
O497   Zn509   1.999   .     S
O498   Zn510   1.999   .     S
O498   C502    1.281   .     A
O499   Zn509   1.999   .     S
O499   C502    1.282   .     A
O500   Zn510   1.999   .     S
O500   C501    1.282   .     A
C501   C542    1.419   .     S
C502   C541    1.419   .     S
O503   C507    1.284   .     A
O503   Zn509   2.017   .     S
O504   C508    1.284   .     A
O504   Zn510   2.017   .     S
O505   C508    1.285   .     A
O505   Zn509   2.015   .     S
O506   C507    1.285   .     A
O506   Zn510   2.015   .     S
C507   C514    1.433   .     S
C508   C513    1.433   .     S
Zn509  N551    2.007   .     S
Zn510  N552    2.007   .     S
C511   N553    1.437   .     S
C511   C521    1.399   .     A
C511   C513    1.407   .     A
C512   C514    1.407   .     A
C512   N556    1.437   .     S
C512   C522    1.399   .     A
C513   C515    1.392   .     A
C514   C516    1.392   .     A
C515   H527    1.086   .     S
C515   C517    1.379   .     A
C516   C518    1.379   .     A
C516   H528    1.086   .     S
C517   C523    1.397   .     A
C517   C519    1.409   .     A
C518   C524    1.397   .     A
C518   C520    1.409   .     A
C519   C521    1.417   .     A
C519   C1078   1.397   .     S
C520   C522    1.417   .     A
C520   C1077   1.397   1_554 S
C521   C526    1.405   .     A
C522   C525    1.405   .     A
C523   H529    1.084   .     S
C523   C1083   1.386   .     S
C524   H530    1.084   .     S
C524   C1084   1.386   1_554 S
C525   H531    1.082   .     S
C525   C1081   1.386   1_554 S
C526   H532    1.082   .     S
C526   C1082   1.386   .     S
C533   H537    1.084   .     S
C533   C542    1.397   .     A
C534   H538    1.084   .     S
C534   C541    1.397   .     A
C534   C412    1.370   1_655 S
C535   C541    1.397   .     A
C535   H539    1.084   .     S
C535   C409    1.370   1_655 S
C536   C542    1.397   .     A
C536   H540    1.084   .     S
C543   N552    1.366   .     A
C543   H547    1.082   .     S
C544   N551    1.366   .     A
C544   H548    1.082   .     S
C544   C173    1.415   1_565 S
C545   N552    1.366   .     A
C545   H549    1.082   .     S
C546   N551    1.366   .     A
C546   H550    1.082   .     S
C546   C171    1.415   1_565 S
N553   O554    1.301   .     A
N553   O555    1.301   .     A
N556   O557    1.301   .     A
N556   O558    1.301   .     A
O559   C563    1.281   .     A
O559   Zn571   1.999   .     S
O560   Zn572   1.999   .     S
O560   C564    1.281   .     A
O561   Zn571   1.999   .     S
O561   C564    1.282   .     A
O562   Zn572   1.999   .     S
O562   C563    1.282   .     A
C563   C604    1.419   .     S
C564   C603    1.419   .     S
O565   C569    1.284   .     A
O565   Zn571   2.017   .     S
O566   C570    1.284   .     A
O566   Zn572   2.017   .     S
O567   C570    1.285   .     A
O567   Zn571   2.015   .     S
O568   C569    1.285   .     A
O568   Zn572   2.015   .     S
C569   C576    1.433   .     S
C570   C575    1.433   .     S
Zn571  N613    2.007   .     S
Zn572  N614    2.007   .     S
C573   N615    1.437   .     S
C573   C583    1.399   .     A
C573   C575    1.407   .     A
C574   C576    1.407   .     A
C574   N618    1.437   .     S
C574   C584    1.399   .     A
C575   C577    1.392   .     A
C576   C578    1.392   .     A
C577   H589    1.086   .     S
C577   C579    1.379   .     A
C578   C580    1.379   .     A
C578   H590    1.086   .     S
C579   C585    1.397   .     A
C579   C581    1.409   .     A
C580   C586    1.397   .     A
C580   C582    1.409   .     A
C581   C583    1.417   .     A
C581   C24     1.397   1_556 S
C582   C584    1.417   .     A
C583   C588    1.405   .     A
C584   C587    1.405   .     A
C585   H591    1.084   .     S
C585   C29     1.386   1_556 S
C586   H592    1.084   .     S
C587   H593    1.082   .     S
C588   H594    1.082   .     S
C588   C28     1.386   1_556 S
C595   H599    1.084   .     S
C595   C604    1.397   .     A
C595   C721    1.370   1_455 S
C596   H600    1.084   .     S
C596   C603    1.397   .     A
C596   C660    1.370   .     S
C597   C603    1.397   .     A
C597   H601    1.084   .     S
C597   C657    1.370   .     S
C598   C604    1.397   .     A
C598   H602    1.084   .     S
C598   C720    1.370   1_455 S
C605   N614    1.366   .     A
C605   H609    1.082   .     S
C605   C980    1.415   1_545 S
C606   N613    1.366   .     A
C606   H610    1.082   .     S
C606   C793    1.415   .     S
C607   N614    1.366   .     A
C607   H611    1.082   .     S
C607   C978    1.415   1_545 S
C608   N613    1.366   .     A
C608   H612    1.082   .     S
C608   C791    1.415   .     S
N615   O616    1.301   .     A
N615   O617    1.301   .     A
N618   O619    1.301   .     A
N618   O620    1.301   .     A
O621   C625    1.281   .     A
O621   Zn633   1.999   .     S
O622   Zn634   1.999   .     S
O622   C626    1.281   .     A
O623   Zn633   1.999   .     S
O623   C626    1.282   .     A
O624   Zn634   1.999   .     S
O624   C625    1.282   .     A
C625   C666    1.419   .     S
C626   C665    1.419   .     S
O627   C631    1.284   .     A
O627   Zn633   2.017   .     S
O628   C632    1.284   .     A
O628   Zn634   2.017   .     S
O629   C632    1.285   .     A
O629   Zn633   2.015   .     S
O630   C631    1.285   .     A
O630   Zn634   2.015   .     S
C631   C638    1.433   .     S
C632   C637    1.433   .     S
Zn633  N675    2.007   .     S
Zn634  N676    2.007   .     S
C635   N677    1.437   .     S
C635   C645    1.399   .     A
C635   C637    1.407   .     A
C636   C638    1.407   .     A
C636   N680    1.437   .     S
C636   C646    1.399   .     A
C637   C639    1.392   .     A
C638   C640    1.392   .     A
C639   H651    1.086   .     S
C639   C641    1.379   .     A
C640   C642    1.379   .     A
C640   H652    1.086   .     S
C641   C647    1.397   .     A
C641   C643    1.409   .     A
C642   C648    1.397   .     A
C642   C644    1.409   .     A
C643   C645    1.417   .     A
C643   C86     1.397   1_556 S
C644   C646    1.417   .     A
C645   C650    1.405   .     A
C646   C649    1.405   .     A
C647   H653    1.084   .     S
C647   C91     1.386   1_556 S
C648   H654    1.084   .     S
C649   H655    1.082   .     S
C650   H656    1.082   .     S
C650   C90     1.386   1_556 S
C657   H661    1.084   .     S
C657   C666    1.397   .     A
C658   H662    1.084   .     S
C658   C665    1.397   .     A
C658   C722    1.370   .     S
C659   C665    1.397   .     A
C659   H663    1.084   .     S
C659   C719    1.370   .     S
C660   C666    1.397   .     A
C660   H664    1.084   .     S
C667   N676    1.366   .     A
C667   H671    1.082   .     S
C667   C1042   1.415   1_545 S
C668   N675    1.366   .     A
C668   H672    1.082   .     S
C668   C855    1.415   .     S
C669   N676    1.366   .     A
C669   H673    1.082   .     S
C669   C1040   1.415   1_545 S
C670   N675    1.366   .     A
C670   H674    1.082   .     S
C670   C853    1.415   .     S
N677   O678    1.301   .     A
N677   O679    1.301   .     A
N680   O681    1.301   .     A
N680   O682    1.301   .     A
O683   C687    1.281   .     A
O683   Zn695   1.999   .     S
O684   Zn696   1.999   .     S
O684   C688    1.281   .     A
O685   Zn695   1.999   .     S
O685   C688    1.282   .     A
O686   Zn696   1.999   .     S
O686   C687    1.282   .     A
C687   C728    1.419   .     S
C688   C727    1.419   .     S
O689   C693    1.284   .     A
O689   Zn695   2.017   .     S
O690   C694    1.284   .     A
O690   Zn696   2.017   .     S
O691   C694    1.285   .     A
O691   Zn695   2.015   .     S
O692   C693    1.285   .     A
O692   Zn696   2.015   .     S
C693   C700    1.433   .     S
C694   C699    1.433   .     S
Zn695  N737    2.007   .     S
Zn696  N738    2.007   .     S
C697   N739    1.437   .     S
C697   C707    1.399   .     A
C697   C699    1.407   .     A
C698   C700    1.407   .     A
C698   N742    1.437   .     S
C698   C708    1.399   .     A
C699   C701    1.392   .     A
C700   C702    1.392   .     A
C701   H713    1.086   .     S
C701   C703    1.379   .     A
C702   C704    1.379   .     A
C702   H714    1.086   .     S
C703   C709    1.397   .     A
C703   C705    1.409   .     A
C704   C710    1.397   .     A
C704   C706    1.409   .     A
C705   C707    1.417   .     A
C705   C148    1.397   1_556 S
C706   C708    1.417   .     A
C707   C712    1.405   .     A
C708   C711    1.405   .     A
C709   H715    1.084   .     S
C709   C153    1.386   1_556 S
C710   H716    1.084   .     S
C711   H717    1.082   .     S
C712   H718    1.082   .     S
C712   C152    1.386   1_556 S
C719   H723    1.084   .     S
C719   C728    1.397   .     A
C720   H724    1.084   .     S
C720   C727    1.397   .     A
C720   C598    1.370   1_655 S
C721   C727    1.397   .     A
C721   H725    1.084   .     S
C721   C595    1.370   1_655 S
C722   C728    1.397   .     A
C722   H726    1.084   .     S
C729   N738    1.366   .     A
C729   H733    1.082   .     S
C729   C1104   1.415   1_545 S
C730   N737    1.366   .     A
C730   H734    1.082   .     S
C730   C917    1.415   .     S
C731   N738    1.366   .     A
C731   H735    1.082   .     S
C731   C1102   1.415   1_545 S
C732   N737    1.366   .     A
C732   H736    1.082   .     S
C732   C915    1.415   .     S
N739   O740    1.301   .     A
N739   O741    1.301   .     A
N742   O743    1.301   .     A
N742   O744    1.301   .     A
O745   C749    1.281   .     A
O745   Zn757   1.999   .     S
O746   Zn758   1.999   .     S
O746   C750    1.281   .     A
O747   Zn757   1.999   .     S
O747   C750    1.282   .     A
O748   Zn758   1.999   .     S
O748   C749    1.282   .     A
C749   C790    1.419   .     S
C750   C789    1.419   .     S
O751   C755    1.284   .     A
O751   Zn757   2.017   .     S
O752   C756    1.284   .     A
O752   Zn758   2.017   .     S
O753   C756    1.285   .     A
O753   Zn757   2.015   .     S
O754   C755    1.285   .     A
O754   Zn758   2.015   .     S
C755   C762    1.433   .     S
C756   C761    1.433   .     S
Zn757  N799    2.007   .     S
Zn758  N800    2.007   .     S
C759   N801    1.437   .     S
C759   C769    1.399   .     A
C759   C761    1.407   .     A
C760   C762    1.407   .     A
C760   N804    1.437   .     S
C760   C770    1.399   .     A
C761   C763    1.392   .     A
C762   C764    1.392   .     A
C763   H775    1.086   .     S
C763   C765    1.379   .     A
C764   C766    1.379   .     A
C764   H776    1.086   .     S
C765   C771    1.397   .     A
C765   C767    1.409   .     A
C766   C772    1.397   .     A
C766   C768    1.409   .     A
C767   C769    1.417   .     A
C767   C210    1.397   1_556 S
C768   C770    1.417   .     A
C769   C774    1.405   .     A
C770   C773    1.405   .     A
C771   H777    1.084   .     S
C771   C215    1.386   1_556 S
C772   H778    1.084   .     S
C773   H779    1.082   .     S
C774   H780    1.082   .     S
C774   C214    1.386   1_556 S
C781   H785    1.084   .     S
C781   C790    1.397   .     A
C781   C907    1.370   1_455 S
C782   H786    1.084   .     S
C782   C789    1.397   .     A
C782   C846    1.370   .     S
C783   C789    1.397   .     A
C783   H787    1.084   .     S
C783   C843    1.370   .     S
C784   C790    1.397   .     A
C784   H788    1.084   .     S
C784   C906    1.370   1_455 S
C791   N800    1.366   .     A
C791   H795    1.082   .     S
C792   N799    1.366   .     A
C792   H796    1.082   .     S
C792   C979    1.415   .     S
C793   N800    1.366   .     A
C793   H797    1.082   .     S
C794   N799    1.366   .     A
C794   H798    1.082   .     S
C794   C977    1.415   .     S
N801   O802    1.301   .     A
N801   O803    1.301   .     A
N804   O805    1.301   .     A
N804   O806    1.301   .     A
O807   C811    1.281   .     A
O807   Zn819   1.999   .     S
O808   Zn820   1.999   .     S
O808   C812    1.281   .     A
O809   Zn819   1.999   .     S
O809   C812    1.282   .     A
O810   Zn820   1.999   .     S
O810   C811    1.282   .     A
C811   C852    1.419   .     S
C812   C851    1.419   .     S
O813   C817    1.284   .     A
O813   Zn819   2.017   .     S
O814   C818    1.284   .     A
O814   Zn820   2.017   .     S
O815   C818    1.285   .     A
O815   Zn819   2.015   .     S
O816   C817    1.285   .     A
O816   Zn820   2.015   .     S
C817   C824    1.433   .     S
C818   C823    1.433   .     S
Zn819  N861    2.007   .     S
Zn820  N862    2.007   .     S
C821   N863    1.437   .     S
C821   C831    1.399   .     A
C821   C823    1.407   .     A
C822   C824    1.407   .     A
C822   N866    1.437   .     S
C822   C832    1.399   .     A
C823   C825    1.392   .     A
C824   C826    1.392   .     A
C825   H837    1.086   .     S
C825   C827    1.379   .     A
C826   C828    1.379   .     A
C826   H838    1.086   .     S
C827   C833    1.397   .     A
C827   C829    1.409   .     A
C828   C834    1.397   .     A
C828   C830    1.409   .     A
C829   C831    1.417   .     A
C829   C272    1.397   1_556 S
C830   C832    1.417   .     A
C831   C836    1.405   .     A
C832   C835    1.405   .     A
C833   H839    1.084   .     S
C833   C277    1.386   1_556 S
C834   H840    1.084   .     S
C835   H841    1.082   .     S
C836   H842    1.082   .     S
C836   C276    1.386   1_556 S
C843   H847    1.084   .     S
C843   C852    1.397   .     A
C844   H848    1.084   .     S
C844   C851    1.397   .     A
C844   C908    1.370   .     S
C845   C851    1.397   .     A
C845   H849    1.084   .     S
C845   C905    1.370   .     S
C846   C852    1.397   .     A
C846   H850    1.084   .     S
C853   N862    1.366   .     A
C853   H857    1.082   .     S
C854   N861    1.366   .     A
C854   H858    1.082   .     S
C854   C1041   1.415   .     S
C855   N862    1.366   .     A
C855   H859    1.082   .     S
C856   N861    1.366   .     A
C856   H860    1.082   .     S
C856   C1039   1.415   .     S
N863   O864    1.301   .     A
N863   O865    1.301   .     A
N866   O867    1.301   .     A
N866   O868    1.301   .     A
O869   C873    1.281   .     A
O869   Zn881   1.999   .     S
O870   Zn882   1.999   .     S
O870   C874    1.281   .     A
O871   Zn881   1.999   .     S
O871   C874    1.282   .     A
O872   Zn882   1.999   .     S
O872   C873    1.282   .     A
C873   C914    1.419   .     S
C874   C913    1.419   .     S
O875   C879    1.284   .     A
O875   Zn881   2.017   .     S
O876   C880    1.284   .     A
O876   Zn882   2.017   .     S
O877   C880    1.285   .     A
O877   Zn881   2.015   .     S
O878   C879    1.285   .     A
O878   Zn882   2.015   .     S
C879   C886    1.433   .     S
C880   C885    1.433   .     S
Zn881  N923    2.007   .     S
Zn882  N924    2.007   .     S
C883   N925    1.437   .     S
C883   C893    1.399   .     A
C883   C885    1.407   .     A
C884   C886    1.407   .     A
C884   N928    1.437   .     S
C884   C894    1.399   .     A
C885   C887    1.392   .     A
C886   C888    1.392   .     A
C887   H899    1.086   .     S
C887   C889    1.379   .     A
C888   C890    1.379   .     A
C888   H900    1.086   .     S
C889   C895    1.397   .     A
C889   C891    1.409   .     A
C890   C896    1.397   .     A
C890   C892    1.409   .     A
C891   C893    1.417   .     A
C891   C334    1.397   1_556 S
C892   C894    1.417   .     A
C893   C898    1.405   .     A
C894   C897    1.405   .     A
C895   H901    1.084   .     S
C895   C339    1.386   1_556 S
C896   H902    1.084   .     S
C897   H903    1.082   .     S
C898   H904    1.082   .     S
C898   C338    1.386   1_556 S
C905   H909    1.084   .     S
C905   C914    1.397   .     A
C906   H910    1.084   .     S
C906   C913    1.397   .     A
C906   C784    1.370   1_655 S
C907   C913    1.397   .     A
C907   H911    1.084   .     S
C907   C781    1.370   1_655 S
C908   C914    1.397   .     A
C908   H912    1.084   .     S
C915   N924    1.366   .     A
C915   H919    1.082   .     S
C916   N923    1.366   .     A
C916   H920    1.082   .     S
C916   C1103   1.415   .     S
C917   N924    1.366   .     A
C917   H921    1.082   .     S
C918   N923    1.366   .     A
C918   H922    1.082   .     S
C918   C1101   1.415   .     S
N925   O926    1.301   .     A
N925   O927    1.301   .     A
N928   O929    1.301   .     A
N928   O930    1.301   .     A
O931   C935    1.281   .     A
O931   Zn943   1.999   .     S
O932   Zn944   1.999   .     S
O932   C936    1.281   .     A
O933   Zn943   1.999   .     S
O933   C936    1.282   .     A
O934   Zn944   1.999   .     S
O934   C935    1.282   .     A
C935   C976    1.419   .     S
C936   C975    1.419   .     S
O937   C941    1.284   .     A
O937   Zn943   2.017   .     S
O938   C942    1.284   .     A
O938   Zn944   2.017   .     S
O939   C942    1.285   .     A
O939   Zn943   2.015   .     S
O940   C941    1.285   .     A
O940   Zn944   2.015   .     S
C941   C948    1.433   .     S
C942   C947    1.433   .     S
Zn943  N985    2.007   .     S
Zn944  N986    2.007   .     S
C945   N987    1.437   .     S
C945   C955    1.399   .     A
C945   C947    1.407   .     A
C946   C948    1.407   .     A
C946   N990    1.437   .     S
C946   C956    1.399   .     A
C947   C949    1.392   .     A
C948   C950    1.392   .     A
C949   H961    1.086   .     S
C949   C951    1.379   .     A
C950   C952    1.379   .     A
C950   H962    1.086   .     S
C951   C957    1.397   .     A
C951   C953    1.409   .     A
C952   C958    1.397   .     A
C952   C954    1.409   .     A
C953   C955    1.417   .     A
C953   C396    1.397   1_556 S
C954   C956    1.417   .     A
C955   C960    1.405   .     A
C956   C959    1.405   .     A
C957   H963    1.084   .     S
C957   C401    1.386   1_556 S
C958   H964    1.084   .     S
C959   H965    1.082   .     S
C960   H966    1.082   .     S
C960   C400    1.386   1_556 S
C967   H971    1.084   .     S
C967   C976    1.397   .     A
C967   C1093   1.370   1_455 S
C968   H972    1.084   .     S
C968   C975    1.397   .     A
C968   C1032   1.370   .     S
C969   C975    1.397   .     A
C969   H973    1.084   .     S
C969   C1029   1.370   .     S
C970   C976    1.397   .     A
C970   H974    1.084   .     S
C970   C1092   1.370   1_455 S
C977   N986    1.366   .     A
C977   H981    1.082   .     S
C978   N985    1.366   .     A
C978   H982    1.082   .     S
C978   C607    1.415   1_565 S
C979   N986    1.366   .     A
C979   H983    1.082   .     S
C980   N985    1.366   .     A
C980   H984    1.082   .     S
C980   C605    1.415   1_565 S
N987   O988    1.301   .     A
N987   O989    1.301   .     A
N990   O991    1.301   .     A
N990   O992    1.301   .     A
O993   C997    1.281   .     A
O993   Zn1005  1.999   .     S
O994   Zn1006  1.999   .     S
O994   C998    1.281   .     A
O995   Zn1005  1.999   .     S
O995   C998    1.282   .     A
O996   Zn1006  1.999   .     S
O996   C997    1.282   .     A
C997   C1038   1.419   .     S
C998   C1037   1.419   .     S
O999   C1003   1.284   .     A
O999   Zn1005  2.017   .     S
O1000  C1004   1.284   .     A
O1000  Zn1006  2.017   .     S
O1001  C1004   1.285   .     A
O1001  Zn1005  2.015   .     S
O1002  C1003   1.285   .     A
O1002  Zn1006  2.015   .     S
C1003  C1010   1.433   .     S
C1004  C1009   1.433   .     S
Zn1005 N1047   2.007   .     S
Zn1006 N1048   2.007   .     S
C1007  N1049   1.437   .     S
C1007  C1017   1.399   .     A
C1007  C1009   1.407   .     A
C1008  C1010   1.407   .     A
C1008  N1052   1.437   .     S
C1008  C1018   1.399   .     A
C1009  C1011   1.392   .     A
C1010  C1012   1.392   .     A
C1011  H1023   1.086   .     S
C1011  C1013   1.379   .     A
C1012  C1014   1.379   .     A
C1012  H1024   1.086   .     S
C1013  C1019   1.397   .     A
C1013  C1015   1.409   .     A
C1014  C1020   1.397   .     A
C1014  C1016   1.409   .     A
C1015  C1017   1.417   .     A
C1015  C458    1.397   1_556 S
C1016  C1018   1.417   .     A
C1017  C1022   1.405   .     A
C1018  C1021   1.405   .     A
C1019  H1025   1.084   .     S
C1019  C463    1.386   1_556 S
C1020  H1026   1.084   .     S
C1021  H1027   1.082   .     S
C1022  H1028   1.082   .     S
C1022  C462    1.386   1_556 S
C1029  H1033   1.084   .     S
C1029  C1038   1.397   .     A
C1030  H1034   1.084   .     S
C1030  C1037   1.397   .     A
C1030  C1094   1.370   .     S
C1031  C1037   1.397   .     A
C1031  H1035   1.084   .     S
C1031  C1091   1.370   .     S
C1032  C1038   1.397   .     A
C1032  H1036   1.084   .     S
C1039  N1048   1.366   .     A
C1039  H1043   1.082   .     S
C1040  N1047   1.366   .     A
C1040  H1044   1.082   .     S
C1040  C669    1.415   1_565 S
C1041  N1048   1.366   .     A
C1041  H1045   1.082   .     S
C1042  N1047   1.366   .     A
C1042  H1046   1.082   .     S
C1042  C667    1.415   1_565 S
N1049  O1050   1.301   .     A
N1049  O1051   1.301   .     A
N1052  O1053   1.301   .     A
N1052  O1054   1.301   .     A
O1055  C1059   1.281   .     A
O1055  Zn1067  1.999   .     S
O1056  Zn1068  1.999   .     S
O1056  C1060   1.281   .     A
O1057  Zn1067  1.999   .     S
O1057  C1060   1.282   .     A
O1058  Zn1068  1.999   .     S
O1058  C1059   1.282   .     A
C1059  C1100   1.419   .     S
C1060  C1099   1.419   .     S
O1061  C1065   1.284   .     A
O1061  Zn1067  2.017   .     S
O1062  C1066   1.284   .     A
O1062  Zn1068  2.017   .     S
O1063  C1066   1.285   .     A
O1063  Zn1067  2.015   .     S
O1064  C1065   1.285   .     A
O1064  Zn1068  2.015   .     S
C1065  C1072   1.433   .     S
C1066  C1071   1.433   .     S
Zn1067 N1109   2.007   .     S
Zn1068 N1110   2.007   .     S
C1069  N1111   1.437   .     S
C1069  C1079   1.399   .     A
C1069  C1071   1.407   .     A
C1070  C1072   1.407   .     A
C1070  N1114   1.437   .     S
C1070  C1080   1.399   .     A
C1071  C1073   1.392   .     A
C1072  C1074   1.392   .     A
C1073  H1085   1.086   .     S
C1073  C1075   1.379   .     A
C1074  C1076   1.379   .     A
C1074  H1086   1.086   .     S
C1075  C1081   1.397   .     A
C1075  C1077   1.409   .     A
C1076  C1082   1.397   .     A
C1076  C1078   1.409   .     A
C1077  C1079   1.417   .     A
C1077  C520    1.397   1_556 S
C1078  C1080   1.417   .     A
C1079  C1084   1.405   .     A
C1080  C1083   1.405   .     A
C1081  H1087   1.084   .     S
C1081  C525    1.386   1_556 S
C1082  H1088   1.084   .     S
C1083  H1089   1.082   .     S
C1084  H1090   1.082   .     S
C1084  C524    1.386   1_556 S
C1091  H1095   1.084   .     S
C1091  C1100   1.397   .     A
C1092  H1096   1.084   .     S
C1092  C1099   1.397   .     A
C1092  C970    1.370   1_655 S
C1093  C1099   1.397   .     A
C1093  H1097   1.084   .     S
C1093  C967    1.370   1_655 S
C1094  C1100   1.397   .     A
C1094  H1098   1.084   .     S
C1101  N1110   1.366   .     A
C1101  H1105   1.082   .     S
C1102  N1109   1.366   .     A
C1102  H1106   1.082   .     S
C1102  C731    1.415   1_565 S
C1103  N1110   1.366   .     A
C1103  H1107   1.082   .     S
C1104  N1109   1.366   .     A
C1104  H1108   1.082   .     S
C1104  C729    1.415   1_565 S
N1111  O1112   1.301   .     A
N1111  O1113   1.301   .     A
N1114  O1115   1.301   .     A
N1114  O1116   1.301   .     A
