data_str_m3_o2_o10_pcu_sym.46
_audit_creation_date              2020-01-03
_audit_creation_method            'Materials Studio'
_symmetry_space_group_name_H-M    'P1'
_symmetry_Int_Tables_number       1
_symmetry_cell_setting            triclinic
loop_
_symmetry_equiv_pos_as_xyz
  x,y,z
_cell_length_a                    25.9535
_cell_length_b                    29.8807
_cell_length_c                    28.3219
_cell_angle_alpha                 90.1174
_cell_angle_beta                  98.4425
_cell_angle_gamma                 89.7921
loop_
_atom_site_label
_atom_site_type_symbol
_atom_site_fract_x
_atom_site_fract_y
_atom_site_fract_z
_atom_site_U_iso_or_equiv
_atom_site_adp_type
_atom_site_occupancy
O1     O     0.16667   0.18454   0.28974   0.00000  Uiso   1.00
O2     O     0.16666   0.31547   0.21026   0.00000  Uiso   1.00
O3     O     0.16667   0.18453   0.21026   0.00000  Uiso   1.00
O4     O     0.16666   0.31547   0.28974   0.00000  Uiso   1.00
C5     C     0.16977   0.16401   0.25040   0.00000  Uiso   1.00
C6     C     0.16436   0.33601   0.24974   0.00000  Uiso   1.00
O7     O     0.09058   0.25000   0.28044   0.00000  Uiso   1.00
O8     O     0.24275   0.25000   0.21955   0.00000  Uiso   1.00
O9     O     0.09058   0.25000   0.20097   0.00000  Uiso   1.00
O10    O     0.24275   0.25001   0.29903   0.00000  Uiso   1.00
C11    C     0.06724   0.24988   0.23778   0.00000  Uiso   1.00
C12    C     0.26608   0.25004   0.26227   0.00000  Uiso   1.00
Zn13   Zn    0.16667   0.25001   0.30307   0.00000  Uiso   1.00
Zn14   Zn    0.16667   0.25000   0.19693   0.00000  Uiso   1.00
C15    C     0.01292   0.24429   0.23185   0.00000  Uiso   1.00
C16    C     0.32046   0.25509   0.26847   0.00000  Uiso   1.00
C17    C     0.14060   0.04750   0.21554   0.00000  Uiso   1.00
C18    C     0.20292   0.45086   0.22670   0.00000  Uiso   1.00
H19    H     0.11218   0.03012   0.19015   0.00000  Uiso   1.00
H20    H     0.23281   0.46691   0.20972   0.00000  Uiso   1.00
C21    C     0.14004   0.09329   0.21671   0.00000  Uiso   1.00
C22    C     0.20076   0.40512   0.22752   0.00000  Uiso   1.00
H23    H     0.11131   0.11110   0.19193   0.00000  Uiso   1.00
H24    H     0.22938   0.38599   0.21157   0.00000  Uiso   1.00
C25    C     0.17464   0.11606   0.25057   0.00000  Uiso   1.00
C26    C     0.16278   0.38400   0.24933   0.00000  Uiso   1.00
C27    C     0.21375   0.09319   0.28200   0.00000  Uiso   1.00
C28    C     0.12405   0.40848   0.26895   0.00000  Uiso   1.00
C29    C     0.21447   0.04579   0.28048   0.00000  Uiso   1.00
C30    C     0.12709   0.45583   0.26923   0.00000  Uiso   1.00
C31    C     0.17504   0.02394   0.24886   0.00000  Uiso   1.00
C32    C     0.16843   0.47600   0.24928   0.00000  Uiso   1.00
C33    C     0.12594   0.23005   0.04711   0.00000  Uiso   1.00
C34    C     0.18905   0.28533   0.45048   0.00000  Uiso   1.00
H35    H     0.09314   0.21486   0.02492   0.00000  Uiso   1.00
H36    H     0.20613   0.31376   0.47062   0.00000  Uiso   1.00
C37    C     0.12683   0.23029   0.09688   0.00000  Uiso   1.00
C38    C     0.18882   0.28458   0.40081   0.00000  Uiso   1.00
H39    H     0.09541   0.21480   0.11205   0.00000  Uiso   1.00
H40    H     0.20631   0.31187   0.38385   0.00000  Uiso   1.00
N41    N     0.16667   0.24999   0.12624   0.00000  Uiso   1.00
N42    N     0.16667   0.25001   0.37376   0.00000  Uiso   1.00
C43    C     0.20642   0.26976   0.10762   0.00000  Uiso   1.00
C44    C     0.14437   0.21548   0.39466   0.00000  Uiso   1.00
H45    H     0.23777   0.28541   0.13122   0.00000  Uiso   1.00
H46    H     0.12684   0.18823   0.37285   0.00000  Uiso   1.00
C47    C     0.20727   0.26997   0.05810   0.00000  Uiso   1.00
C48    C     0.14405   0.21475   0.44425   0.00000  Uiso   1.00
H49    H     0.24003   0.28519   0.04476   0.00000  Uiso   1.00
H50    H     0.12691   0.18633   0.45964   0.00000  Uiso   1.00
C51    C     0.16659   0.25000   0.02667   0.00000  Uiso   1.00
C52    C     0.16656   0.25002   0.47330   0.00000  Uiso   1.00
N53    N     0.32173   0.22305   0.18855   0.00000  Uiso   1.00
H54    H     0.32775   0.24298   0.15956   0.00000  Uiso   1.00
H55    H     0.00642   0.19208   0.18519   0.00000  Uiso   1.00
N56    N     0.01183   0.27505   0.31246   0.00000  Uiso   1.00
H57    H     0.00634   0.25389   0.34066   0.00000  Uiso   1.00
H58    H     0.32687   0.30558   0.31741   0.00000  Uiso   1.00
C59    C     0.25593   0.11915   0.31402   0.00000  Uiso   1.00
C60    C     0.29931   0.13338   0.28625   0.00000  Uiso   1.00
H61    H     0.28328   0.15414   0.25505   0.00000  Uiso   1.00
H62    H     0.32873   0.15334   0.30972   0.00000  Uiso   1.00
H63    H     0.31882   0.10355   0.27339   0.00000  Uiso   1.00
H64    H     0.24010   0.14898   0.33003   0.00000  Uiso   1.00
H65    H     0.27294   0.09964   0.34574   0.00000  Uiso   1.00
C66    C     0.07752   0.38434   0.28448   0.00000  Uiso   1.00
C67    C     0.03640   0.37444   0.24140   0.00000  Uiso   1.00
H68    H     0.05220   0.35107   0.21652   0.00000  Uiso   1.00
H69    H     0.00179   0.35886   0.25335   0.00000  Uiso   1.00
H70    H     0.02379   0.40585   0.22212   0.00000  Uiso   1.00
H71    H     0.08920   0.35273   0.30338   0.00000  Uiso   1.00
H72    H     0.05923   0.40373   0.31094   0.00000  Uiso   1.00
C73    C     0.25739   0.01878   0.31058   0.00000  Uiso   1.00
C74    C     0.24282   0.00657   0.35915   0.00000  Uiso   1.00
H75    H     0.22871   0.03640   0.37696   0.00000  Uiso   1.00
H76    H     0.21221   0.48047   0.35485   0.00000  Uiso   1.00
H77    H     0.27751   0.49279   0.38223   0.00000  Uiso   1.00
H78    H     0.26661   0.48761   0.29242   0.00000  Uiso   1.00
H79    H     0.29502   0.03682   0.31529   0.00000  Uiso   1.00
C80    C     0.08594   0.48436   0.28881   0.00000  Uiso   1.00
C81    C     0.09707   0.48902   0.34304   0.00000  Uiso   1.00
H82    H     0.10783   0.45640   0.36049   0.00000  Uiso   1.00
H83    H     0.12919   0.01316   0.35302   0.00000  Uiso   1.00
H84    H     0.06188   0.00219   0.35650   0.00000  Uiso   1.00
H85    H     0.08280   0.01849   0.27369   0.00000  Uiso   1.00
H86    H     0.04646   0.47036   0.27788   0.00000  Uiso   1.00
O87    O     0.50000   0.18454   0.28974   0.00000  Uiso   1.00
O88    O     0.50000   0.31547   0.21026   0.00000  Uiso   1.00
O89    O     0.50000   0.18453   0.21026   0.00000  Uiso   1.00
O90    O     0.50000   0.31547   0.28974   0.00000  Uiso   1.00
C91    C     0.50310   0.16401   0.25040   0.00000  Uiso   1.00
C92    C     0.49769   0.33601   0.24974   0.00000  Uiso   1.00
O93    O     0.42392   0.25000   0.28044   0.00000  Uiso   1.00
O94    O     0.57608   0.25000   0.21955   0.00000  Uiso   1.00
O95    O     0.42392   0.25000   0.20097   0.00000  Uiso   1.00
O96    O     0.57608   0.25001   0.29903   0.00000  Uiso   1.00
C97    C     0.40057   0.24988   0.23778   0.00000  Uiso   1.00
C98    C     0.59942   0.25004   0.26227   0.00000  Uiso   1.00
Zn99   Zn    0.50000   0.25001   0.30307   0.00000  Uiso   1.00
Zn100  Zn    0.50000   0.25000   0.19693   0.00000  Uiso   1.00
C101   C     0.34626   0.24429   0.23185   0.00000  Uiso   1.00
C102   C     0.65379   0.25509   0.26847   0.00000  Uiso   1.00
C103   C     0.47393   0.04750   0.21554   0.00000  Uiso   1.00
C104   C     0.53626   0.45086   0.22670   0.00000  Uiso   1.00
H105   H     0.44552   0.03012   0.19015   0.00000  Uiso   1.00
H106   H     0.56614   0.46691   0.20972   0.00000  Uiso   1.00
C107   C     0.47337   0.09329   0.21671   0.00000  Uiso   1.00
C108   C     0.53409   0.40512   0.22752   0.00000  Uiso   1.00
H109   H     0.44465   0.11110   0.19193   0.00000  Uiso   1.00
H110   H     0.56271   0.38599   0.21157   0.00000  Uiso   1.00
C111   C     0.50797   0.11606   0.25057   0.00000  Uiso   1.00
C112   C     0.49612   0.38400   0.24933   0.00000  Uiso   1.00
C113   C     0.54708   0.09319   0.28200   0.00000  Uiso   1.00
C114   C     0.45738   0.40848   0.26895   0.00000  Uiso   1.00
C115   C     0.54780   0.04579   0.28048   0.00000  Uiso   1.00
C116   C     0.46043   0.45583   0.26923   0.00000  Uiso   1.00
C117   C     0.50837   0.02394   0.24886   0.00000  Uiso   1.00
C118   C     0.50177   0.47600   0.24928   0.00000  Uiso   1.00
C119   C     0.45927   0.23005   0.04711   0.00000  Uiso   1.00
C120   C     0.52238   0.28533   0.45048   0.00000  Uiso   1.00
H121   H     0.42647   0.21486   0.02492   0.00000  Uiso   1.00
H122   H     0.53946   0.31376   0.47062   0.00000  Uiso   1.00
C123   C     0.46017   0.23029   0.09688   0.00000  Uiso   1.00
C124   C     0.52216   0.28458   0.40081   0.00000  Uiso   1.00
H125   H     0.42874   0.21480   0.11205   0.00000  Uiso   1.00
H126   H     0.53964   0.31187   0.38385   0.00000  Uiso   1.00
N127   N     0.50000   0.24999   0.12624   0.00000  Uiso   1.00
N128   N     0.50000   0.25001   0.37376   0.00000  Uiso   1.00
C129   C     0.53975   0.26976   0.10762   0.00000  Uiso   1.00
C130   C     0.47771   0.21548   0.39466   0.00000  Uiso   1.00
H131   H     0.57110   0.28541   0.13122   0.00000  Uiso   1.00
H132   H     0.46018   0.18823   0.37285   0.00000  Uiso   1.00
C133   C     0.54060   0.26997   0.05810   0.00000  Uiso   1.00
C134   C     0.47739   0.21475   0.44425   0.00000  Uiso   1.00
H135   H     0.57336   0.28519   0.04476   0.00000  Uiso   1.00
H136   H     0.46024   0.18633   0.45964   0.00000  Uiso   1.00
C137   C     0.49992   0.25000   0.02667   0.00000  Uiso   1.00
C138   C     0.49989   0.25002   0.47330   0.00000  Uiso   1.00
N139   N     0.65506   0.22305   0.18855   0.00000  Uiso   1.00
H140   H     0.66108   0.24298   0.15956   0.00000  Uiso   1.00
H141   H     0.33975   0.19208   0.18519   0.00000  Uiso   1.00
N142   N     0.34516   0.27505   0.31246   0.00000  Uiso   1.00
H143   H     0.33967   0.25389   0.34066   0.00000  Uiso   1.00
H144   H     0.66020   0.30558   0.31741   0.00000  Uiso   1.00
C145   C     0.58926   0.11915   0.31402   0.00000  Uiso   1.00
C146   C     0.63264   0.13338   0.28625   0.00000  Uiso   1.00
H147   H     0.61661   0.15414   0.25505   0.00000  Uiso   1.00
H148   H     0.66206   0.15334   0.30972   0.00000  Uiso   1.00
H149   H     0.65215   0.10355   0.27339   0.00000  Uiso   1.00
H150   H     0.57343   0.14898   0.33003   0.00000  Uiso   1.00
H151   H     0.60627   0.09964   0.34574   0.00000  Uiso   1.00
C152   C     0.41085   0.38434   0.28448   0.00000  Uiso   1.00
C153   C     0.36973   0.37444   0.24140   0.00000  Uiso   1.00
H154   H     0.38553   0.35107   0.21652   0.00000  Uiso   1.00
H155   H     0.33512   0.35886   0.25335   0.00000  Uiso   1.00
H156   H     0.35712   0.40585   0.22212   0.00000  Uiso   1.00
H157   H     0.42253   0.35273   0.30338   0.00000  Uiso   1.00
H158   H     0.39257   0.40373   0.31094   0.00000  Uiso   1.00
C159   C     0.59072   0.01878   0.31058   0.00000  Uiso   1.00
C160   C     0.57616   0.00657   0.35915   0.00000  Uiso   1.00
H161   H     0.56205   0.03640   0.37696   0.00000  Uiso   1.00
H162   H     0.54554   0.48047   0.35485   0.00000  Uiso   1.00
H163   H     0.61084   0.49279   0.38223   0.00000  Uiso   1.00
H164   H     0.59995   0.48761   0.29242   0.00000  Uiso   1.00
H165   H     0.62835   0.03682   0.31529   0.00000  Uiso   1.00
C166   C     0.41927   0.48436   0.28881   0.00000  Uiso   1.00
C167   C     0.43040   0.48902   0.34304   0.00000  Uiso   1.00
H168   H     0.44116   0.45640   0.36049   0.00000  Uiso   1.00
H169   H     0.46253   0.01316   0.35302   0.00000  Uiso   1.00
H170   H     0.39521   0.00219   0.35650   0.00000  Uiso   1.00
H171   H     0.41613   0.01849   0.27369   0.00000  Uiso   1.00
H172   H     0.37979   0.47036   0.27788   0.00000  Uiso   1.00
O173   O     0.83334   0.18454   0.28974   0.00000  Uiso   1.00
O174   O     0.83333   0.31547   0.21026   0.00000  Uiso   1.00
O175   O     0.83334   0.18453   0.21026   0.00000  Uiso   1.00
O176   O     0.83333   0.31547   0.28974   0.00000  Uiso   1.00
C177   C     0.83644   0.16401   0.25040   0.00000  Uiso   1.00
C178   C     0.83102   0.33601   0.24974   0.00000  Uiso   1.00
O179   O     0.75725   0.25000   0.28044   0.00000  Uiso   1.00
O180   O     0.90942   0.25000   0.21955   0.00000  Uiso   1.00
O181   O     0.75725   0.25000   0.20097   0.00000  Uiso   1.00
O182   O     0.90942   0.25001   0.29903   0.00000  Uiso   1.00
C183   C     0.73391   0.24988   0.23778   0.00000  Uiso   1.00
C184   C     0.93275   0.25004   0.26227   0.00000  Uiso   1.00
Zn185  Zn    0.83333   0.25001   0.30307   0.00000  Uiso   1.00
Zn186  Zn    0.83333   0.25000   0.19693   0.00000  Uiso   1.00
C187   C     0.67959   0.24429   0.23185   0.00000  Uiso   1.00
C188   C     0.98712   0.25509   0.26847   0.00000  Uiso   1.00
C189   C     0.80727   0.04750   0.21554   0.00000  Uiso   1.00
C190   C     0.86959   0.45086   0.22670   0.00000  Uiso   1.00
H191   H     0.77885   0.03012   0.19015   0.00000  Uiso   1.00
H192   H     0.89948   0.46691   0.20972   0.00000  Uiso   1.00
C193   C     0.80671   0.09329   0.21671   0.00000  Uiso   1.00
C194   C     0.86743   0.40512   0.22752   0.00000  Uiso   1.00
H195   H     0.77798   0.11110   0.19193   0.00000  Uiso   1.00
H196   H     0.89604   0.38599   0.21157   0.00000  Uiso   1.00
C197   C     0.84130   0.11606   0.25057   0.00000  Uiso   1.00
C198   C     0.82945   0.38400   0.24933   0.00000  Uiso   1.00
C199   C     0.88042   0.09319   0.28200   0.00000  Uiso   1.00
C200   C     0.79071   0.40848   0.26895   0.00000  Uiso   1.00
C201   C     0.88114   0.04579   0.28048   0.00000  Uiso   1.00
C202   C     0.79376   0.45583   0.26923   0.00000  Uiso   1.00
C203   C     0.84170   0.02394   0.24886   0.00000  Uiso   1.00
C204   C     0.83510   0.47600   0.24928   0.00000  Uiso   1.00
C205   C     0.79260   0.23005   0.04711   0.00000  Uiso   1.00
C206   C     0.85572   0.28533   0.45048   0.00000  Uiso   1.00
H207   H     0.75980   0.21486   0.02492   0.00000  Uiso   1.00
H208   H     0.87279   0.31376   0.47062   0.00000  Uiso   1.00
C209   C     0.79350   0.23029   0.09688   0.00000  Uiso   1.00
C210   C     0.85549   0.28458   0.40081   0.00000  Uiso   1.00
H211   H     0.76208   0.21480   0.11205   0.00000  Uiso   1.00
H212   H     0.87298   0.31187   0.38385   0.00000  Uiso   1.00
N213   N     0.83333   0.24999   0.12624   0.00000  Uiso   1.00
N214   N     0.83333   0.25001   0.37376   0.00000  Uiso   1.00
C215   C     0.87309   0.26976   0.10762   0.00000  Uiso   1.00
C216   C     0.81104   0.21548   0.39466   0.00000  Uiso   1.00
H217   H     0.90444   0.28541   0.13122   0.00000  Uiso   1.00
H218   H     0.79351   0.18823   0.37285   0.00000  Uiso   1.00
C219   C     0.87393   0.26997   0.05810   0.00000  Uiso   1.00
C220   C     0.81072   0.21475   0.44425   0.00000  Uiso   1.00
H221   H     0.90669   0.28519   0.04476   0.00000  Uiso   1.00
H222   H     0.79357   0.18633   0.45964   0.00000  Uiso   1.00
C223   C     0.83326   0.25000   0.02667   0.00000  Uiso   1.00
C224   C     0.83322   0.25002   0.47330   0.00000  Uiso   1.00
N225   N     0.98839   0.22305   0.18855   0.00000  Uiso   1.00
H226   H     0.99442   0.24298   0.15956   0.00000  Uiso   1.00
H227   H     0.67309   0.19208   0.18519   0.00000  Uiso   1.00
N228   N     0.67849   0.27505   0.31246   0.00000  Uiso   1.00
H229   H     0.67301   0.25389   0.34066   0.00000  Uiso   1.00
H230   H     0.99353   0.30558   0.31741   0.00000  Uiso   1.00
C231   C     0.92259   0.11915   0.31402   0.00000  Uiso   1.00
C232   C     0.96597   0.13338   0.28625   0.00000  Uiso   1.00
H233   H     0.94994   0.15414   0.25505   0.00000  Uiso   1.00
H234   H     0.99540   0.15334   0.30972   0.00000  Uiso   1.00
H235   H     0.98549   0.10355   0.27339   0.00000  Uiso   1.00
H236   H     0.90677   0.14898   0.33003   0.00000  Uiso   1.00
H237   H     0.93960   0.09964   0.34574   0.00000  Uiso   1.00
C238   C     0.74419   0.38434   0.28448   0.00000  Uiso   1.00
C239   C     0.70306   0.37444   0.24140   0.00000  Uiso   1.00
H240   H     0.71887   0.35107   0.21652   0.00000  Uiso   1.00
H241   H     0.66846   0.35886   0.25335   0.00000  Uiso   1.00
H242   H     0.69045   0.40585   0.22212   0.00000  Uiso   1.00
H243   H     0.75587   0.35273   0.30338   0.00000  Uiso   1.00
H244   H     0.72590   0.40373   0.31094   0.00000  Uiso   1.00
C245   C     0.92406   0.01878   0.31058   0.00000  Uiso   1.00
C246   C     0.90949   0.00657   0.35915   0.00000  Uiso   1.00
H247   H     0.89538   0.03640   0.37696   0.00000  Uiso   1.00
H248   H     0.87887   0.48047   0.35485   0.00000  Uiso   1.00
H249   H     0.94418   0.49279   0.38223   0.00000  Uiso   1.00
H250   H     0.93328   0.48761   0.29242   0.00000  Uiso   1.00
H251   H     0.96169   0.03682   0.31529   0.00000  Uiso   1.00
C252   C     0.75261   0.48436   0.28881   0.00000  Uiso   1.00
C253   C     0.76373   0.48902   0.34304   0.00000  Uiso   1.00
H254   H     0.77450   0.45640   0.36049   0.00000  Uiso   1.00
H255   H     0.79586   0.01316   0.35302   0.00000  Uiso   1.00
H256   H     0.72855   0.00219   0.35650   0.00000  Uiso   1.00
H257   H     0.74947   0.01849   0.27369   0.00000  Uiso   1.00
H258   H     0.71313   0.47036   0.27788   0.00000  Uiso   1.00
O259   O     0.16667   0.68454   0.28974   0.00000  Uiso   1.00
O260   O     0.16666   0.81547   0.21026   0.00000  Uiso   1.00
O261   O     0.16667   0.68453   0.21026   0.00000  Uiso   1.00
O262   O     0.16666   0.81547   0.28974   0.00000  Uiso   1.00
C263   C     0.16977   0.66401   0.25040   0.00000  Uiso   1.00
C264   C     0.16436   0.83601   0.24974   0.00000  Uiso   1.00
O265   O     0.09058   0.75000   0.28044   0.00000  Uiso   1.00
O266   O     0.24275   0.75000   0.21955   0.00000  Uiso   1.00
O267   O     0.09058   0.75000   0.20097   0.00000  Uiso   1.00
O268   O     0.24275   0.75001   0.29903   0.00000  Uiso   1.00
C269   C     0.06724   0.74988   0.23778   0.00000  Uiso   1.00
C270   C     0.26608   0.75004   0.26227   0.00000  Uiso   1.00
Zn271  Zn    0.16667   0.75001   0.30307   0.00000  Uiso   1.00
Zn272  Zn    0.16667   0.75000   0.19693   0.00000  Uiso   1.00
C273   C     0.01292   0.74429   0.23185   0.00000  Uiso   1.00
C274   C     0.32046   0.75509   0.26847   0.00000  Uiso   1.00
C275   C     0.14060   0.54750   0.21554   0.00000  Uiso   1.00
C276   C     0.20292   0.95086   0.22670   0.00000  Uiso   1.00
H277   H     0.11218   0.53012   0.19015   0.00000  Uiso   1.00
H278   H     0.23281   0.96691   0.20972   0.00000  Uiso   1.00
C279   C     0.14004   0.59329   0.21671   0.00000  Uiso   1.00
C280   C     0.20076   0.90512   0.22752   0.00000  Uiso   1.00
H281   H     0.11131   0.61110   0.19193   0.00000  Uiso   1.00
H282   H     0.22938   0.88599   0.21157   0.00000  Uiso   1.00
C283   C     0.17464   0.61606   0.25057   0.00000  Uiso   1.00
C284   C     0.16278   0.88400   0.24933   0.00000  Uiso   1.00
C285   C     0.21375   0.59319   0.28200   0.00000  Uiso   1.00
C286   C     0.12405   0.90848   0.26895   0.00000  Uiso   1.00
C287   C     0.21447   0.54579   0.28048   0.00000  Uiso   1.00
C288   C     0.12709   0.95583   0.26923   0.00000  Uiso   1.00
C289   C     0.17504   0.52394   0.24886   0.00000  Uiso   1.00
C290   C     0.16843   0.97600   0.24928   0.00000  Uiso   1.00
C291   C     0.12594   0.73005   0.04711   0.00000  Uiso   1.00
C292   C     0.18905   0.78533   0.45048   0.00000  Uiso   1.00
H293   H     0.09314   0.71486   0.02492   0.00000  Uiso   1.00
H294   H     0.20613   0.81376   0.47062   0.00000  Uiso   1.00
C295   C     0.12683   0.73029   0.09688   0.00000  Uiso   1.00
C296   C     0.18882   0.78458   0.40081   0.00000  Uiso   1.00
H297   H     0.09541   0.71480   0.11205   0.00000  Uiso   1.00
H298   H     0.20631   0.81187   0.38385   0.00000  Uiso   1.00
N299   N     0.16667   0.74999   0.12624   0.00000  Uiso   1.00
N300   N     0.16667   0.75001   0.37376   0.00000  Uiso   1.00
C301   C     0.20642   0.76976   0.10762   0.00000  Uiso   1.00
C302   C     0.14437   0.71548   0.39466   0.00000  Uiso   1.00
H303   H     0.23777   0.78541   0.13122   0.00000  Uiso   1.00
H304   H     0.12684   0.68823   0.37285   0.00000  Uiso   1.00
C305   C     0.20727   0.76997   0.05810   0.00000  Uiso   1.00
C306   C     0.14405   0.71475   0.44425   0.00000  Uiso   1.00
H307   H     0.24003   0.78519   0.04476   0.00000  Uiso   1.00
H308   H     0.12691   0.68633   0.45964   0.00000  Uiso   1.00
C309   C     0.16659   0.75000   0.02667   0.00000  Uiso   1.00
C310   C     0.16656   0.75002   0.47330   0.00000  Uiso   1.00
N311   N     0.32173   0.72305   0.18855   0.00000  Uiso   1.00
H312   H     0.32775   0.74298   0.15956   0.00000  Uiso   1.00
H313   H     0.00642   0.69208   0.18519   0.00000  Uiso   1.00
N314   N     0.01183   0.77505   0.31246   0.00000  Uiso   1.00
H315   H     0.00634   0.75389   0.34066   0.00000  Uiso   1.00
H316   H     0.32687   0.80558   0.31741   0.00000  Uiso   1.00
C317   C     0.25593   0.61915   0.31402   0.00000  Uiso   1.00
C318   C     0.29931   0.63338   0.28625   0.00000  Uiso   1.00
H319   H     0.28328   0.65414   0.25505   0.00000  Uiso   1.00
H320   H     0.32873   0.65334   0.30972   0.00000  Uiso   1.00
H321   H     0.31882   0.60355   0.27339   0.00000  Uiso   1.00
H322   H     0.24010   0.64898   0.33003   0.00000  Uiso   1.00
H323   H     0.27294   0.59964   0.34574   0.00000  Uiso   1.00
C324   C     0.07752   0.88434   0.28448   0.00000  Uiso   1.00
C325   C     0.03640   0.87444   0.24140   0.00000  Uiso   1.00
H326   H     0.05220   0.85107   0.21652   0.00000  Uiso   1.00
H327   H     0.00179   0.85886   0.25335   0.00000  Uiso   1.00
H328   H     0.02379   0.90585   0.22212   0.00000  Uiso   1.00
H329   H     0.08920   0.85273   0.30338   0.00000  Uiso   1.00
H330   H     0.05923   0.90373   0.31094   0.00000  Uiso   1.00
C331   C     0.25739   0.51878   0.31058   0.00000  Uiso   1.00
C332   C     0.24282   0.50657   0.35915   0.00000  Uiso   1.00
H333   H     0.22871   0.53640   0.37696   0.00000  Uiso   1.00
H334   H     0.21221   0.98047   0.35485   0.00000  Uiso   1.00
H335   H     0.27751   0.99279   0.38223   0.00000  Uiso   1.00
H336   H     0.26661   0.98761   0.29242   0.00000  Uiso   1.00
H337   H     0.29502   0.53682   0.31529   0.00000  Uiso   1.00
C338   C     0.08594   0.98436   0.28881   0.00000  Uiso   1.00
C339   C     0.09707   0.98902   0.34304   0.00000  Uiso   1.00
H340   H     0.10783   0.95640   0.36049   0.00000  Uiso   1.00
H341   H     0.12919   0.51316   0.35302   0.00000  Uiso   1.00
H342   H     0.06188   0.50219   0.35650   0.00000  Uiso   1.00
H343   H     0.08280   0.51849   0.27369   0.00000  Uiso   1.00
H344   H     0.04646   0.97036   0.27788   0.00000  Uiso   1.00
O345   O     0.50000   0.68454   0.28974   0.00000  Uiso   1.00
O346   O     0.50000   0.81547   0.21026   0.00000  Uiso   1.00
O347   O     0.50000   0.68453   0.21026   0.00000  Uiso   1.00
O348   O     0.50000   0.81547   0.28974   0.00000  Uiso   1.00
C349   C     0.50310   0.66401   0.25040   0.00000  Uiso   1.00
C350   C     0.49769   0.83601   0.24974   0.00000  Uiso   1.00
O351   O     0.42392   0.75000   0.28044   0.00000  Uiso   1.00
O352   O     0.57608   0.75000   0.21955   0.00000  Uiso   1.00
O353   O     0.42392   0.75000   0.20097   0.00000  Uiso   1.00
O354   O     0.57608   0.75001   0.29903   0.00000  Uiso   1.00
C355   C     0.40057   0.74988   0.23778   0.00000  Uiso   1.00
C356   C     0.59942   0.75004   0.26227   0.00000  Uiso   1.00
Zn357  Zn    0.50000   0.75001   0.30307   0.00000  Uiso   1.00
Zn358  Zn    0.50000   0.75000   0.19693   0.00000  Uiso   1.00
C359   C     0.34626   0.74429   0.23185   0.00000  Uiso   1.00
C360   C     0.65379   0.75509   0.26847   0.00000  Uiso   1.00
C361   C     0.47393   0.54750   0.21554   0.00000  Uiso   1.00
C362   C     0.53626   0.95086   0.22670   0.00000  Uiso   1.00
H363   H     0.44552   0.53012   0.19015   0.00000  Uiso   1.00
H364   H     0.56614   0.96691   0.20972   0.00000  Uiso   1.00
C365   C     0.47337   0.59329   0.21671   0.00000  Uiso   1.00
C366   C     0.53409   0.90512   0.22752   0.00000  Uiso   1.00
H367   H     0.44465   0.61110   0.19193   0.00000  Uiso   1.00
H368   H     0.56271   0.88599   0.21157   0.00000  Uiso   1.00
C369   C     0.50797   0.61606   0.25057   0.00000  Uiso   1.00
C370   C     0.49612   0.88400   0.24933   0.00000  Uiso   1.00
C371   C     0.54708   0.59319   0.28200   0.00000  Uiso   1.00
C372   C     0.45738   0.90848   0.26895   0.00000  Uiso   1.00
C373   C     0.54780   0.54579   0.28048   0.00000  Uiso   1.00
C374   C     0.46043   0.95583   0.26923   0.00000  Uiso   1.00
C375   C     0.50837   0.52394   0.24886   0.00000  Uiso   1.00
C376   C     0.50177   0.97600   0.24928   0.00000  Uiso   1.00
C377   C     0.45927   0.73005   0.04711   0.00000  Uiso   1.00
C378   C     0.52238   0.78533   0.45048   0.00000  Uiso   1.00
H379   H     0.42647   0.71486   0.02492   0.00000  Uiso   1.00
H380   H     0.53946   0.81376   0.47062   0.00000  Uiso   1.00
C381   C     0.46017   0.73029   0.09688   0.00000  Uiso   1.00
C382   C     0.52216   0.78458   0.40081   0.00000  Uiso   1.00
H383   H     0.42874   0.71480   0.11205   0.00000  Uiso   1.00
H384   H     0.53964   0.81187   0.38385   0.00000  Uiso   1.00
N385   N     0.50000   0.74999   0.12624   0.00000  Uiso   1.00
N386   N     0.50000   0.75001   0.37376   0.00000  Uiso   1.00
C387   C     0.53975   0.76976   0.10762   0.00000  Uiso   1.00
C388   C     0.47771   0.71548   0.39466   0.00000  Uiso   1.00
H389   H     0.57110   0.78541   0.13122   0.00000  Uiso   1.00
H390   H     0.46018   0.68823   0.37285   0.00000  Uiso   1.00
C391   C     0.54060   0.76997   0.05810   0.00000  Uiso   1.00
C392   C     0.47739   0.71475   0.44425   0.00000  Uiso   1.00
H393   H     0.57336   0.78519   0.04476   0.00000  Uiso   1.00
H394   H     0.46024   0.68633   0.45964   0.00000  Uiso   1.00
C395   C     0.49992   0.75000   0.02667   0.00000  Uiso   1.00
C396   C     0.49989   0.75002   0.47330   0.00000  Uiso   1.00
N397   N     0.65506   0.72305   0.18855   0.00000  Uiso   1.00
H398   H     0.66108   0.74298   0.15956   0.00000  Uiso   1.00
H399   H     0.33975   0.69208   0.18519   0.00000  Uiso   1.00
N400   N     0.34516   0.77505   0.31246   0.00000  Uiso   1.00
H401   H     0.33967   0.75389   0.34066   0.00000  Uiso   1.00
H402   H     0.66020   0.80558   0.31741   0.00000  Uiso   1.00
C403   C     0.58926   0.61915   0.31402   0.00000  Uiso   1.00
C404   C     0.63264   0.63338   0.28625   0.00000  Uiso   1.00
H405   H     0.61661   0.65414   0.25505   0.00000  Uiso   1.00
H406   H     0.66206   0.65334   0.30972   0.00000  Uiso   1.00
H407   H     0.65215   0.60355   0.27339   0.00000  Uiso   1.00
H408   H     0.57343   0.64898   0.33003   0.00000  Uiso   1.00
H409   H     0.60627   0.59964   0.34574   0.00000  Uiso   1.00
C410   C     0.41085   0.88434   0.28448   0.00000  Uiso   1.00
C411   C     0.36973   0.87444   0.24140   0.00000  Uiso   1.00
H412   H     0.38553   0.85107   0.21652   0.00000  Uiso   1.00
H413   H     0.33512   0.85886   0.25335   0.00000  Uiso   1.00
H414   H     0.35712   0.90585   0.22212   0.00000  Uiso   1.00
H415   H     0.42253   0.85273   0.30338   0.00000  Uiso   1.00
H416   H     0.39257   0.90373   0.31094   0.00000  Uiso   1.00
C417   C     0.59072   0.51878   0.31058   0.00000  Uiso   1.00
C418   C     0.57616   0.50657   0.35915   0.00000  Uiso   1.00
H419   H     0.56205   0.53640   0.37696   0.00000  Uiso   1.00
H420   H     0.54554   0.98047   0.35485   0.00000  Uiso   1.00
H421   H     0.61084   0.99279   0.38223   0.00000  Uiso   1.00
H422   H     0.59995   0.98761   0.29242   0.00000  Uiso   1.00
H423   H     0.62835   0.53682   0.31529   0.00000  Uiso   1.00
C424   C     0.41927   0.98436   0.28881   0.00000  Uiso   1.00
C425   C     0.43040   0.98902   0.34304   0.00000  Uiso   1.00
H426   H     0.44116   0.95640   0.36049   0.00000  Uiso   1.00
H427   H     0.46253   0.51316   0.35302   0.00000  Uiso   1.00
H428   H     0.39521   0.50219   0.35650   0.00000  Uiso   1.00
H429   H     0.41613   0.51849   0.27369   0.00000  Uiso   1.00
H430   H     0.37979   0.97036   0.27788   0.00000  Uiso   1.00
O431   O     0.83334   0.68454   0.28974   0.00000  Uiso   1.00
O432   O     0.83333   0.81547   0.21026   0.00000  Uiso   1.00
O433   O     0.83334   0.68453   0.21026   0.00000  Uiso   1.00
O434   O     0.83333   0.81547   0.28974   0.00000  Uiso   1.00
C435   C     0.83644   0.66401   0.25040   0.00000  Uiso   1.00
C436   C     0.83102   0.83601   0.24974   0.00000  Uiso   1.00
O437   O     0.75725   0.75000   0.28044   0.00000  Uiso   1.00
O438   O     0.90942   0.75000   0.21955   0.00000  Uiso   1.00
O439   O     0.75725   0.75000   0.20097   0.00000  Uiso   1.00
O440   O     0.90942   0.75001   0.29903   0.00000  Uiso   1.00
C441   C     0.73391   0.74988   0.23778   0.00000  Uiso   1.00
C442   C     0.93275   0.75004   0.26227   0.00000  Uiso   1.00
Zn443  Zn    0.83333   0.75001   0.30307   0.00000  Uiso   1.00
Zn444  Zn    0.83333   0.75000   0.19693   0.00000  Uiso   1.00
C445   C     0.67959   0.74429   0.23185   0.00000  Uiso   1.00
C446   C     0.98712   0.75509   0.26847   0.00000  Uiso   1.00
C447   C     0.80727   0.54750   0.21554   0.00000  Uiso   1.00
C448   C     0.86959   0.95086   0.22670   0.00000  Uiso   1.00
H449   H     0.77885   0.53012   0.19015   0.00000  Uiso   1.00
H450   H     0.89948   0.96691   0.20972   0.00000  Uiso   1.00
C451   C     0.80671   0.59329   0.21671   0.00000  Uiso   1.00
C452   C     0.86743   0.90512   0.22752   0.00000  Uiso   1.00
H453   H     0.77798   0.61110   0.19193   0.00000  Uiso   1.00
H454   H     0.89604   0.88599   0.21157   0.00000  Uiso   1.00
C455   C     0.84130   0.61606   0.25057   0.00000  Uiso   1.00
C456   C     0.82945   0.88400   0.24933   0.00000  Uiso   1.00
C457   C     0.88042   0.59319   0.28200   0.00000  Uiso   1.00
C458   C     0.79071   0.90848   0.26895   0.00000  Uiso   1.00
C459   C     0.88114   0.54579   0.28048   0.00000  Uiso   1.00
C460   C     0.79376   0.95583   0.26923   0.00000  Uiso   1.00
C461   C     0.84170   0.52394   0.24886   0.00000  Uiso   1.00
C462   C     0.83510   0.97600   0.24928   0.00000  Uiso   1.00
C463   C     0.79260   0.73005   0.04711   0.00000  Uiso   1.00
C464   C     0.85572   0.78533   0.45048   0.00000  Uiso   1.00
H465   H     0.75980   0.71486   0.02492   0.00000  Uiso   1.00
H466   H     0.87279   0.81376   0.47062   0.00000  Uiso   1.00
C467   C     0.79350   0.73029   0.09688   0.00000  Uiso   1.00
C468   C     0.85549   0.78458   0.40081   0.00000  Uiso   1.00
H469   H     0.76208   0.71480   0.11205   0.00000  Uiso   1.00
H470   H     0.87298   0.81187   0.38385   0.00000  Uiso   1.00
N471   N     0.83333   0.74999   0.12624   0.00000  Uiso   1.00
N472   N     0.83333   0.75001   0.37376   0.00000  Uiso   1.00
C473   C     0.87309   0.76976   0.10762   0.00000  Uiso   1.00
C474   C     0.81104   0.71548   0.39466   0.00000  Uiso   1.00
H475   H     0.90444   0.78541   0.13122   0.00000  Uiso   1.00
H476   H     0.79351   0.68823   0.37285   0.00000  Uiso   1.00
C477   C     0.87393   0.76997   0.05810   0.00000  Uiso   1.00
C478   C     0.81072   0.71475   0.44425   0.00000  Uiso   1.00
H479   H     0.90669   0.78519   0.04476   0.00000  Uiso   1.00
H480   H     0.79357   0.68633   0.45964   0.00000  Uiso   1.00
C481   C     0.83326   0.75000   0.02667   0.00000  Uiso   1.00
C482   C     0.83322   0.75002   0.47330   0.00000  Uiso   1.00
N483   N     0.98839   0.72305   0.18855   0.00000  Uiso   1.00
H484   H     0.99442   0.74298   0.15956   0.00000  Uiso   1.00
H485   H     0.67309   0.69208   0.18519   0.00000  Uiso   1.00
N486   N     0.67849   0.77505   0.31246   0.00000  Uiso   1.00
H487   H     0.67301   0.75389   0.34066   0.00000  Uiso   1.00
H488   H     0.99353   0.80558   0.31741   0.00000  Uiso   1.00
C489   C     0.92259   0.61915   0.31402   0.00000  Uiso   1.00
C490   C     0.96597   0.63338   0.28625   0.00000  Uiso   1.00
H491   H     0.94994   0.65414   0.25505   0.00000  Uiso   1.00
H492   H     0.99540   0.65334   0.30972   0.00000  Uiso   1.00
H493   H     0.98549   0.60355   0.27339   0.00000  Uiso   1.00
H494   H     0.90677   0.64898   0.33003   0.00000  Uiso   1.00
H495   H     0.93960   0.59964   0.34574   0.00000  Uiso   1.00
C496   C     0.74419   0.88434   0.28448   0.00000  Uiso   1.00
C497   C     0.70306   0.87444   0.24140   0.00000  Uiso   1.00
H498   H     0.71887   0.85107   0.21652   0.00000  Uiso   1.00
H499   H     0.66846   0.85886   0.25335   0.00000  Uiso   1.00
H500   H     0.69045   0.90585   0.22212   0.00000  Uiso   1.00
H501   H     0.75587   0.85273   0.30338   0.00000  Uiso   1.00
H502   H     0.72590   0.90373   0.31094   0.00000  Uiso   1.00
C503   C     0.92406   0.51878   0.31058   0.00000  Uiso   1.00
C504   C     0.90949   0.50657   0.35915   0.00000  Uiso   1.00
H505   H     0.89538   0.53640   0.37696   0.00000  Uiso   1.00
H506   H     0.87887   0.98047   0.35485   0.00000  Uiso   1.00
H507   H     0.94418   0.99279   0.38223   0.00000  Uiso   1.00
H508   H     0.93328   0.98761   0.29242   0.00000  Uiso   1.00
H509   H     0.96169   0.53682   0.31529   0.00000  Uiso   1.00
C510   C     0.75261   0.98436   0.28881   0.00000  Uiso   1.00
C511   C     0.76373   0.98902   0.34304   0.00000  Uiso   1.00
H512   H     0.77450   0.95640   0.36049   0.00000  Uiso   1.00
H513   H     0.79586   0.51316   0.35302   0.00000  Uiso   1.00
H514   H     0.72855   0.50219   0.35650   0.00000  Uiso   1.00
H515   H     0.74947   0.51849   0.27369   0.00000  Uiso   1.00
H516   H     0.71313   0.97036   0.27788   0.00000  Uiso   1.00
O517   O     0.16667   0.18454   0.78974   0.00000  Uiso   1.00
O518   O     0.16666   0.31547   0.71026   0.00000  Uiso   1.00
O519   O     0.16667   0.18453   0.71026   0.00000  Uiso   1.00
O520   O     0.16666   0.31547   0.78974   0.00000  Uiso   1.00
C521   C     0.16977   0.16401   0.75040   0.00000  Uiso   1.00
C522   C     0.16436   0.33601   0.74974   0.00000  Uiso   1.00
O523   O     0.09058   0.25000   0.78044   0.00000  Uiso   1.00
O524   O     0.24275   0.25000   0.71955   0.00000  Uiso   1.00
O525   O     0.09058   0.25000   0.70097   0.00000  Uiso   1.00
O526   O     0.24275   0.25001   0.79903   0.00000  Uiso   1.00
C527   C     0.06724   0.24988   0.73778   0.00000  Uiso   1.00
C528   C     0.26608   0.25004   0.76227   0.00000  Uiso   1.00
Zn529  Zn    0.16667   0.25001   0.80307   0.00000  Uiso   1.00
Zn530  Zn    0.16667   0.25000   0.69693   0.00000  Uiso   1.00
C531   C     0.01292   0.24429   0.73185   0.00000  Uiso   1.00
C532   C     0.32046   0.25509   0.76847   0.00000  Uiso   1.00
C533   C     0.14060   0.04750   0.71554   0.00000  Uiso   1.00
C534   C     0.20292   0.45086   0.72670   0.00000  Uiso   1.00
H535   H     0.11218   0.03012   0.69015   0.00000  Uiso   1.00
H536   H     0.23281   0.46691   0.70972   0.00000  Uiso   1.00
C537   C     0.14004   0.09329   0.71671   0.00000  Uiso   1.00
C538   C     0.20076   0.40512   0.72752   0.00000  Uiso   1.00
H539   H     0.11131   0.11110   0.69193   0.00000  Uiso   1.00
H540   H     0.22938   0.38599   0.71157   0.00000  Uiso   1.00
C541   C     0.17464   0.11606   0.75057   0.00000  Uiso   1.00
C542   C     0.16278   0.38400   0.74933   0.00000  Uiso   1.00
C543   C     0.21375   0.09319   0.78200   0.00000  Uiso   1.00
C544   C     0.12405   0.40848   0.76895   0.00000  Uiso   1.00
C545   C     0.21447   0.04579   0.78048   0.00000  Uiso   1.00
C546   C     0.12709   0.45583   0.76923   0.00000  Uiso   1.00
C547   C     0.17504   0.02394   0.74886   0.00000  Uiso   1.00
C548   C     0.16843   0.47600   0.74928   0.00000  Uiso   1.00
C549   C     0.12594   0.23005   0.54711   0.00000  Uiso   1.00
C550   C     0.18905   0.28533   0.95048   0.00000  Uiso   1.00
H551   H     0.09314   0.21486   0.52492   0.00000  Uiso   1.00
H552   H     0.20613   0.31376   0.97062   0.00000  Uiso   1.00
C553   C     0.12683   0.23029   0.59688   0.00000  Uiso   1.00
C554   C     0.18882   0.28458   0.90081   0.00000  Uiso   1.00
H555   H     0.09541   0.21480   0.61205   0.00000  Uiso   1.00
H556   H     0.20631   0.31187   0.88385   0.00000  Uiso   1.00
N557   N     0.16667   0.24999   0.62624   0.00000  Uiso   1.00
N558   N     0.16667   0.25001   0.87376   0.00000  Uiso   1.00
C559   C     0.20642   0.26976   0.60762   0.00000  Uiso   1.00
C560   C     0.14437   0.21548   0.89466   0.00000  Uiso   1.00
H561   H     0.23777   0.28541   0.63122   0.00000  Uiso   1.00
H562   H     0.12684   0.18823   0.87285   0.00000  Uiso   1.00
C563   C     0.20727   0.26997   0.55810   0.00000  Uiso   1.00
C564   C     0.14405   0.21475   0.94425   0.00000  Uiso   1.00
H565   H     0.24003   0.28519   0.54476   0.00000  Uiso   1.00
H566   H     0.12691   0.18633   0.95964   0.00000  Uiso   1.00
C567   C     0.16659   0.25000   0.52667   0.00000  Uiso   1.00
C568   C     0.16656   0.25002   0.97330   0.00000  Uiso   1.00
N569   N     0.32173   0.22305   0.68855   0.00000  Uiso   1.00
H570   H     0.32775   0.24298   0.65956   0.00000  Uiso   1.00
H571   H     0.00642   0.19208   0.68519   0.00000  Uiso   1.00
N572   N     0.01183   0.27505   0.81246   0.00000  Uiso   1.00
H573   H     0.00634   0.25389   0.84066   0.00000  Uiso   1.00
H574   H     0.32687   0.30558   0.81741   0.00000  Uiso   1.00
C575   C     0.25593   0.11915   0.81402   0.00000  Uiso   1.00
C576   C     0.29931   0.13338   0.78625   0.00000  Uiso   1.00
H577   H     0.28328   0.15414   0.75505   0.00000  Uiso   1.00
H578   H     0.32873   0.15334   0.80972   0.00000  Uiso   1.00
H579   H     0.31882   0.10355   0.77339   0.00000  Uiso   1.00
H580   H     0.24010   0.14898   0.83003   0.00000  Uiso   1.00
H581   H     0.27294   0.09964   0.84574   0.00000  Uiso   1.00
C582   C     0.07752   0.38434   0.78448   0.00000  Uiso   1.00
C583   C     0.03640   0.37444   0.74140   0.00000  Uiso   1.00
H584   H     0.05220   0.35107   0.71652   0.00000  Uiso   1.00
H585   H     0.00179   0.35886   0.75335   0.00000  Uiso   1.00
H586   H     0.02379   0.40585   0.72212   0.00000  Uiso   1.00
H587   H     0.08920   0.35273   0.80338   0.00000  Uiso   1.00
H588   H     0.05923   0.40373   0.81094   0.00000  Uiso   1.00
C589   C     0.25739   0.01878   0.81058   0.00000  Uiso   1.00
C590   C     0.24282   0.00657   0.85915   0.00000  Uiso   1.00
H591   H     0.22871   0.03640   0.87696   0.00000  Uiso   1.00
H592   H     0.21221   0.48047   0.85485   0.00000  Uiso   1.00
H593   H     0.27751   0.49279   0.88223   0.00000  Uiso   1.00
H594   H     0.26661   0.48761   0.79242   0.00000  Uiso   1.00
H595   H     0.29502   0.03682   0.81529   0.00000  Uiso   1.00
C596   C     0.08594   0.48436   0.78881   0.00000  Uiso   1.00
C597   C     0.09707   0.48902   0.84304   0.00000  Uiso   1.00
H598   H     0.10783   0.45640   0.86049   0.00000  Uiso   1.00
H599   H     0.12919   0.01316   0.85302   0.00000  Uiso   1.00
H600   H     0.06188   0.00219   0.85650   0.00000  Uiso   1.00
H601   H     0.08280   0.01849   0.77369   0.00000  Uiso   1.00
H602   H     0.04646   0.47036   0.77788   0.00000  Uiso   1.00
O603   O     0.50000   0.18454   0.78974   0.00000  Uiso   1.00
O604   O     0.50000   0.31547   0.71026   0.00000  Uiso   1.00
O605   O     0.50000   0.18453   0.71026   0.00000  Uiso   1.00
O606   O     0.50000   0.31547   0.78974   0.00000  Uiso   1.00
C607   C     0.50310   0.16401   0.75040   0.00000  Uiso   1.00
C608   C     0.49769   0.33601   0.74974   0.00000  Uiso   1.00
O609   O     0.42392   0.25000   0.78044   0.00000  Uiso   1.00
O610   O     0.57608   0.25000   0.71955   0.00000  Uiso   1.00
O611   O     0.42392   0.25000   0.70097   0.00000  Uiso   1.00
O612   O     0.57608   0.25001   0.79903   0.00000  Uiso   1.00
C613   C     0.40057   0.24988   0.73778   0.00000  Uiso   1.00
C614   C     0.59942   0.25004   0.76227   0.00000  Uiso   1.00
Zn615  Zn    0.50000   0.25001   0.80307   0.00000  Uiso   1.00
Zn616  Zn    0.50000   0.25000   0.69693   0.00000  Uiso   1.00
C617   C     0.34626   0.24429   0.73185   0.00000  Uiso   1.00
C618   C     0.65379   0.25509   0.76847   0.00000  Uiso   1.00
C619   C     0.47393   0.04750   0.71554   0.00000  Uiso   1.00
C620   C     0.53626   0.45086   0.72670   0.00000  Uiso   1.00
H621   H     0.44552   0.03012   0.69015   0.00000  Uiso   1.00
H622   H     0.56614   0.46691   0.70972   0.00000  Uiso   1.00
C623   C     0.47337   0.09329   0.71671   0.00000  Uiso   1.00
C624   C     0.53409   0.40512   0.72752   0.00000  Uiso   1.00
H625   H     0.44465   0.11110   0.69193   0.00000  Uiso   1.00
H626   H     0.56271   0.38599   0.71157   0.00000  Uiso   1.00
C627   C     0.50797   0.11606   0.75057   0.00000  Uiso   1.00
C628   C     0.49612   0.38400   0.74933   0.00000  Uiso   1.00
C629   C     0.54708   0.09319   0.78200   0.00000  Uiso   1.00
C630   C     0.45738   0.40848   0.76895   0.00000  Uiso   1.00
C631   C     0.54780   0.04579   0.78048   0.00000  Uiso   1.00
C632   C     0.46043   0.45583   0.76923   0.00000  Uiso   1.00
C633   C     0.50837   0.02394   0.74886   0.00000  Uiso   1.00
C634   C     0.50177   0.47600   0.74928   0.00000  Uiso   1.00
C635   C     0.45927   0.23005   0.54711   0.00000  Uiso   1.00
C636   C     0.52238   0.28533   0.95048   0.00000  Uiso   1.00
H637   H     0.42647   0.21486   0.52492   0.00000  Uiso   1.00
H638   H     0.53946   0.31376   0.97062   0.00000  Uiso   1.00
C639   C     0.46017   0.23029   0.59688   0.00000  Uiso   1.00
C640   C     0.52216   0.28458   0.90081   0.00000  Uiso   1.00
H641   H     0.42874   0.21480   0.61205   0.00000  Uiso   1.00
H642   H     0.53964   0.31187   0.88385   0.00000  Uiso   1.00
N643   N     0.50000   0.24999   0.62624   0.00000  Uiso   1.00
N644   N     0.50000   0.25001   0.87376   0.00000  Uiso   1.00
C645   C     0.53975   0.26976   0.60762   0.00000  Uiso   1.00
C646   C     0.47771   0.21548   0.89466   0.00000  Uiso   1.00
H647   H     0.57110   0.28541   0.63122   0.00000  Uiso   1.00
H648   H     0.46018   0.18823   0.87285   0.00000  Uiso   1.00
C649   C     0.54060   0.26997   0.55810   0.00000  Uiso   1.00
C650   C     0.47739   0.21475   0.94425   0.00000  Uiso   1.00
H651   H     0.57336   0.28519   0.54476   0.00000  Uiso   1.00
H652   H     0.46024   0.18633   0.95964   0.00000  Uiso   1.00
C653   C     0.49992   0.25000   0.52667   0.00000  Uiso   1.00
C654   C     0.49989   0.25002   0.97330   0.00000  Uiso   1.00
N655   N     0.65506   0.22305   0.68855   0.00000  Uiso   1.00
H656   H     0.66108   0.24298   0.65956   0.00000  Uiso   1.00
H657   H     0.33975   0.19208   0.68519   0.00000  Uiso   1.00
N658   N     0.34516   0.27505   0.81246   0.00000  Uiso   1.00
H659   H     0.33967   0.25389   0.84066   0.00000  Uiso   1.00
H660   H     0.66020   0.30558   0.81741   0.00000  Uiso   1.00
C661   C     0.58926   0.11915   0.81402   0.00000  Uiso   1.00
C662   C     0.63264   0.13338   0.78625   0.00000  Uiso   1.00
H663   H     0.61661   0.15414   0.75505   0.00000  Uiso   1.00
H664   H     0.66206   0.15334   0.80972   0.00000  Uiso   1.00
H665   H     0.65215   0.10355   0.77339   0.00000  Uiso   1.00
H666   H     0.57343   0.14898   0.83003   0.00000  Uiso   1.00
H667   H     0.60627   0.09964   0.84574   0.00000  Uiso   1.00
C668   C     0.41085   0.38434   0.78448   0.00000  Uiso   1.00
C669   C     0.36973   0.37444   0.74140   0.00000  Uiso   1.00
H670   H     0.38553   0.35107   0.71652   0.00000  Uiso   1.00
H671   H     0.33512   0.35886   0.75335   0.00000  Uiso   1.00
H672   H     0.35712   0.40585   0.72212   0.00000  Uiso   1.00
H673   H     0.42253   0.35273   0.80338   0.00000  Uiso   1.00
H674   H     0.39257   0.40373   0.81094   0.00000  Uiso   1.00
C675   C     0.59072   0.01878   0.81058   0.00000  Uiso   1.00
C676   C     0.57616   0.00657   0.85915   0.00000  Uiso   1.00
H677   H     0.56205   0.03640   0.87696   0.00000  Uiso   1.00
H678   H     0.54554   0.48047   0.85485   0.00000  Uiso   1.00
H679   H     0.61084   0.49279   0.88223   0.00000  Uiso   1.00
H680   H     0.59995   0.48761   0.79242   0.00000  Uiso   1.00
H681   H     0.62835   0.03682   0.81529   0.00000  Uiso   1.00
C682   C     0.41927   0.48436   0.78881   0.00000  Uiso   1.00
C683   C     0.43040   0.48902   0.84304   0.00000  Uiso   1.00
H684   H     0.44116   0.45640   0.86049   0.00000  Uiso   1.00
H685   H     0.46253   0.01316   0.85302   0.00000  Uiso   1.00
H686   H     0.39521   0.00219   0.85650   0.00000  Uiso   1.00
H687   H     0.41613   0.01849   0.77369   0.00000  Uiso   1.00
H688   H     0.37979   0.47036   0.77788   0.00000  Uiso   1.00
O689   O     0.83334   0.18454   0.78974   0.00000  Uiso   1.00
O690   O     0.83333   0.31547   0.71026   0.00000  Uiso   1.00
O691   O     0.83334   0.18453   0.71026   0.00000  Uiso   1.00
O692   O     0.83333   0.31547   0.78974   0.00000  Uiso   1.00
C693   C     0.83644   0.16401   0.75040   0.00000  Uiso   1.00
C694   C     0.83102   0.33601   0.74974   0.00000  Uiso   1.00
O695   O     0.75725   0.25000   0.78044   0.00000  Uiso   1.00
O696   O     0.90942   0.25000   0.71955   0.00000  Uiso   1.00
O697   O     0.75725   0.25000   0.70097   0.00000  Uiso   1.00
O698   O     0.90942   0.25001   0.79903   0.00000  Uiso   1.00
C699   C     0.73391   0.24988   0.73778   0.00000  Uiso   1.00
C700   C     0.93275   0.25004   0.76227   0.00000  Uiso   1.00
Zn701  Zn    0.83333   0.25001   0.80307   0.00000  Uiso   1.00
Zn702  Zn    0.83333   0.25000   0.69693   0.00000  Uiso   1.00
C703   C     0.67959   0.24429   0.73185   0.00000  Uiso   1.00
C704   C     0.98712   0.25509   0.76847   0.00000  Uiso   1.00
C705   C     0.80727   0.04750   0.71554   0.00000  Uiso   1.00
C706   C     0.86959   0.45086   0.72670   0.00000  Uiso   1.00
H707   H     0.77885   0.03012   0.69015   0.00000  Uiso   1.00
H708   H     0.89948   0.46691   0.70972   0.00000  Uiso   1.00
C709   C     0.80671   0.09329   0.71671   0.00000  Uiso   1.00
C710   C     0.86743   0.40512   0.72752   0.00000  Uiso   1.00
H711   H     0.77798   0.11110   0.69193   0.00000  Uiso   1.00
H712   H     0.89604   0.38599   0.71157   0.00000  Uiso   1.00
C713   C     0.84130   0.11606   0.75057   0.00000  Uiso   1.00
C714   C     0.82945   0.38400   0.74933   0.00000  Uiso   1.00
C715   C     0.88042   0.09319   0.78200   0.00000  Uiso   1.00
C716   C     0.79071   0.40848   0.76895   0.00000  Uiso   1.00
C717   C     0.88114   0.04579   0.78048   0.00000  Uiso   1.00
C718   C     0.79376   0.45583   0.76923   0.00000  Uiso   1.00
C719   C     0.84170   0.02394   0.74886   0.00000  Uiso   1.00
C720   C     0.83510   0.47600   0.74928   0.00000  Uiso   1.00
C721   C     0.79260   0.23005   0.54711   0.00000  Uiso   1.00
C722   C     0.85572   0.28533   0.95048   0.00000  Uiso   1.00
H723   H     0.75980   0.21486   0.52492   0.00000  Uiso   1.00
H724   H     0.87279   0.31376   0.97062   0.00000  Uiso   1.00
C725   C     0.79350   0.23029   0.59688   0.00000  Uiso   1.00
C726   C     0.85549   0.28458   0.90081   0.00000  Uiso   1.00
H727   H     0.76208   0.21480   0.61205   0.00000  Uiso   1.00
H728   H     0.87298   0.31187   0.88385   0.00000  Uiso   1.00
N729   N     0.83333   0.24999   0.62624   0.00000  Uiso   1.00
N730   N     0.83333   0.25001   0.87376   0.00000  Uiso   1.00
C731   C     0.87309   0.26976   0.60762   0.00000  Uiso   1.00
C732   C     0.81104   0.21548   0.89466   0.00000  Uiso   1.00
H733   H     0.90444   0.28541   0.63122   0.00000  Uiso   1.00
H734   H     0.79351   0.18823   0.87285   0.00000  Uiso   1.00
C735   C     0.87393   0.26997   0.55810   0.00000  Uiso   1.00
C736   C     0.81072   0.21475   0.94425   0.00000  Uiso   1.00
H737   H     0.90669   0.28519   0.54476   0.00000  Uiso   1.00
H738   H     0.79357   0.18633   0.95964   0.00000  Uiso   1.00
C739   C     0.83326   0.25000   0.52667   0.00000  Uiso   1.00
C740   C     0.83322   0.25002   0.97330   0.00000  Uiso   1.00
N741   N     0.98839   0.22305   0.68855   0.00000  Uiso   1.00
H742   H     0.99442   0.24298   0.65956   0.00000  Uiso   1.00
H743   H     0.67309   0.19208   0.68519   0.00000  Uiso   1.00
N744   N     0.67849   0.27505   0.81246   0.00000  Uiso   1.00
H745   H     0.67301   0.25389   0.84066   0.00000  Uiso   1.00
H746   H     0.99353   0.30558   0.81741   0.00000  Uiso   1.00
C747   C     0.92259   0.11915   0.81402   0.00000  Uiso   1.00
C748   C     0.96597   0.13338   0.78625   0.00000  Uiso   1.00
H749   H     0.94994   0.15414   0.75505   0.00000  Uiso   1.00
H750   H     0.99540   0.15334   0.80972   0.00000  Uiso   1.00
H751   H     0.98549   0.10355   0.77339   0.00000  Uiso   1.00
H752   H     0.90677   0.14898   0.83003   0.00000  Uiso   1.00
H753   H     0.93960   0.09964   0.84574   0.00000  Uiso   1.00
C754   C     0.74419   0.38434   0.78448   0.00000  Uiso   1.00
C755   C     0.70306   0.37444   0.74140   0.00000  Uiso   1.00
H756   H     0.71887   0.35107   0.71652   0.00000  Uiso   1.00
H757   H     0.66846   0.35886   0.75335   0.00000  Uiso   1.00
H758   H     0.69045   0.40585   0.72212   0.00000  Uiso   1.00
H759   H     0.75587   0.35273   0.80338   0.00000  Uiso   1.00
H760   H     0.72590   0.40373   0.81094   0.00000  Uiso   1.00
C761   C     0.92406   0.01878   0.81058   0.00000  Uiso   1.00
C762   C     0.90949   0.00657   0.85915   0.00000  Uiso   1.00
H763   H     0.89538   0.03640   0.87696   0.00000  Uiso   1.00
H764   H     0.87887   0.48047   0.85485   0.00000  Uiso   1.00
H765   H     0.94418   0.49279   0.88223   0.00000  Uiso   1.00
H766   H     0.93328   0.48761   0.79242   0.00000  Uiso   1.00
H767   H     0.96169   0.03682   0.81529   0.00000  Uiso   1.00
C768   C     0.75261   0.48436   0.78881   0.00000  Uiso   1.00
C769   C     0.76373   0.48902   0.84304   0.00000  Uiso   1.00
H770   H     0.77450   0.45640   0.86049   0.00000  Uiso   1.00
H771   H     0.79586   0.01316   0.85302   0.00000  Uiso   1.00
H772   H     0.72855   0.00219   0.85650   0.00000  Uiso   1.00
H773   H     0.74947   0.01849   0.77369   0.00000  Uiso   1.00
H774   H     0.71313   0.47036   0.77788   0.00000  Uiso   1.00
O775   O     0.16667   0.68454   0.78974   0.00000  Uiso   1.00
O776   O     0.16666   0.81547   0.71026   0.00000  Uiso   1.00
O777   O     0.16667   0.68453   0.71026   0.00000  Uiso   1.00
O778   O     0.16666   0.81547   0.78974   0.00000  Uiso   1.00
C779   C     0.16977   0.66401   0.75040   0.00000  Uiso   1.00
C780   C     0.16436   0.83601   0.74974   0.00000  Uiso   1.00
O781   O     0.09058   0.75000   0.78044   0.00000  Uiso   1.00
O782   O     0.24275   0.75000   0.71955   0.00000  Uiso   1.00
O783   O     0.09058   0.75000   0.70097   0.00000  Uiso   1.00
O784   O     0.24275   0.75001   0.79903   0.00000  Uiso   1.00
C785   C     0.06724   0.74988   0.73778   0.00000  Uiso   1.00
C786   C     0.26608   0.75004   0.76227   0.00000  Uiso   1.00
Zn787  Zn    0.16667   0.75001   0.80307   0.00000  Uiso   1.00
Zn788  Zn    0.16667   0.75000   0.69693   0.00000  Uiso   1.00
C789   C     0.01292   0.74429   0.73185   0.00000  Uiso   1.00
C790   C     0.32046   0.75509   0.76847   0.00000  Uiso   1.00
C791   C     0.14060   0.54750   0.71554   0.00000  Uiso   1.00
C792   C     0.20292   0.95086   0.72670   0.00000  Uiso   1.00
H793   H     0.11218   0.53012   0.69015   0.00000  Uiso   1.00
H794   H     0.23281   0.96691   0.70972   0.00000  Uiso   1.00
C795   C     0.14004   0.59329   0.71671   0.00000  Uiso   1.00
C796   C     0.20076   0.90512   0.72752   0.00000  Uiso   1.00
H797   H     0.11131   0.61110   0.69193   0.00000  Uiso   1.00
H798   H     0.22938   0.88599   0.71157   0.00000  Uiso   1.00
C799   C     0.17464   0.61606   0.75057   0.00000  Uiso   1.00
C800   C     0.16278   0.88400   0.74933   0.00000  Uiso   1.00
C801   C     0.21375   0.59319   0.78200   0.00000  Uiso   1.00
C802   C     0.12405   0.90848   0.76895   0.00000  Uiso   1.00
C803   C     0.21447   0.54579   0.78048   0.00000  Uiso   1.00
C804   C     0.12709   0.95583   0.76923   0.00000  Uiso   1.00
C805   C     0.17504   0.52394   0.74886   0.00000  Uiso   1.00
C806   C     0.16843   0.97600   0.74928   0.00000  Uiso   1.00
C807   C     0.12594   0.73005   0.54711   0.00000  Uiso   1.00
C808   C     0.18905   0.78533   0.95048   0.00000  Uiso   1.00
H809   H     0.09314   0.71486   0.52492   0.00000  Uiso   1.00
H810   H     0.20613   0.81376   0.97062   0.00000  Uiso   1.00
C811   C     0.12683   0.73029   0.59688   0.00000  Uiso   1.00
C812   C     0.18882   0.78458   0.90081   0.00000  Uiso   1.00
H813   H     0.09541   0.71480   0.61205   0.00000  Uiso   1.00
H814   H     0.20631   0.81187   0.88385   0.00000  Uiso   1.00
N815   N     0.16667   0.74999   0.62624   0.00000  Uiso   1.00
N816   N     0.16667   0.75001   0.87376   0.00000  Uiso   1.00
C817   C     0.20642   0.76976   0.60762   0.00000  Uiso   1.00
C818   C     0.14437   0.71548   0.89466   0.00000  Uiso   1.00
H819   H     0.23777   0.78541   0.63122   0.00000  Uiso   1.00
H820   H     0.12684   0.68823   0.87285   0.00000  Uiso   1.00
C821   C     0.20727   0.76997   0.55810   0.00000  Uiso   1.00
C822   C     0.14405   0.71475   0.94425   0.00000  Uiso   1.00
H823   H     0.24003   0.78519   0.54476   0.00000  Uiso   1.00
H824   H     0.12691   0.68633   0.95964   0.00000  Uiso   1.00
C825   C     0.16659   0.75000   0.52667   0.00000  Uiso   1.00
C826   C     0.16656   0.75002   0.97330   0.00000  Uiso   1.00
N827   N     0.32173   0.72305   0.68855   0.00000  Uiso   1.00
H828   H     0.32775   0.74298   0.65956   0.00000  Uiso   1.00
H829   H     0.00642   0.69208   0.68519   0.00000  Uiso   1.00
N830   N     0.01183   0.77505   0.81246   0.00000  Uiso   1.00
H831   H     0.00634   0.75389   0.84066   0.00000  Uiso   1.00
H832   H     0.32687   0.80558   0.81741   0.00000  Uiso   1.00
C833   C     0.25593   0.61915   0.81402   0.00000  Uiso   1.00
C834   C     0.29931   0.63338   0.78625   0.00000  Uiso   1.00
H835   H     0.28328   0.65414   0.75505   0.00000  Uiso   1.00
H836   H     0.32873   0.65334   0.80972   0.00000  Uiso   1.00
H837   H     0.31882   0.60355   0.77339   0.00000  Uiso   1.00
H838   H     0.24010   0.64898   0.83003   0.00000  Uiso   1.00
H839   H     0.27294   0.59964   0.84574   0.00000  Uiso   1.00
C840   C     0.07752   0.88434   0.78448   0.00000  Uiso   1.00
C841   C     0.03640   0.87444   0.74140   0.00000  Uiso   1.00
H842   H     0.05220   0.85107   0.71652   0.00000  Uiso   1.00
H843   H     0.00179   0.85886   0.75335   0.00000  Uiso   1.00
H844   H     0.02379   0.90585   0.72212   0.00000  Uiso   1.00
H845   H     0.08920   0.85273   0.80338   0.00000  Uiso   1.00
H846   H     0.05923   0.90373   0.81094   0.00000  Uiso   1.00
C847   C     0.25739   0.51878   0.81058   0.00000  Uiso   1.00
C848   C     0.24282   0.50657   0.85915   0.00000  Uiso   1.00
H849   H     0.22871   0.53640   0.87696   0.00000  Uiso   1.00
H850   H     0.21221   0.98047   0.85485   0.00000  Uiso   1.00
H851   H     0.27751   0.99279   0.88223   0.00000  Uiso   1.00
H852   H     0.26661   0.98761   0.79242   0.00000  Uiso   1.00
H853   H     0.29502   0.53682   0.81529   0.00000  Uiso   1.00
C854   C     0.08594   0.98436   0.78881   0.00000  Uiso   1.00
C855   C     0.09707   0.98902   0.84304   0.00000  Uiso   1.00
H856   H     0.10783   0.95640   0.86049   0.00000  Uiso   1.00
H857   H     0.12919   0.51316   0.85302   0.00000  Uiso   1.00
H858   H     0.06188   0.50219   0.85650   0.00000  Uiso   1.00
H859   H     0.08280   0.51849   0.77369   0.00000  Uiso   1.00
H860   H     0.04646   0.97036   0.77788   0.00000  Uiso   1.00
O861   O     0.50000   0.68454   0.78974   0.00000  Uiso   1.00
O862   O     0.50000   0.81547   0.71026   0.00000  Uiso   1.00
O863   O     0.50000   0.68453   0.71026   0.00000  Uiso   1.00
O864   O     0.50000   0.81547   0.78974   0.00000  Uiso   1.00
C865   C     0.50310   0.66401   0.75040   0.00000  Uiso   1.00
C866   C     0.49769   0.83601   0.74974   0.00000  Uiso   1.00
O867   O     0.42392   0.75000   0.78044   0.00000  Uiso   1.00
O868   O     0.57608   0.75000   0.71955   0.00000  Uiso   1.00
O869   O     0.42392   0.75000   0.70097   0.00000  Uiso   1.00
O870   O     0.57608   0.75001   0.79903   0.00000  Uiso   1.00
C871   C     0.40057   0.74988   0.73778   0.00000  Uiso   1.00
C872   C     0.59942   0.75004   0.76227   0.00000  Uiso   1.00
Zn873  Zn    0.50000   0.75001   0.80307   0.00000  Uiso   1.00
Zn874  Zn    0.50000   0.75000   0.69693   0.00000  Uiso   1.00
C875   C     0.34626   0.74429   0.73185   0.00000  Uiso   1.00
C876   C     0.65379   0.75509   0.76847   0.00000  Uiso   1.00
C877   C     0.47393   0.54750   0.71554   0.00000  Uiso   1.00
C878   C     0.53626   0.95086   0.72670   0.00000  Uiso   1.00
H879   H     0.44552   0.53012   0.69015   0.00000  Uiso   1.00
H880   H     0.56614   0.96691   0.70972   0.00000  Uiso   1.00
C881   C     0.47337   0.59329   0.71671   0.00000  Uiso   1.00
C882   C     0.53409   0.90512   0.72752   0.00000  Uiso   1.00
H883   H     0.44465   0.61110   0.69193   0.00000  Uiso   1.00
H884   H     0.56271   0.88599   0.71157   0.00000  Uiso   1.00
C885   C     0.50797   0.61606   0.75057   0.00000  Uiso   1.00
C886   C     0.49612   0.88400   0.74933   0.00000  Uiso   1.00
C887   C     0.54708   0.59319   0.78200   0.00000  Uiso   1.00
C888   C     0.45738   0.90848   0.76895   0.00000  Uiso   1.00
C889   C     0.54780   0.54579   0.78048   0.00000  Uiso   1.00
C890   C     0.46043   0.95583   0.76923   0.00000  Uiso   1.00
C891   C     0.50837   0.52394   0.74886   0.00000  Uiso   1.00
C892   C     0.50177   0.97600   0.74928   0.00000  Uiso   1.00
C893   C     0.45927   0.73005   0.54711   0.00000  Uiso   1.00
C894   C     0.52238   0.78533   0.95048   0.00000  Uiso   1.00
H895   H     0.42647   0.71486   0.52492   0.00000  Uiso   1.00
H896   H     0.53946   0.81376   0.97062   0.00000  Uiso   1.00
C897   C     0.46017   0.73029   0.59688   0.00000  Uiso   1.00
C898   C     0.52216   0.78458   0.90081   0.00000  Uiso   1.00
H899   H     0.42874   0.71480   0.61205   0.00000  Uiso   1.00
H900   H     0.53964   0.81187   0.88385   0.00000  Uiso   1.00
N901   N     0.50000   0.74999   0.62624   0.00000  Uiso   1.00
N902   N     0.50000   0.75001   0.87376   0.00000  Uiso   1.00
C903   C     0.53975   0.76976   0.60762   0.00000  Uiso   1.00
C904   C     0.47771   0.71548   0.89466   0.00000  Uiso   1.00
H905   H     0.57110   0.78541   0.63122   0.00000  Uiso   1.00
H906   H     0.46018   0.68823   0.87285   0.00000  Uiso   1.00
C907   C     0.54060   0.76997   0.55810   0.00000  Uiso   1.00
C908   C     0.47739   0.71475   0.94425   0.00000  Uiso   1.00
H909   H     0.57336   0.78519   0.54476   0.00000  Uiso   1.00
H910   H     0.46024   0.68633   0.95964   0.00000  Uiso   1.00
C911   C     0.49992   0.75000   0.52667   0.00000  Uiso   1.00
C912   C     0.49989   0.75002   0.97330   0.00000  Uiso   1.00
N913   N     0.65506   0.72305   0.68855   0.00000  Uiso   1.00
H914   H     0.66108   0.74298   0.65956   0.00000  Uiso   1.00
H915   H     0.33975   0.69208   0.68519   0.00000  Uiso   1.00
N916   N     0.34516   0.77505   0.81246   0.00000  Uiso   1.00
H917   H     0.33967   0.75389   0.84066   0.00000  Uiso   1.00
H918   H     0.66020   0.80558   0.81741   0.00000  Uiso   1.00
C919   C     0.58926   0.61915   0.81402   0.00000  Uiso   1.00
C920   C     0.63264   0.63338   0.78625   0.00000  Uiso   1.00
H921   H     0.61661   0.65414   0.75505   0.00000  Uiso   1.00
H922   H     0.66206   0.65334   0.80972   0.00000  Uiso   1.00
H923   H     0.65215   0.60355   0.77339   0.00000  Uiso   1.00
H924   H     0.57343   0.64898   0.83003   0.00000  Uiso   1.00
H925   H     0.60627   0.59964   0.84574   0.00000  Uiso   1.00
C926   C     0.41085   0.88434   0.78448   0.00000  Uiso   1.00
C927   C     0.36973   0.87444   0.74140   0.00000  Uiso   1.00
H928   H     0.38553   0.85107   0.71652   0.00000  Uiso   1.00
H929   H     0.33512   0.85886   0.75335   0.00000  Uiso   1.00
H930   H     0.35712   0.90585   0.72212   0.00000  Uiso   1.00
H931   H     0.42253   0.85273   0.80338   0.00000  Uiso   1.00
H932   H     0.39257   0.90373   0.81094   0.00000  Uiso   1.00
C933   C     0.59072   0.51878   0.81058   0.00000  Uiso   1.00
C934   C     0.57616   0.50657   0.85915   0.00000  Uiso   1.00
H935   H     0.56205   0.53640   0.87696   0.00000  Uiso   1.00
H936   H     0.54554   0.98047   0.85485   0.00000  Uiso   1.00
H937   H     0.61084   0.99279   0.88223   0.00000  Uiso   1.00
H938   H     0.59995   0.98761   0.79242   0.00000  Uiso   1.00
H939   H     0.62835   0.53682   0.81529   0.00000  Uiso   1.00
C940   C     0.41927   0.98436   0.78881   0.00000  Uiso   1.00
C941   C     0.43040   0.98902   0.84304   0.00000  Uiso   1.00
H942   H     0.44116   0.95640   0.86049   0.00000  Uiso   1.00
H943   H     0.46253   0.51316   0.85302   0.00000  Uiso   1.00
H944   H     0.39521   0.50219   0.85650   0.00000  Uiso   1.00
H945   H     0.41613   0.51849   0.77369   0.00000  Uiso   1.00
H946   H     0.37979   0.97036   0.77788   0.00000  Uiso   1.00
O947   O     0.83334   0.68454   0.78974   0.00000  Uiso   1.00
O948   O     0.83333   0.81547   0.71026   0.00000  Uiso   1.00
O949   O     0.83334   0.68453   0.71026   0.00000  Uiso   1.00
O950   O     0.83333   0.81547   0.78974   0.00000  Uiso   1.00
C951   C     0.83644   0.66401   0.75040   0.00000  Uiso   1.00
C952   C     0.83102   0.83601   0.74974   0.00000  Uiso   1.00
O953   O     0.75725   0.75000   0.78044   0.00000  Uiso   1.00
O954   O     0.90942   0.75000   0.71955   0.00000  Uiso   1.00
O955   O     0.75725   0.75000   0.70097   0.00000  Uiso   1.00
O956   O     0.90942   0.75001   0.79903   0.00000  Uiso   1.00
C957   C     0.73391   0.74988   0.73778   0.00000  Uiso   1.00
C958   C     0.93275   0.75004   0.76227   0.00000  Uiso   1.00
Zn959  Zn    0.83333   0.75001   0.80307   0.00000  Uiso   1.00
Zn960  Zn    0.83333   0.75000   0.69693   0.00000  Uiso   1.00
C961   C     0.67959   0.74429   0.73185   0.00000  Uiso   1.00
C962   C     0.98712   0.75509   0.76847   0.00000  Uiso   1.00
C963   C     0.80727   0.54750   0.71554   0.00000  Uiso   1.00
C964   C     0.86959   0.95086   0.72670   0.00000  Uiso   1.00
H965   H     0.77885   0.53012   0.69015   0.00000  Uiso   1.00
H966   H     0.89948   0.96691   0.70972   0.00000  Uiso   1.00
C967   C     0.80671   0.59329   0.71671   0.00000  Uiso   1.00
C968   C     0.86743   0.90512   0.72752   0.00000  Uiso   1.00
H969   H     0.77798   0.61110   0.69193   0.00000  Uiso   1.00
H970   H     0.89604   0.88599   0.71157   0.00000  Uiso   1.00
C971   C     0.84130   0.61606   0.75057   0.00000  Uiso   1.00
C972   C     0.82945   0.88400   0.74933   0.00000  Uiso   1.00
C973   C     0.88042   0.59319   0.78200   0.00000  Uiso   1.00
C974   C     0.79071   0.90848   0.76895   0.00000  Uiso   1.00
C975   C     0.88114   0.54579   0.78048   0.00000  Uiso   1.00
C976   C     0.79376   0.95583   0.76923   0.00000  Uiso   1.00
C977   C     0.84170   0.52394   0.74886   0.00000  Uiso   1.00
C978   C     0.83510   0.97600   0.74928   0.00000  Uiso   1.00
C979   C     0.79260   0.73005   0.54711   0.00000  Uiso   1.00
C980   C     0.85572   0.78533   0.95048   0.00000  Uiso   1.00
H981   H     0.75980   0.71486   0.52492   0.00000  Uiso   1.00
H982   H     0.87279   0.81376   0.97062   0.00000  Uiso   1.00
C983   C     0.79350   0.73029   0.59688   0.00000  Uiso   1.00
C984   C     0.85549   0.78458   0.90081   0.00000  Uiso   1.00
H985   H     0.76208   0.71480   0.61205   0.00000  Uiso   1.00
H986   H     0.87298   0.81187   0.88385   0.00000  Uiso   1.00
N987   N     0.83333   0.74999   0.62624   0.00000  Uiso   1.00
N988   N     0.83333   0.75001   0.87376   0.00000  Uiso   1.00
C989   C     0.87309   0.76976   0.60762   0.00000  Uiso   1.00
C990   C     0.81104   0.71548   0.89466   0.00000  Uiso   1.00
H991   H     0.90444   0.78541   0.63122   0.00000  Uiso   1.00
H992   H     0.79351   0.68823   0.87285   0.00000  Uiso   1.00
C993   C     0.87393   0.76997   0.55810   0.00000  Uiso   1.00
C994   C     0.81072   0.71475   0.94425   0.00000  Uiso   1.00
H995   H     0.90669   0.78519   0.54476   0.00000  Uiso   1.00
H996   H     0.79357   0.68633   0.95964   0.00000  Uiso   1.00
C997   C     0.83326   0.75000   0.52667   0.00000  Uiso   1.00
C998   C     0.83322   0.75002   0.97330   0.00000  Uiso   1.00
N999   N     0.98839   0.72305   0.68855   0.00000  Uiso   1.00
H1000  H     0.99442   0.74298   0.65956   0.00000  Uiso   1.00
H1001  H     0.67309   0.69208   0.68519   0.00000  Uiso   1.00
N1002  N     0.67849   0.77505   0.81246   0.00000  Uiso   1.00
H1003  H     0.67301   0.75389   0.84066   0.00000  Uiso   1.00
H1004  H     0.99353   0.80558   0.81741   0.00000  Uiso   1.00
C1005  C     0.92259   0.61915   0.81402   0.00000  Uiso   1.00
C1006  C     0.96597   0.63338   0.78625   0.00000  Uiso   1.00
H1007  H     0.94994   0.65414   0.75505   0.00000  Uiso   1.00
H1008  H     0.99540   0.65334   0.80972   0.00000  Uiso   1.00
H1009  H     0.98549   0.60355   0.77339   0.00000  Uiso   1.00
H1010  H     0.90677   0.64898   0.83003   0.00000  Uiso   1.00
H1011  H     0.93960   0.59964   0.84574   0.00000  Uiso   1.00
C1012  C     0.74419   0.88434   0.78448   0.00000  Uiso   1.00
C1013  C     0.70306   0.87444   0.74140   0.00000  Uiso   1.00
H1014  H     0.71887   0.85107   0.71652   0.00000  Uiso   1.00
H1015  H     0.66846   0.85886   0.75335   0.00000  Uiso   1.00
H1016  H     0.69045   0.90585   0.72212   0.00000  Uiso   1.00
H1017  H     0.75587   0.85273   0.80338   0.00000  Uiso   1.00
H1018  H     0.72590   0.90373   0.81094   0.00000  Uiso   1.00
C1019  C     0.92406   0.51878   0.81058   0.00000  Uiso   1.00
C1020  C     0.90949   0.50657   0.85915   0.00000  Uiso   1.00
H1021  H     0.89538   0.53640   0.87696   0.00000  Uiso   1.00
H1022  H     0.87887   0.98047   0.85485   0.00000  Uiso   1.00
H1023  H     0.94418   0.99279   0.88223   0.00000  Uiso   1.00
H1024  H     0.93328   0.98761   0.79242   0.00000  Uiso   1.00
H1025  H     0.96169   0.53682   0.81529   0.00000  Uiso   1.00
C1026  C     0.75261   0.98436   0.78881   0.00000  Uiso   1.00
C1027  C     0.76373   0.98902   0.84304   0.00000  Uiso   1.00
H1028  H     0.77450   0.95640   0.86049   0.00000  Uiso   1.00
H1029  H     0.79586   0.51316   0.85302   0.00000  Uiso   1.00
H1030  H     0.72855   0.50219   0.85650   0.00000  Uiso   1.00
H1031  H     0.74947   0.51849   0.77369   0.00000  Uiso   1.00
H1032  H     0.71313   0.97036   0.77788   0.00000  Uiso   1.00
loop_
_geom_bond_atom_site_label_1
_geom_bond_atom_site_label_2
_geom_bond_distance
_geom_bond_site_symmetry_2
_ccdc_geom_bond_type
O1     C5      1.283   .     A
O1     Zn13    1.992   .     S
O2     C6      1.283   .     A
O2     Zn14    1.992   .     S
O3     Zn14    1.993   .     S
O3     C5      1.285   .     A
O4     Zn13    1.993   .     S
O4     C6      1.283   .     A
C5     C25     1.438   .     S
C6     C26     1.434   .     S
O7     C11     1.270   .     A
O7     Zn13    1.984   .     S
O8     C12     1.271   .     A
O8     Zn14    1.984   .     S
O9     Zn14    1.995   .     S
O9     C11     1.281   .     A
O10    C12     1.279   .     A
O10    Zn13    1.995   .     S
C11    C15     1.406   .     S
C12    C16     1.405   .     S
Zn13   N42     2.002   .     S
Zn14   N41     2.002   .     S
C15    C188    1.353   1_455 S
C15    N225    1.443   1_455 S
C16    C101    1.353   .     S
C16    N142    1.444   .     S
C17    H19     1.085   .     S
C17    C21     1.369   .     A
C17    C31     1.391   .     A
C18    C32     1.391   .     A
C18    C22     1.368   .     A
C18    H20     1.085   .     S
C21    H23     1.085   .     S
C21    C25     1.392   .     A
C22    H24     1.085   .     S
C22    C26     1.391   .     A
C25    C27     1.422   .     A
C26    C28     1.418   .     A
C27    C29     1.417   .     A
C27    C59     1.528   .     S
C28    C66     1.528   .     S
C28    C30     1.417   .     A
C29    C73     1.529   .     S
C29    C31     1.417   .     A
C30    C32     1.420   .     A
C30    C80     1.530   .     S
C31    C290    1.444   1_545 S
C32    C289    1.444   .     S
C33    C51     1.410   .     A
C33    H35     1.082   .     S
C33    C37     1.406   .     A
C34    H36     1.082   .     S
C34    C38     1.406   .     A
C34    C52     1.410   .     A
C37    N41     1.363   .     A
C37    H39     1.082   .     S
C38    N42     1.362   .     A
C38    H40     1.082   .     S
N41    C43     1.363   .     A
N42    C44     1.363   .     A
C43    H45     1.081   .     S
C43    C47     1.406   .     A
C44    H46     1.082   .     S
C44    C48     1.406   .     A
C47    H49     1.082   .     S
C47    C51     1.410   .     A
C48    H50     1.082   .     S
C48    C52     1.410   .     A
C51    C568    1.511   1_554 S
C52    C567    1.511   .     S
N53    H54     1.046   .     S
N53    C101    1.443   .     S
N53    H141    1.046   .     S
H55    N225    1.046   1_455 S
N56    H57     1.046   .     S
N56    C188    1.444   1_455 S
N56    H230    1.046   1_455 S
H58    N142    1.046   .     S
C59    H64     1.104   .     S
C59    C60     1.527   .     S
C59    H65     1.107   .     S
C60    H63     1.110   .     S
C60    H62     1.111   .     S
C60    H61     1.110   .     S
C66    H72     1.106   .     S
C66    C67     1.528   .     S
C66    H71     1.106   .     S
C67    H68     1.110   .     S
C67    H69     1.110   .     S
C67    H70     1.111   .     S
C73    C74     1.524   .     S
C73    H79     1.108   .     S
C73    H336    1.105   1_545 S
C74    H75     1.110   .     S
C74    H334    1.109   1_545 S
C74    H335    1.110   1_545 S
H76    C332    1.109   .     S
H77    C332    1.110   .     S
H78    C331    1.105   .     S
C80    H86     1.109   .     S
C80    C81     1.527   .     S
C80    H343    1.105   .     S
C81    H82     1.110   .     S
C81    H341    1.109   .     S
C81    H342    1.111   .     S
H83    C339    1.109   1_545 S
H84    C339    1.111   1_545 S
H85    C338    1.105   1_545 S
O87    C91     1.283   .     A
O87    Zn99    1.992   .     S
O88    C92     1.283   .     A
O88    Zn100   1.992   .     S
O89    Zn100   1.993   .     S
O89    C91     1.285   .     A
O90    Zn99    1.993   .     S
O90    C92     1.283   .     A
C91    C111    1.438   .     S
C92    C112    1.434   .     S
O93    C97     1.270   .     A
O93    Zn99    1.984   .     S
O94    C98     1.271   .     A
O94    Zn100   1.984   .     S
O95    Zn100   1.995   .     S
O95    C97     1.281   .     A
O96    C98     1.279   .     A
O96    Zn99    1.995   .     S
C97    C101    1.406   .     S
C98    C102    1.405   .     S
Zn99   N128    2.002   .     S
Zn100  N127    2.002   .     S
C102   C187    1.353   .     S
C102   N228    1.444   .     S
C103   H105    1.085   .     S
C103   C107    1.369   .     A
C103   C117    1.391   .     A
C104   C118    1.391   .     A
C104   C108    1.368   .     A
C104   H106    1.085   .     S
C107   H109    1.085   .     S
C107   C111    1.392   .     A
C108   H110    1.085   .     S
C108   C112    1.391   .     A
C111   C113    1.422   .     A
C112   C114    1.418   .     A
C113   C115    1.417   .     A
C113   C145    1.528   .     S
C114   C152    1.528   .     S
C114   C116    1.417   .     A
C115   C159    1.529   .     S
C115   C117    1.417   .     A
C116   C118    1.420   .     A
C116   C166    1.530   .     S
C117   C376    1.444   1_545 S
C118   C375    1.444   .     S
C119   C137    1.410   .     A
C119   H121    1.082   .     S
C119   C123    1.406   .     A
C120   H122    1.082   .     S
C120   C124    1.406   .     A
C120   C138    1.410   .     A
C123   N127    1.363   .     A
C123   H125    1.082   .     S
C124   N128    1.362   .     A
C124   H126    1.082   .     S
N127   C129    1.363   .     A
N128   C130    1.363   .     A
C129   H131    1.081   .     S
C129   C133    1.406   .     A
C130   H132    1.082   .     S
C130   C134    1.406   .     A
C133   H135    1.082   .     S
C133   C137    1.410   .     A
C134   H136    1.082   .     S
C134   C138    1.410   .     A
C137   C654    1.511   1_554 S
C138   C653    1.511   .     S
N139   H140    1.046   .     S
N139   C187    1.443   .     S
N139   H227    1.046   .     S
N142   H143    1.046   .     S
H144   N228    1.046   .     S
C145   H150    1.104   .     S
C145   C146    1.527   .     S
C145   H151    1.107   .     S
C146   H149    1.110   .     S
C146   H148    1.111   .     S
C146   H147    1.110   .     S
C152   H158    1.106   .     S
C152   C153    1.528   .     S
C152   H157    1.106   .     S
C153   H154    1.110   .     S
C153   H155    1.110   .     S
C153   H156    1.111   .     S
C159   C160    1.524   .     S
C159   H165    1.108   .     S
C159   H422    1.105   1_545 S
C160   H161    1.110   .     S
C160   H420    1.109   1_545 S
C160   H421    1.110   1_545 S
H162   C418    1.109   .     S
H163   C418    1.110   .     S
H164   C417    1.105   .     S
C166   H172    1.109   .     S
C166   C167    1.527   .     S
C166   H429    1.105   .     S
C167   H168    1.110   .     S
C167   H427    1.109   .     S
C167   H428    1.111   .     S
H169   C425    1.109   1_545 S
H170   C425    1.111   1_545 S
H171   C424    1.105   1_545 S
O173   C177    1.283   .     A
O173   Zn185   1.992   .     S
O174   C178    1.283   .     A
O174   Zn186   1.992   .     S
O175   Zn186   1.993   .     S
O175   C177    1.285   .     A
O176   Zn185   1.993   .     S
O176   C178    1.283   .     A
C177   C197    1.438   .     S
C178   C198    1.434   .     S
O179   C183    1.270   .     A
O179   Zn185   1.984   .     S
O180   C184    1.271   .     A
O180   Zn186   1.984   .     S
O181   Zn186   1.995   .     S
O181   C183    1.281   .     A
O182   C184    1.279   .     A
O182   Zn185   1.995   .     S
C183   C187    1.406   .     S
C184   C188    1.405   .     S
Zn185  N214    2.002   .     S
Zn186  N213    2.002   .     S
C188   C15     1.353   1_655 S
C188   N56     1.444   1_655 S
C189   H191    1.085   .     S
C189   C193    1.369   .     A
C189   C203    1.391   .     A
C190   C204    1.391   .     A
C190   C194    1.368   .     A
C190   H192    1.085   .     S
C193   H195    1.085   .     S
C193   C197    1.392   .     A
C194   H196    1.085   .     S
C194   C198    1.391   .     A
C197   C199    1.422   .     A
C198   C200    1.418   .     A
C199   C201    1.417   .     A
C199   C231    1.528   .     S
C200   C238    1.528   .     S
C200   C202    1.417   .     A
C201   C245    1.529   .     S
C201   C203    1.417   .     A
C202   C204    1.420   .     A
C202   C252    1.530   .     S
C203   C462    1.444   1_545 S
C204   C461    1.444   .     S
C205   C223    1.410   .     A
C205   H207    1.082   .     S
C205   C209    1.406   .     A
C206   H208    1.082   .     S
C206   C210    1.406   .     A
C206   C224    1.410   .     A
C209   N213    1.363   .     A
C209   H211    1.082   .     S
C210   N214    1.362   .     A
C210   H212    1.082   .     S
N213   C215    1.363   .     A
N214   C216    1.363   .     A
C215   H217    1.081   .     S
C215   C219    1.406   .     A
C216   H218    1.082   .     S
C216   C220    1.406   .     A
C219   H221    1.082   .     S
C219   C223    1.410   .     A
C220   H222    1.082   .     S
C220   C224    1.410   .     A
C223   C740    1.511   1_554 S
C224   C739    1.511   .     S
N225   H226    1.046   .     S
N225   C15     1.443   1_655 S
N225   H55     1.046   1_655 S
N228   H229    1.046   .     S
H230   N56     1.046   1_655 S
C231   H236    1.104   .     S
C231   C232    1.527   .     S
C231   H237    1.107   .     S
C232   H235    1.110   .     S
C232   H234    1.111   .     S
C232   H233    1.110   .     S
C238   H244    1.106   .     S
C238   C239    1.528   .     S
C238   H243    1.106   .     S
C239   H240    1.110   .     S
C239   H241    1.110   .     S
C239   H242    1.111   .     S
C245   C246    1.524   .     S
C245   H251    1.108   .     S
C245   H508    1.105   1_545 S
C246   H247    1.110   .     S
C246   H506    1.109   1_545 S
C246   H507    1.110   1_545 S
H248   C504    1.109   .     S
H249   C504    1.110   .     S
H250   C503    1.105   .     S
C252   H258    1.109   .     S
C252   C253    1.527   .     S
C252   H515    1.105   .     S
C253   H254    1.110   .     S
C253   H513    1.109   .     S
C253   H514    1.111   .     S
H255   C511    1.109   1_545 S
H256   C511    1.111   1_545 S
H257   C510    1.105   1_545 S
O259   C263    1.283   .     A
O259   Zn271   1.992   .     S
O260   C264    1.283   .     A
O260   Zn272   1.992   .     S
O261   Zn272   1.993   .     S
O261   C263    1.285   .     A
O262   Zn271   1.993   .     S
O262   C264    1.283   .     A
C263   C283    1.438   .     S
C264   C284    1.434   .     S
O265   C269    1.270   .     A
O265   Zn271   1.984   .     S
O266   C270    1.271   .     A
O266   Zn272   1.984   .     S
O267   Zn272   1.995   .     S
O267   C269    1.281   .     A
O268   C270    1.279   .     A
O268   Zn271   1.995   .     S
C269   C273    1.406   .     S
C270   C274    1.405   .     S
Zn271  N300    2.002   .     S
Zn272  N299    2.002   .     S
C273   C446    1.353   1_455 S
C273   N483    1.443   1_455 S
C274   C359    1.353   .     S
C274   N400    1.444   .     S
C275   H277    1.085   .     S
C275   C279    1.369   .     A
C275   C289    1.391   .     A
C276   C290    1.391   .     A
C276   C280    1.368   .     A
C276   H278    1.085   .     S
C279   H281    1.085   .     S
C279   C283    1.392   .     A
C280   H282    1.085   .     S
C280   C284    1.391   .     A
C283   C285    1.422   .     A
C284   C286    1.418   .     A
C285   C287    1.417   .     A
C285   C317    1.528   .     S
C286   C324    1.528   .     S
C286   C288    1.417   .     A
C287   C331    1.529   .     S
C287   C289    1.417   .     A
C288   C290    1.420   .     A
C288   C338    1.530   .     S
C290   C31     1.444   1_565 S
C291   C309    1.410   .     A
C291   H293    1.082   .     S
C291   C295    1.406   .     A
C292   H294    1.082   .     S
C292   C296    1.406   .     A
C292   C310    1.410   .     A
C295   N299    1.363   .     A
C295   H297    1.082   .     S
C296   N300    1.362   .     A
C296   H298    1.082   .     S
N299   C301    1.363   .     A
N300   C302    1.363   .     A
C301   H303    1.081   .     S
C301   C305    1.406   .     A
C302   H304    1.082   .     S
C302   C306    1.406   .     A
C305   H307    1.082   .     S
C305   C309    1.410   .     A
C306   H308    1.082   .     S
C306   C310    1.410   .     A
C309   C826    1.511   1_554 S
C310   C825    1.511   .     S
N311   H312    1.046   .     S
N311   C359    1.443   .     S
N311   H399    1.046   .     S
H313   N483    1.046   1_455 S
N314   H315    1.046   .     S
N314   C446    1.444   1_455 S
N314   H488    1.046   1_455 S
H316   N400    1.046   .     S
C317   H322    1.104   .     S
C317   C318    1.527   .     S
C317   H323    1.107   .     S
C318   H321    1.110   .     S
C318   H320    1.111   .     S
C318   H319    1.110   .     S
C324   H330    1.106   .     S
C324   C325    1.528   .     S
C324   H329    1.106   .     S
C325   H326    1.110   .     S
C325   H327    1.110   .     S
C325   H328    1.111   .     S
C331   C332    1.524   .     S
C331   H337    1.108   .     S
C332   H333    1.110   .     S
H334   C74     1.109   1_565 S
H335   C74     1.110   1_565 S
H336   C73     1.105   1_565 S
C338   H344    1.109   .     S
C338   C339    1.527   .     S
C338   H85     1.105   1_565 S
C339   H340    1.110   .     S
C339   H83     1.109   1_565 S
C339   H84     1.111   1_565 S
O345   C349    1.283   .     A
O345   Zn357   1.992   .     S
O346   C350    1.283   .     A
O346   Zn358   1.992   .     S
O347   Zn358   1.993   .     S
O347   C349    1.285   .     A
O348   Zn357   1.993   .     S
O348   C350    1.283   .     A
C349   C369    1.438   .     S
C350   C370    1.434   .     S
O351   C355    1.270   .     A
O351   Zn357   1.984   .     S
O352   C356    1.271   .     A
O352   Zn358   1.984   .     S
O353   Zn358   1.995   .     S
O353   C355    1.281   .     A
O354   C356    1.279   .     A
O354   Zn357   1.995   .     S
C355   C359    1.406   .     S
C356   C360    1.405   .     S
Zn357  N386    2.002   .     S
Zn358  N385    2.002   .     S
C360   C445    1.353   .     S
C360   N486    1.444   .     S
C361   H363    1.085   .     S
C361   C365    1.369   .     A
C361   C375    1.391   .     A
C362   C376    1.391   .     A
C362   C366    1.368   .     A
C362   H364    1.085   .     S
C365   H367    1.085   .     S
C365   C369    1.392   .     A
C366   H368    1.085   .     S
C366   C370    1.391   .     A
C369   C371    1.422   .     A
C370   C372    1.418   .     A
C371   C373    1.417   .     A
C371   C403    1.528   .     S
C372   C410    1.528   .     S
C372   C374    1.417   .     A
C373   C417    1.529   .     S
C373   C375    1.417   .     A
C374   C376    1.420   .     A
C374   C424    1.530   .     S
C376   C117    1.444   1_565 S
C377   C395    1.410   .     A
C377   H379    1.082   .     S
C377   C381    1.406   .     A
C378   H380    1.082   .     S
C378   C382    1.406   .     A
C378   C396    1.410   .     A
C381   N385    1.363   .     A
C381   H383    1.082   .     S
C382   N386    1.362   .     A
C382   H384    1.082   .     S
N385   C387    1.363   .     A
N386   C388    1.363   .     A
C387   H389    1.081   .     S
C387   C391    1.406   .     A
C388   H390    1.082   .     S
C388   C392    1.406   .     A
C391   H393    1.082   .     S
C391   C395    1.410   .     A
C392   H394    1.082   .     S
C392   C396    1.410   .     A
C395   C912    1.511   1_554 S
C396   C911    1.511   .     S
N397   H398    1.046   .     S
N397   C445    1.443   .     S
N397   H485    1.046   .     S
N400   H401    1.046   .     S
H402   N486    1.046   .     S
C403   H408    1.104   .     S
C403   C404    1.527   .     S
C403   H409    1.107   .     S
C404   H407    1.110   .     S
C404   H406    1.111   .     S
C404   H405    1.110   .     S
C410   H416    1.106   .     S
C410   C411    1.528   .     S
C410   H415    1.106   .     S
C411   H412    1.110   .     S
C411   H413    1.110   .     S
C411   H414    1.111   .     S
C417   C418    1.524   .     S
C417   H423    1.108   .     S
C418   H419    1.110   .     S
H420   C160    1.109   1_565 S
H421   C160    1.110   1_565 S
H422   C159    1.105   1_565 S
C424   H430    1.109   .     S
C424   C425    1.527   .     S
C424   H171    1.105   1_565 S
C425   H426    1.110   .     S
C425   H169    1.109   1_565 S
C425   H170    1.111   1_565 S
O431   C435    1.283   .     A
O431   Zn443   1.992   .     S
O432   C436    1.283   .     A
O432   Zn444   1.992   .     S
O433   Zn444   1.993   .     S
O433   C435    1.285   .     A
O434   Zn443   1.993   .     S
O434   C436    1.283   .     A
C435   C455    1.438   .     S
C436   C456    1.434   .     S
O437   C441    1.270   .     A
O437   Zn443   1.984   .     S
O438   C442    1.271   .     A
O438   Zn444   1.984   .     S
O439   Zn444   1.995   .     S
O439   C441    1.281   .     A
O440   C442    1.279   .     A
O440   Zn443   1.995   .     S
C441   C445    1.406   .     S
C442   C446    1.405   .     S
Zn443  N472    2.002   .     S
Zn444  N471    2.002   .     S
C446   C273    1.353   1_655 S
C446   N314    1.444   1_655 S
C447   H449    1.085   .     S
C447   C451    1.369   .     A
C447   C461    1.391   .     A
C448   C462    1.391   .     A
C448   C452    1.368   .     A
C448   H450    1.085   .     S
C451   H453    1.085   .     S
C451   C455    1.392   .     A
C452   H454    1.085   .     S
C452   C456    1.391   .     A
C455   C457    1.422   .     A
C456   C458    1.418   .     A
C457   C459    1.417   .     A
C457   C489    1.528   .     S
C458   C496    1.528   .     S
C458   C460    1.417   .     A
C459   C503    1.529   .     S
C459   C461    1.417   .     A
C460   C462    1.420   .     A
C460   C510    1.530   .     S
C462   C203    1.444   1_565 S
C463   C481    1.410   .     A
C463   H465    1.082   .     S
C463   C467    1.406   .     A
C464   H466    1.082   .     S
C464   C468    1.406   .     A
C464   C482    1.410   .     A
C467   N471    1.363   .     A
C467   H469    1.082   .     S
C468   N472    1.362   .     A
C468   H470    1.082   .     S
N471   C473    1.363   .     A
N472   C474    1.363   .     A
C473   H475    1.081   .     S
C473   C477    1.406   .     A
C474   H476    1.082   .     S
C474   C478    1.406   .     A
C477   H479    1.082   .     S
C477   C481    1.410   .     A
C478   H480    1.082   .     S
C478   C482    1.410   .     A
C481   C998    1.511   1_554 S
C482   C997    1.511   .     S
N483   H484    1.046   .     S
N483   C273    1.443   1_655 S
N483   H313    1.046   1_655 S
N486   H487    1.046   .     S
H488   N314    1.046   1_655 S
C489   H494    1.104   .     S
C489   C490    1.527   .     S
C489   H495    1.107   .     S
C490   H493    1.110   .     S
C490   H492    1.111   .     S
C490   H491    1.110   .     S
C496   H502    1.106   .     S
C496   C497    1.528   .     S
C496   H501    1.106   .     S
C497   H498    1.110   .     S
C497   H499    1.110   .     S
C497   H500    1.111   .     S
C503   C504    1.524   .     S
C503   H509    1.108   .     S
C504   H505    1.110   .     S
H506   C246    1.109   1_565 S
H507   C246    1.110   1_565 S
H508   C245    1.105   1_565 S
C510   H516    1.109   .     S
C510   C511    1.527   .     S
C510   H257    1.105   1_565 S
C511   H512    1.110   .     S
C511   H255    1.109   1_565 S
C511   H256    1.111   1_565 S
O517   C521    1.283   .     A
O517   Zn529   1.992   .     S
O518   C522    1.283   .     A
O518   Zn530   1.992   .     S
O519   Zn530   1.993   .     S
O519   C521    1.285   .     A
O520   Zn529   1.993   .     S
O520   C522    1.283   .     A
C521   C541    1.438   .     S
C522   C542    1.434   .     S
O523   C527    1.270   .     A
O523   Zn529   1.984   .     S
O524   C528    1.271   .     A
O524   Zn530   1.984   .     S
O525   Zn530   1.995   .     S
O525   C527    1.281   .     A
O526   C528    1.279   .     A
O526   Zn529   1.995   .     S
C527   C531    1.406   .     S
C528   C532    1.405   .     S
Zn529  N558    2.002   .     S
Zn530  N557    2.002   .     S
C531   C704    1.353   1_455 S
C531   N741    1.443   1_455 S
C532   C617    1.353   .     S
C532   N658    1.444   .     S
C533   H535    1.085   .     S
C533   C537    1.369   .     A
C533   C547    1.391   .     A
C534   C548    1.391   .     A
C534   C538    1.368   .     A
C534   H536    1.085   .     S
C537   H539    1.085   .     S
C537   C541    1.392   .     A
C538   H540    1.085   .     S
C538   C542    1.391   .     A
C541   C543    1.422   .     A
C542   C544    1.418   .     A
C543   C545    1.417   .     A
C543   C575    1.528   .     S
C544   C582    1.528   .     S
C544   C546    1.417   .     A
C545   C589    1.529   .     S
C545   C547    1.417   .     A
C546   C548    1.420   .     A
C546   C596    1.530   .     S
C547   C806    1.444   1_545 S
C548   C805    1.444   .     S
C549   C567    1.410   .     A
C549   H551    1.082   .     S
C549   C553    1.406   .     A
C550   H552    1.082   .     S
C550   C554    1.406   .     A
C550   C568    1.410   .     A
C553   N557    1.363   .     A
C553   H555    1.082   .     S
C554   N558    1.362   .     A
C554   H556    1.082   .     S
N557   C559    1.363   .     A
N558   C560    1.363   .     A
C559   H561    1.081   .     S
C559   C563    1.406   .     A
C560   H562    1.082   .     S
C560   C564    1.406   .     A
C563   H565    1.082   .     S
C563   C567    1.410   .     A
C564   H566    1.082   .     S
C564   C568    1.410   .     A
C568   C51     1.511   1_556 S
N569   H570    1.046   .     S
N569   C617    1.443   .     S
N569   H657    1.046   .     S
H571   N741    1.046   1_455 S
N572   H573    1.046   .     S
N572   C704    1.444   1_455 S
N572   H746    1.046   1_455 S
H574   N658    1.046   .     S
C575   H580    1.104   .     S
C575   C576    1.527   .     S
C575   H581    1.107   .     S
C576   H579    1.110   .     S
C576   H578    1.111   .     S
C576   H577    1.110   .     S
C582   H588    1.106   .     S
C582   C583    1.528   .     S
C582   H587    1.106   .     S
C583   H584    1.110   .     S
C583   H585    1.110   .     S
C583   H586    1.111   .     S
C589   C590    1.524   .     S
C589   H595    1.108   .     S
C589   H852    1.105   1_545 S
C590   H591    1.110   .     S
C590   H850    1.109   1_545 S
C590   H851    1.110   1_545 S
H592   C848    1.109   .     S
H593   C848    1.110   .     S
H594   C847    1.105   .     S
C596   H602    1.109   .     S
C596   C597    1.527   .     S
C596   H859    1.105   .     S
C597   H598    1.110   .     S
C597   H857    1.109   .     S
C597   H858    1.111   .     S
H599   C855    1.109   1_545 S
H600   C855    1.111   1_545 S
H601   C854    1.105   1_545 S
O603   C607    1.283   .     A
O603   Zn615   1.992   .     S
O604   C608    1.283   .     A
O604   Zn616   1.992   .     S
O605   Zn616   1.993   .     S
O605   C607    1.285   .     A
O606   Zn615   1.993   .     S
O606   C608    1.283   .     A
C607   C627    1.438   .     S
C608   C628    1.434   .     S
O609   C613    1.270   .     A
O609   Zn615   1.984   .     S
O610   C614    1.271   .     A
O610   Zn616   1.984   .     S
O611   Zn616   1.995   .     S
O611   C613    1.281   .     A
O612   C614    1.279   .     A
O612   Zn615   1.995   .     S
C613   C617    1.406   .     S
C614   C618    1.405   .     S
Zn615  N644    2.002   .     S
Zn616  N643    2.002   .     S
C618   C703    1.353   .     S
C618   N744    1.444   .     S
C619   H621    1.085   .     S
C619   C623    1.369   .     A
C619   C633    1.391   .     A
C620   C634    1.391   .     A
C620   C624    1.368   .     A
C620   H622    1.085   .     S
C623   H625    1.085   .     S
C623   C627    1.392   .     A
C624   H626    1.085   .     S
C624   C628    1.391   .     A
C627   C629    1.422   .     A
C628   C630    1.418   .     A
C629   C631    1.417   .     A
C629   C661    1.528   .     S
C630   C668    1.528   .     S
C630   C632    1.417   .     A
C631   C675    1.529   .     S
C631   C633    1.417   .     A
C632   C634    1.420   .     A
C632   C682    1.530   .     S
C633   C892    1.444   1_545 S
C634   C891    1.444   .     S
C635   C653    1.410   .     A
C635   H637    1.082   .     S
C635   C639    1.406   .     A
C636   H638    1.082   .     S
C636   C640    1.406   .     A
C636   C654    1.410   .     A
C639   N643    1.363   .     A
C639   H641    1.082   .     S
C640   N644    1.362   .     A
C640   H642    1.082   .     S
N643   C645    1.363   .     A
N644   C646    1.363   .     A
C645   H647    1.081   .     S
C645   C649    1.406   .     A
C646   H648    1.082   .     S
C646   C650    1.406   .     A
C649   H651    1.082   .     S
C649   C653    1.410   .     A
C650   H652    1.082   .     S
C650   C654    1.410   .     A
C654   C137    1.511   1_556 S
N655   H656    1.046   .     S
N655   C703    1.443   .     S
N655   H743    1.046   .     S
N658   H659    1.046   .     S
H660   N744    1.046   .     S
C661   H666    1.104   .     S
C661   C662    1.527   .     S
C661   H667    1.107   .     S
C662   H665    1.110   .     S
C662   H664    1.111   .     S
C662   H663    1.110   .     S
C668   H674    1.106   .     S
C668   C669    1.528   .     S
C668   H673    1.106   .     S
C669   H670    1.110   .     S
C669   H671    1.110   .     S
C669   H672    1.111   .     S
C675   C676    1.524   .     S
C675   H681    1.108   .     S
C675   H938    1.105   1_545 S
C676   H677    1.110   .     S
C676   H936    1.109   1_545 S
C676   H937    1.110   1_545 S
H678   C934    1.109   .     S
H679   C934    1.110   .     S
H680   C933    1.105   .     S
C682   H688    1.109   .     S
C682   C683    1.527   .     S
C682   H945    1.105   .     S
C683   H684    1.110   .     S
C683   H943    1.109   .     S
C683   H944    1.111   .     S
H685   C941    1.109   1_545 S
H686   C941    1.111   1_545 S
H687   C940    1.105   1_545 S
O689   C693    1.283   .     A
O689   Zn701   1.992   .     S
O690   C694    1.283   .     A
O690   Zn702   1.992   .     S
O691   Zn702   1.993   .     S
O691   C693    1.285   .     A
O692   Zn701   1.993   .     S
O692   C694    1.283   .     A
C693   C713    1.438   .     S
C694   C714    1.434   .     S
O695   C699    1.270   .     A
O695   Zn701   1.984   .     S
O696   C700    1.271   .     A
O696   Zn702   1.984   .     S
O697   Zn702   1.995   .     S
O697   C699    1.281   .     A
O698   C700    1.279   .     A
O698   Zn701   1.995   .     S
C699   C703    1.406   .     S
C700   C704    1.405   .     S
Zn701  N730    2.002   .     S
Zn702  N729    2.002   .     S
C704   C531    1.353   1_655 S
C704   N572    1.444   1_655 S
C705   H707    1.085   .     S
C705   C709    1.369   .     A
C705   C719    1.391   .     A
C706   C720    1.391   .     A
C706   C710    1.368   .     A
C706   H708    1.085   .     S
C709   H711    1.085   .     S
C709   C713    1.392   .     A
C710   H712    1.085   .     S
C710   C714    1.391   .     A
C713   C715    1.422   .     A
C714   C716    1.418   .     A
C715   C717    1.417   .     A
C715   C747    1.528   .     S
C716   C754    1.528   .     S
C716   C718    1.417   .     A
C717   C761    1.529   .     S
C717   C719    1.417   .     A
C718   C720    1.420   .     A
C718   C768    1.530   .     S
C719   C978    1.444   1_545 S
C720   C977    1.444   .     S
C721   C739    1.410   .     A
C721   H723    1.082   .     S
C721   C725    1.406   .     A
C722   H724    1.082   .     S
C722   C726    1.406   .     A
C722   C740    1.410   .     A
C725   N729    1.363   .     A
C725   H727    1.082   .     S
C726   N730    1.362   .     A
C726   H728    1.082   .     S
N729   C731    1.363   .     A
N730   C732    1.363   .     A
C731   H733    1.081   .     S
C731   C735    1.406   .     A
C732   H734    1.082   .     S
C732   C736    1.406   .     A
C735   H737    1.082   .     S
C735   C739    1.410   .     A
C736   H738    1.082   .     S
C736   C740    1.410   .     A
C740   C223    1.511   1_556 S
N741   H742    1.046   .     S
N741   C531    1.443   1_655 S
N741   H571    1.046   1_655 S
N744   H745    1.046   .     S
H746   N572    1.046   1_655 S
C747   H752    1.104   .     S
C747   C748    1.527   .     S
C747   H753    1.107   .     S
C748   H751    1.110   .     S
C748   H750    1.111   .     S
C748   H749    1.110   .     S
C754   H760    1.106   .     S
C754   C755    1.528   .     S
C754   H759    1.106   .     S
C755   H756    1.110   .     S
C755   H757    1.110   .     S
C755   H758    1.111   .     S
C761   C762    1.524   .     S
C761   H767    1.108   .     S
C761   H1024   1.105   1_545 S
C762   H763    1.110   .     S
C762   H1022   1.109   1_545 S
C762   H1023   1.110   1_545 S
H764   C1020   1.109   .     S
H765   C1020   1.110   .     S
H766   C1019   1.105   .     S
C768   H774    1.109   .     S
C768   C769    1.527   .     S
C768   H1031   1.105   .     S
C769   H770    1.110   .     S
C769   H1029   1.109   .     S
C769   H1030   1.111   .     S
H771   C1027   1.109   1_545 S
H772   C1027   1.111   1_545 S
H773   C1026   1.105   1_545 S
O775   C779    1.283   .     A
O775   Zn787   1.992   .     S
O776   C780    1.283   .     A
O776   Zn788   1.992   .     S
O777   Zn788   1.993   .     S
O777   C779    1.285   .     A
O778   Zn787   1.993   .     S
O778   C780    1.283   .     A
C779   C799    1.438   .     S
C780   C800    1.434   .     S
O781   C785    1.270   .     A
O781   Zn787   1.984   .     S
O782   C786    1.271   .     A
O782   Zn788   1.984   .     S
O783   Zn788   1.995   .     S
O783   C785    1.281   .     A
O784   C786    1.279   .     A
O784   Zn787   1.995   .     S
C785   C789    1.406   .     S
C786   C790    1.405   .     S
Zn787  N816    2.002   .     S
Zn788  N815    2.002   .     S
C789   C962    1.353   1_455 S
C789   N999    1.443   1_455 S
C790   C875    1.353   .     S
C790   N916    1.444   .     S
C791   H793    1.085   .     S
C791   C795    1.369   .     A
C791   C805    1.391   .     A
C792   C806    1.391   .     A
C792   C796    1.368   .     A
C792   H794    1.085   .     S
C795   H797    1.085   .     S
C795   C799    1.392   .     A
C796   H798    1.085   .     S
C796   C800    1.391   .     A
C799   C801    1.422   .     A
C800   C802    1.418   .     A
C801   C803    1.417   .     A
C801   C833    1.528   .     S
C802   C840    1.528   .     S
C802   C804    1.417   .     A
C803   C847    1.529   .     S
C803   C805    1.417   .     A
C804   C806    1.420   .     A
C804   C854    1.530   .     S
C806   C547    1.444   1_565 S
C807   C825    1.410   .     A
C807   H809    1.082   .     S
C807   C811    1.406   .     A
C808   H810    1.082   .     S
C808   C812    1.406   .     A
C808   C826    1.410   .     A
C811   N815    1.363   .     A
C811   H813    1.082   .     S
C812   N816    1.362   .     A
C812   H814    1.082   .     S
N815   C817    1.363   .     A
N816   C818    1.363   .     A
C817   H819    1.081   .     S
C817   C821    1.406   .     A
C818   H820    1.082   .     S
C818   C822    1.406   .     A
C821   H823    1.082   .     S
C821   C825    1.410   .     A
C822   H824    1.082   .     S
C822   C826    1.410   .     A
C826   C309    1.511   1_556 S
N827   H828    1.046   .     S
N827   C875    1.443   .     S
N827   H915    1.046   .     S
H829   N999    1.046   1_455 S
N830   H831    1.046   .     S
N830   C962    1.444   1_455 S
N830   H1004   1.046   1_455 S
H832   N916    1.046   .     S
C833   H838    1.104   .     S
C833   C834    1.527   .     S
C833   H839    1.107   .     S
C834   H837    1.110   .     S
C834   H836    1.111   .     S
C834   H835    1.110   .     S
C840   H846    1.106   .     S
C840   C841    1.528   .     S
C840   H845    1.106   .     S
C841   H842    1.110   .     S
C841   H843    1.110   .     S
C841   H844    1.111   .     S
C847   C848    1.524   .     S
C847   H853    1.108   .     S
C848   H849    1.110   .     S
H850   C590    1.109   1_565 S
H851   C590    1.110   1_565 S
H852   C589    1.105   1_565 S
C854   H860    1.109   .     S
C854   C855    1.527   .     S
C854   H601    1.105   1_565 S
C855   H856    1.110   .     S
C855   H599    1.109   1_565 S
C855   H600    1.111   1_565 S
O861   C865    1.283   .     A
O861   Zn873   1.992   .     S
O862   C866    1.283   .     A
O862   Zn874   1.992   .     S
O863   Zn874   1.993   .     S
O863   C865    1.285   .     A
O864   Zn873   1.993   .     S
O864   C866    1.283   .     A
C865   C885    1.438   .     S
C866   C886    1.434   .     S
O867   C871    1.270   .     A
O867   Zn873   1.984   .     S
O868   C872    1.271   .     A
O868   Zn874   1.984   .     S
O869   Zn874   1.995   .     S
O869   C871    1.281   .     A
O870   C872    1.279   .     A
O870   Zn873   1.995   .     S
C871   C875    1.406   .     S
C872   C876    1.405   .     S
Zn873  N902    2.002   .     S
Zn874  N901    2.002   .     S
C876   C961    1.353   .     S
C876   N1002   1.444   .     S
C877   H879    1.085   .     S
C877   C881    1.369   .     A
C877   C891    1.391   .     A
C878   C892    1.391   .     A
C878   C882    1.368   .     A
C878   H880    1.085   .     S
C881   H883    1.085   .     S
C881   C885    1.392   .     A
C882   H884    1.085   .     S
C882   C886    1.391   .     A
C885   C887    1.422   .     A
C886   C888    1.418   .     A
C887   C889    1.417   .     A
C887   C919    1.528   .     S
C888   C926    1.528   .     S
C888   C890    1.417   .     A
C889   C933    1.529   .     S
C889   C891    1.417   .     A
C890   C892    1.420   .     A
C890   C940    1.530   .     S
C892   C633    1.444   1_565 S
C893   C911    1.410   .     A
C893   H895    1.082   .     S
C893   C897    1.406   .     A
C894   H896    1.082   .     S
C894   C898    1.406   .     A
C894   C912    1.410   .     A
C897   N901    1.363   .     A
C897   H899    1.082   .     S
C898   N902    1.362   .     A
C898   H900    1.082   .     S
N901   C903    1.363   .     A
N902   C904    1.363   .     A
C903   H905    1.081   .     S
C903   C907    1.406   .     A
C904   H906    1.082   .     S
C904   C908    1.406   .     A
C907   H909    1.082   .     S
C907   C911    1.410   .     A
C908   H910    1.082   .     S
C908   C912    1.410   .     A
C912   C395    1.511   1_556 S
N913   H914    1.046   .     S
N913   C961    1.443   .     S
N913   H1001   1.046   .     S
N916   H917    1.046   .     S
H918   N1002   1.046   .     S
C919   H924    1.104   .     S
C919   C920    1.527   .     S
C919   H925    1.107   .     S
C920   H923    1.110   .     S
C920   H922    1.111   .     S
C920   H921    1.110   .     S
C926   H932    1.106   .     S
C926   C927    1.528   .     S
C926   H931    1.106   .     S
C927   H928    1.110   .     S
C927   H929    1.110   .     S
C927   H930    1.111   .     S
C933   C934    1.524   .     S
C933   H939    1.108   .     S
C934   H935    1.110   .     S
H936   C676    1.109   1_565 S
H937   C676    1.110   1_565 S
H938   C675    1.105   1_565 S
C940   H946    1.109   .     S
C940   C941    1.527   .     S
C940   H687    1.105   1_565 S
C941   H942    1.110   .     S
C941   H685    1.109   1_565 S
C941   H686    1.111   1_565 S
O947   C951    1.283   .     A
O947   Zn959   1.992   .     S
O948   C952    1.283   .     A
O948   Zn960   1.992   .     S
O949   Zn960   1.993   .     S
O949   C951    1.285   .     A
O950   Zn959   1.993   .     S
O950   C952    1.283   .     A
C951   C971    1.438   .     S
C952   C972    1.434   .     S
O953   C957    1.270   .     A
O953   Zn959   1.984   .     S
O954   C958    1.271   .     A
O954   Zn960   1.984   .     S
O955   Zn960   1.995   .     S
O955   C957    1.281   .     A
O956   C958    1.279   .     A
O956   Zn959   1.995   .     S
C957   C961    1.406   .     S
C958   C962    1.405   .     S
Zn959  N988    2.002   .     S
Zn960  N987    2.002   .     S
C962   C789    1.353   1_655 S
C962   N830    1.444   1_655 S
C963   H965    1.085   .     S
C963   C967    1.369   .     A
C963   C977    1.391   .     A
C964   C978    1.391   .     A
C964   C968    1.368   .     A
C964   H966    1.085   .     S
C967   H969    1.085   .     S
C967   C971    1.392   .     A
C968   H970    1.085   .     S
C968   C972    1.391   .     A
C971   C973    1.422   .     A
C972   C974    1.418   .     A
C973   C975    1.417   .     A
C973   C1005   1.528   .     S
C974   C1012   1.528   .     S
C974   C976    1.417   .     A
C975   C1019   1.529   .     S
C975   C977    1.417   .     A
C976   C978    1.420   .     A
C976   C1026   1.530   .     S
C978   C719    1.444   1_565 S
C979   C997    1.410   .     A
C979   H981    1.082   .     S
C979   C983    1.406   .     A
C980   H982    1.082   .     S
C980   C984    1.406   .     A
C980   C998    1.410   .     A
C983   N987    1.363   .     A
C983   H985    1.082   .     S
C984   N988    1.362   .     A
C984   H986    1.082   .     S
N987   C989    1.363   .     A
N988   C990    1.363   .     A
C989   H991    1.081   .     S
C989   C993    1.406   .     A
C990   H992    1.082   .     S
C990   C994    1.406   .     A
C993   H995    1.082   .     S
C993   C997    1.410   .     A
C994   H996    1.082   .     S
C994   C998    1.410   .     A
C998   C481    1.511   1_556 S
N999   H1000   1.046   .     S
N999   C789    1.443   1_655 S
N999   H829    1.046   1_655 S
N1002  H1003   1.046   .     S
H1004  N830    1.046   1_655 S
C1005  H1010   1.104   .     S
C1005  C1006   1.527   .     S
C1005  H1011   1.107   .     S
C1006  H1009   1.110   .     S
C1006  H1008   1.111   .     S
C1006  H1007   1.110   .     S
C1012  H1018   1.106   .     S
C1012  C1013   1.528   .     S
C1012  H1017   1.106   .     S
C1013  H1014   1.110   .     S
C1013  H1015   1.110   .     S
C1013  H1016   1.111   .     S
C1019  C1020   1.524   .     S
C1019  H1025   1.108   .     S
C1020  H1021   1.110   .     S
H1022  C762    1.109   1_565 S
H1023  C762    1.110   1_565 S
H1024  C761    1.105   1_565 S
C1026  H1032   1.109   .     S
C1026  C1027   1.527   .     S
C1026  H773    1.105   1_565 S
C1027  H1028   1.110   .     S
C1027  H771    1.109   1_565 S
C1027  H772    1.111   1_565 S
