data_str_m3_o2_o10_pcu_sym.63
_audit_creation_date              2020-01-03
_audit_creation_method            'Materials Studio'
_symmetry_space_group_name_H-M    'P1'
_symmetry_Int_Tables_number       1
_symmetry_cell_setting            triclinic
loop_
_symmetry_equiv_pos_as_xyz
  x,y,z
_cell_length_a                    25.8241
_cell_length_b                    29.8239
_cell_length_c                    28.5434
_cell_angle_alpha                 89.3094
_cell_angle_beta                  98.2747
_cell_angle_gamma                 92.3042
loop_
_atom_site_label
_atom_site_type_symbol
_atom_site_fract_x
_atom_site_fract_y
_atom_site_fract_z
_atom_site_U_iso_or_equiv
_atom_site_adp_type
_atom_site_occupancy
O1     O     0.16667   0.18454   0.28974   0.00000  Uiso   1.00
O2     O     0.16666   0.31547   0.21026   0.00000  Uiso   1.00
O3     O     0.16667   0.18453   0.21026   0.00000  Uiso   1.00
O4     O     0.16666   0.31547   0.28974   0.00000  Uiso   1.00
C5     C     0.16981   0.16382   0.25076   0.00000  Uiso   1.00
C6     C     0.16631   0.33604   0.24961   0.00000  Uiso   1.00
O7     O     0.09058   0.25000   0.28044   0.00000  Uiso   1.00
O8     O     0.24275   0.25000   0.21955   0.00000  Uiso   1.00
O9     O     0.09058   0.25000   0.20096   0.00000  Uiso   1.00
O10    O     0.24275   0.25001   0.29903   0.00000  Uiso   1.00
C11    C     0.06726   0.24966   0.23779   0.00000  Uiso   1.00
C12    C     0.26616   0.25115   0.26212   0.00000  Uiso   1.00
Zn13   Zn    0.16667   0.25001   0.30307   0.00000  Uiso   1.00
Zn14   Zn    0.16667   0.25000   0.19693   0.00000  Uiso   1.00
C15    C     0.01262   0.24341   0.23254   0.00000  Uiso   1.00
C16    C     0.32072   0.25964   0.26657   0.00000  Uiso   1.00
C17    C     0.18791   0.04432   0.29240   0.00000  Uiso   1.00
C18    C     0.15070   0.45577   0.21298   0.00000  Uiso   1.00
H19    H     0.18676   0.02403   0.32403   0.00000  Uiso   1.00
H20    H     0.12648   0.47635   0.18782   0.00000  Uiso   1.00
C21    C     0.18251   0.09031   0.29465   0.00000  Uiso   1.00
C22    C     0.14050   0.40966   0.21415   0.00000  Uiso   1.00
C23    C     0.18032   0.11609   0.25241   0.00000  Uiso   1.00
C24    C     0.17088   0.38411   0.24905   0.00000  Uiso   1.00
C25    C     0.18925   0.09568   0.21031   0.00000  Uiso   1.00
C26    C     0.21049   0.40437   0.28138   0.00000  Uiso   1.00
H27    H     0.19100   0.11482   0.17813   0.00000  Uiso   1.00
H28    H     0.23498   0.38454   0.30699   0.00000  Uiso   1.00
C29    C     0.19527   0.04999   0.20879   0.00000  Uiso   1.00
C30    C     0.21968   0.45019   0.28016   0.00000  Uiso   1.00
H31    H     0.20004   0.03451   0.17560   0.00000  Uiso   1.00
H32    H     0.24981   0.46573   0.30590   0.00000  Uiso   1.00
C33    C     0.19296   0.02422   0.24947   0.00000  Uiso   1.00
C34    C     0.18942   0.47589   0.24634   0.00000  Uiso   1.00
C35    C     0.12892   0.22700   0.04737   0.00000  Uiso   1.00
C36    C     0.18971   0.28390   0.45092   0.00000  Uiso   1.00
H37    H     0.09587   0.21170   0.02470   0.00000  Uiso   1.00
H38    H     0.20377   0.31331   0.47140   0.00000  Uiso   1.00
C39    C     0.12877   0.22654   0.09688   0.00000  Uiso   1.00
C40    C     0.19154   0.28392   0.40158   0.00000  Uiso   1.00
N41    N     0.16667   0.24999   0.12623   0.00000  Uiso   1.00
N42    N     0.16667   0.25001   0.37376   0.00000  Uiso   1.00
C43    C     0.20483   0.27445   0.10657   0.00000  Uiso   1.00
C44    C     0.14063   0.21573   0.39526   0.00000  Uiso   1.00
C45    C     0.21219   0.26755   0.05873   0.00000  Uiso   1.00
C46    C     0.15021   0.20956   0.44542   0.00000  Uiso   1.00
C47    C     0.17161   0.24599   0.02745   0.00000  Uiso   1.00
C48    C     0.17139   0.24594   0.47409   0.00000  Uiso   1.00
N49    N     0.32220   0.21129   0.19790   0.00000  Uiso   1.00
O50    O     0.31358   0.22257   0.15342   0.00000  Uiso   1.00
O51    O     0.30683   0.17166   0.21120   0.00000  Uiso   1.00
N52    N     0.01077   0.29287   0.30039   0.00000  Uiso   1.00
O53    O     0.00188   0.29055   0.34403   0.00000  Uiso   1.00
O54    O     0.03554   0.32827   0.28634   0.00000  Uiso   1.00
N55    N     0.17968   0.10968   0.33987   0.00000  Uiso   1.00
O56    O     0.21791   0.13618   0.35917   0.00000  Uiso   1.00
O57    O     0.14700   0.09222   0.36632   0.00000  Uiso   1.00
N58    N     0.09838   0.38994   0.18129   0.00000  Uiso   1.00
O59    O     0.06957   0.35648   0.19409   0.00000  Uiso   1.00
O60    O     0.08461   0.40881   0.14027   0.00000  Uiso   1.00
N61    N     0.08630   0.20512   0.11571   0.00000  Uiso   1.00
H62    H     0.05111   0.21828   0.10160   0.00000  Uiso   1.00
C63    C     0.08417   0.15672   0.11261   0.00000  Uiso   1.00
H64    H     0.07397   0.14597   0.07516   0.00000  Uiso   1.00
H65    H     0.05383   0.14272   0.13317   0.00000  Uiso   1.00
H66    H     0.12238   0.14309   0.12750   0.00000  Uiso   1.00
N67    N     0.21553   0.32107   0.38026   0.00000  Uiso   1.00
H68    H     0.18986   0.34638   0.37115   0.00000  Uiso   1.00
C69    C     0.26550   0.33796   0.40464   0.00000  Uiso   1.00
H70    H     0.25972   0.35953   0.43477   0.00000  Uiso   1.00
H71    H     0.28587   0.35868   0.37985   0.00000  Uiso   1.00
H72    H     0.29070   0.30984   0.41789   0.00000  Uiso   1.00
N73    N     0.23369   0.31040   0.13184   0.00000  Uiso   1.00
H74    H     0.24160   0.30690   0.16768   0.00000  Uiso   1.00
C75    C     0.21388   0.35423   0.11869   0.00000  Uiso   1.00
H76    H     0.17344   0.35658   0.12713   0.00000  Uiso   1.00
H77    H     0.21353   0.36070   0.08025   0.00000  Uiso   1.00
H78    H     0.23932   0.38055   0.13862   0.00000  Uiso   1.00
N79    N     0.10107   0.18807   0.36831   0.00000  Uiso   1.00
H80    H     0.10179   0.18577   0.33287   0.00000  Uiso   1.00
C81    C     0.04793   0.19215   0.37848   0.00000  Uiso   1.00
H82    H     0.02323   0.20679   0.34755   0.00000  Uiso   1.00
H83    H     0.04617   0.21348   0.40988   0.00000  Uiso   1.00
H84    H     0.03077   0.15832   0.38486   0.00000  Uiso   1.00
N85    N     0.26193   0.27924   0.04331   0.00000  Uiso   1.00
O86    O     0.28164   0.25208   0.01582   0.00000  Uiso   1.00
O87    O     0.29088   0.31337   0.06098   0.00000  Uiso   1.00
N88    N     0.14304   0.16588   0.46658   0.00000  Uiso   1.00
O89    O     0.17709   0.15271   0.00166   0.00000  Uiso   1.00
O90    O     0.10716   0.13696   0.44796   0.00000  Uiso   1.00
O91    O     0.50000   0.18454   0.28974   0.00000  Uiso   1.00
O92    O     0.50000   0.31547   0.21026   0.00000  Uiso   1.00
O93    O     0.50000   0.18453   0.21026   0.00000  Uiso   1.00
O94    O     0.50000   0.31547   0.28974   0.00000  Uiso   1.00
C95    C     0.50314   0.16382   0.25076   0.00000  Uiso   1.00
C96    C     0.49964   0.33604   0.24961   0.00000  Uiso   1.00
O97    O     0.42392   0.25000   0.28044   0.00000  Uiso   1.00
O98    O     0.57608   0.25000   0.21955   0.00000  Uiso   1.00
O99    O     0.42392   0.25000   0.20096   0.00000  Uiso   1.00
O100   O     0.57608   0.25001   0.29903   0.00000  Uiso   1.00
C101   C     0.40059   0.24966   0.23779   0.00000  Uiso   1.00
C102   C     0.59949   0.25115   0.26212   0.00000  Uiso   1.00
Zn103  Zn    0.50000   0.25001   0.30307   0.00000  Uiso   1.00
Zn104  Zn    0.50000   0.25000   0.19693   0.00000  Uiso   1.00
C105   C     0.34595   0.24341   0.23254   0.00000  Uiso   1.00
C106   C     0.65406   0.25964   0.26657   0.00000  Uiso   1.00
C107   C     0.52124   0.04432   0.29240   0.00000  Uiso   1.00
C108   C     0.48404   0.45577   0.21298   0.00000  Uiso   1.00
H109   H     0.52009   0.02403   0.32403   0.00000  Uiso   1.00
H110   H     0.45982   0.47635   0.18782   0.00000  Uiso   1.00
C111   C     0.51584   0.09031   0.29465   0.00000  Uiso   1.00
C112   C     0.47383   0.40966   0.21415   0.00000  Uiso   1.00
C113   C     0.51365   0.11609   0.25241   0.00000  Uiso   1.00
C114   C     0.50421   0.38411   0.24905   0.00000  Uiso   1.00
C115   C     0.52259   0.09568   0.21031   0.00000  Uiso   1.00
C116   C     0.54383   0.40437   0.28138   0.00000  Uiso   1.00
H117   H     0.52433   0.11482   0.17813   0.00000  Uiso   1.00
H118   H     0.56831   0.38454   0.30699   0.00000  Uiso   1.00
C119   C     0.52860   0.04999   0.20879   0.00000  Uiso   1.00
C120   C     0.55302   0.45019   0.28016   0.00000  Uiso   1.00
H121   H     0.53337   0.03451   0.17560   0.00000  Uiso   1.00
H122   H     0.58314   0.46573   0.30590   0.00000  Uiso   1.00
C123   C     0.52629   0.02422   0.24947   0.00000  Uiso   1.00
C124   C     0.52275   0.47589   0.24634   0.00000  Uiso   1.00
C125   C     0.46225   0.22700   0.04737   0.00000  Uiso   1.00
C126   C     0.52304   0.28390   0.45092   0.00000  Uiso   1.00
H127   H     0.42921   0.21170   0.02470   0.00000  Uiso   1.00
H128   H     0.53711   0.31331   0.47140   0.00000  Uiso   1.00
C129   C     0.46210   0.22654   0.09688   0.00000  Uiso   1.00
C130   C     0.52487   0.28392   0.40158   0.00000  Uiso   1.00
N131   N     0.50000   0.24999   0.12623   0.00000  Uiso   1.00
N132   N     0.50000   0.25001   0.37376   0.00000  Uiso   1.00
C133   C     0.53816   0.27445   0.10657   0.00000  Uiso   1.00
C134   C     0.47396   0.21573   0.39526   0.00000  Uiso   1.00
C135   C     0.54552   0.26755   0.05873   0.00000  Uiso   1.00
C136   C     0.48354   0.20956   0.44542   0.00000  Uiso   1.00
C137   C     0.50495   0.24599   0.02745   0.00000  Uiso   1.00
C138   C     0.50472   0.24594   0.47409   0.00000  Uiso   1.00
N139   N     0.65553   0.21129   0.19790   0.00000  Uiso   1.00
O140   O     0.64691   0.22257   0.15342   0.00000  Uiso   1.00
O141   O     0.64016   0.17166   0.21120   0.00000  Uiso   1.00
N142   N     0.34410   0.29287   0.30039   0.00000  Uiso   1.00
O143   O     0.33521   0.29055   0.34403   0.00000  Uiso   1.00
O144   O     0.36887   0.32827   0.28634   0.00000  Uiso   1.00
N145   N     0.51302   0.10968   0.33987   0.00000  Uiso   1.00
O146   O     0.55124   0.13618   0.35917   0.00000  Uiso   1.00
O147   O     0.48033   0.09222   0.36632   0.00000  Uiso   1.00
N148   N     0.43171   0.38994   0.18129   0.00000  Uiso   1.00
O149   O     0.40290   0.35648   0.19409   0.00000  Uiso   1.00
O150   O     0.41795   0.40881   0.14027   0.00000  Uiso   1.00
N151   N     0.41963   0.20512   0.11571   0.00000  Uiso   1.00
H152   H     0.38444   0.21828   0.10160   0.00000  Uiso   1.00
C153   C     0.41751   0.15672   0.11261   0.00000  Uiso   1.00
H154   H     0.40730   0.14597   0.07516   0.00000  Uiso   1.00
H155   H     0.38716   0.14272   0.13317   0.00000  Uiso   1.00
H156   H     0.45571   0.14309   0.12750   0.00000  Uiso   1.00
N157   N     0.54886   0.32107   0.38026   0.00000  Uiso   1.00
H158   H     0.52320   0.34638   0.37115   0.00000  Uiso   1.00
C159   C     0.59883   0.33796   0.40464   0.00000  Uiso   1.00
H160   H     0.59305   0.35953   0.43477   0.00000  Uiso   1.00
H161   H     0.61921   0.35868   0.37985   0.00000  Uiso   1.00
H162   H     0.62404   0.30984   0.41789   0.00000  Uiso   1.00
N163   N     0.56703   0.31040   0.13184   0.00000  Uiso   1.00
H164   H     0.57494   0.30690   0.16768   0.00000  Uiso   1.00
C165   C     0.54721   0.35423   0.11869   0.00000  Uiso   1.00
H166   H     0.50677   0.35658   0.12713   0.00000  Uiso   1.00
H167   H     0.54686   0.36070   0.08025   0.00000  Uiso   1.00
H168   H     0.57266   0.38055   0.13862   0.00000  Uiso   1.00
N169   N     0.43440   0.18807   0.36831   0.00000  Uiso   1.00
H170   H     0.43512   0.18577   0.33287   0.00000  Uiso   1.00
C171   C     0.38127   0.19215   0.37848   0.00000  Uiso   1.00
H172   H     0.35656   0.20679   0.34755   0.00000  Uiso   1.00
H173   H     0.37951   0.21348   0.40988   0.00000  Uiso   1.00
H174   H     0.36410   0.15832   0.38486   0.00000  Uiso   1.00
N175   N     0.59527   0.27924   0.04331   0.00000  Uiso   1.00
O176   O     0.61498   0.25208   0.01582   0.00000  Uiso   1.00
O177   O     0.62421   0.31337   0.06098   0.00000  Uiso   1.00
N178   N     0.47637   0.16588   0.46658   0.00000  Uiso   1.00
O179   O     0.51042   0.15271   0.00166   0.00000  Uiso   1.00
O180   O     0.44049   0.13696   0.44796   0.00000  Uiso   1.00
O181   O     0.83334   0.18454   0.28974   0.00000  Uiso   1.00
O182   O     0.83333   0.31547   0.21026   0.00000  Uiso   1.00
O183   O     0.83334   0.18453   0.21026   0.00000  Uiso   1.00
O184   O     0.83333   0.31547   0.28974   0.00000  Uiso   1.00
C185   C     0.83647   0.16382   0.25076   0.00000  Uiso   1.00
C186   C     0.83297   0.33604   0.24961   0.00000  Uiso   1.00
O187   O     0.75725   0.25000   0.28044   0.00000  Uiso   1.00
O188   O     0.90942   0.25000   0.21955   0.00000  Uiso   1.00
O189   O     0.75725   0.25000   0.20096   0.00000  Uiso   1.00
O190   O     0.90942   0.25001   0.29903   0.00000  Uiso   1.00
C191   C     0.73393   0.24966   0.23779   0.00000  Uiso   1.00
C192   C     0.93283   0.25115   0.26212   0.00000  Uiso   1.00
Zn193  Zn    0.83333   0.25001   0.30307   0.00000  Uiso   1.00
Zn194  Zn    0.83333   0.25000   0.19693   0.00000  Uiso   1.00
C195   C     0.67928   0.24341   0.23254   0.00000  Uiso   1.00
C196   C     0.98739   0.25964   0.26657   0.00000  Uiso   1.00
C197   C     0.85458   0.04432   0.29240   0.00000  Uiso   1.00
C198   C     0.81737   0.45577   0.21298   0.00000  Uiso   1.00
H199   H     0.85343   0.02403   0.32403   0.00000  Uiso   1.00
H200   H     0.79315   0.47635   0.18782   0.00000  Uiso   1.00
C201   C     0.84918   0.09031   0.29465   0.00000  Uiso   1.00
C202   C     0.80716   0.40966   0.21415   0.00000  Uiso   1.00
C203   C     0.84698   0.11609   0.25241   0.00000  Uiso   1.00
C204   C     0.83755   0.38411   0.24905   0.00000  Uiso   1.00
C205   C     0.85592   0.09568   0.21031   0.00000  Uiso   1.00
C206   C     0.87716   0.40437   0.28138   0.00000  Uiso   1.00
H207   H     0.85767   0.11482   0.17813   0.00000  Uiso   1.00
H208   H     0.90164   0.38454   0.30699   0.00000  Uiso   1.00
C209   C     0.86193   0.04999   0.20879   0.00000  Uiso   1.00
C210   C     0.88635   0.45019   0.28016   0.00000  Uiso   1.00
H211   H     0.86671   0.03451   0.17560   0.00000  Uiso   1.00
H212   H     0.91648   0.46573   0.30590   0.00000  Uiso   1.00
C213   C     0.85962   0.02422   0.24947   0.00000  Uiso   1.00
C214   C     0.85608   0.47589   0.24634   0.00000  Uiso   1.00
C215   C     0.79559   0.22700   0.04737   0.00000  Uiso   1.00
C216   C     0.85638   0.28390   0.45092   0.00000  Uiso   1.00
H217   H     0.76254   0.21170   0.02470   0.00000  Uiso   1.00
H218   H     0.87044   0.31331   0.47140   0.00000  Uiso   1.00
C219   C     0.79543   0.22654   0.09688   0.00000  Uiso   1.00
C220   C     0.85821   0.28392   0.40158   0.00000  Uiso   1.00
N221   N     0.83333   0.24999   0.12623   0.00000  Uiso   1.00
N222   N     0.83333   0.25001   0.37376   0.00000  Uiso   1.00
C223   C     0.87150   0.27445   0.10657   0.00000  Uiso   1.00
C224   C     0.80730   0.21573   0.39526   0.00000  Uiso   1.00
C225   C     0.87886   0.26755   0.05873   0.00000  Uiso   1.00
C226   C     0.81687   0.20956   0.44542   0.00000  Uiso   1.00
C227   C     0.83828   0.24599   0.02745   0.00000  Uiso   1.00
C228   C     0.83806   0.24594   0.47409   0.00000  Uiso   1.00
N229   N     0.98887   0.21129   0.19790   0.00000  Uiso   1.00
O230   O     0.98025   0.22257   0.15342   0.00000  Uiso   1.00
O231   O     0.97349   0.17166   0.21120   0.00000  Uiso   1.00
N232   N     0.67743   0.29287   0.30039   0.00000  Uiso   1.00
O233   O     0.66854   0.29055   0.34403   0.00000  Uiso   1.00
O234   O     0.70220   0.32827   0.28634   0.00000  Uiso   1.00
N235   N     0.84635   0.10968   0.33987   0.00000  Uiso   1.00
O236   O     0.88457   0.13618   0.35917   0.00000  Uiso   1.00
O237   O     0.81367   0.09222   0.36632   0.00000  Uiso   1.00
N238   N     0.76504   0.38994   0.18129   0.00000  Uiso   1.00
O239   O     0.73624   0.35648   0.19409   0.00000  Uiso   1.00
O240   O     0.75128   0.40881   0.14027   0.00000  Uiso   1.00
N241   N     0.75297   0.20512   0.11571   0.00000  Uiso   1.00
H242   H     0.71777   0.21828   0.10160   0.00000  Uiso   1.00
C243   C     0.75084   0.15672   0.11261   0.00000  Uiso   1.00
H244   H     0.74063   0.14597   0.07516   0.00000  Uiso   1.00
H245   H     0.72050   0.14272   0.13317   0.00000  Uiso   1.00
H246   H     0.78904   0.14309   0.12750   0.00000  Uiso   1.00
N247   N     0.88219   0.32107   0.38026   0.00000  Uiso   1.00
H248   H     0.85653   0.34638   0.37115   0.00000  Uiso   1.00
C249   C     0.93216   0.33796   0.40464   0.00000  Uiso   1.00
H250   H     0.92638   0.35953   0.43477   0.00000  Uiso   1.00
H251   H     0.95254   0.35868   0.37985   0.00000  Uiso   1.00
H252   H     0.95737   0.30984   0.41789   0.00000  Uiso   1.00
N253   N     0.90036   0.31040   0.13184   0.00000  Uiso   1.00
H254   H     0.90827   0.30690   0.16768   0.00000  Uiso   1.00
C255   C     0.88054   0.35423   0.11869   0.00000  Uiso   1.00
H256   H     0.84010   0.35658   0.12713   0.00000  Uiso   1.00
H257   H     0.88020   0.36070   0.08025   0.00000  Uiso   1.00
H258   H     0.90599   0.38055   0.13862   0.00000  Uiso   1.00
N259   N     0.76773   0.18807   0.36831   0.00000  Uiso   1.00
H260   H     0.76845   0.18577   0.33287   0.00000  Uiso   1.00
C261   C     0.71460   0.19215   0.37848   0.00000  Uiso   1.00
H262   H     0.68990   0.20679   0.34755   0.00000  Uiso   1.00
H263   H     0.71284   0.21348   0.40988   0.00000  Uiso   1.00
H264   H     0.69744   0.15832   0.38486   0.00000  Uiso   1.00
N265   N     0.92860   0.27924   0.04331   0.00000  Uiso   1.00
O266   O     0.94831   0.25208   0.01582   0.00000  Uiso   1.00
O267   O     0.95755   0.31337   0.06098   0.00000  Uiso   1.00
N268   N     0.80970   0.16588   0.46658   0.00000  Uiso   1.00
O269   O     0.84376   0.15271   0.00166   0.00000  Uiso   1.00
O270   O     0.77383   0.13696   0.44796   0.00000  Uiso   1.00
O271   O     0.16667   0.68454   0.28974   0.00000  Uiso   1.00
O272   O     0.16666   0.81547   0.21026   0.00000  Uiso   1.00
O273   O     0.16667   0.68453   0.21026   0.00000  Uiso   1.00
O274   O     0.16666   0.81547   0.28974   0.00000  Uiso   1.00
C275   C     0.16981   0.66382   0.25076   0.00000  Uiso   1.00
C276   C     0.16631   0.83604   0.24961   0.00000  Uiso   1.00
O277   O     0.09058   0.75000   0.28044   0.00000  Uiso   1.00
O278   O     0.24275   0.75000   0.21955   0.00000  Uiso   1.00
O279   O     0.09058   0.75000   0.20096   0.00000  Uiso   1.00
O280   O     0.24275   0.75001   0.29903   0.00000  Uiso   1.00
C281   C     0.06726   0.74966   0.23779   0.00000  Uiso   1.00
C282   C     0.26616   0.75115   0.26212   0.00000  Uiso   1.00
Zn283  Zn    0.16667   0.75001   0.30307   0.00000  Uiso   1.00
Zn284  Zn    0.16667   0.75000   0.19693   0.00000  Uiso   1.00
C285   C     0.01262   0.74341   0.23254   0.00000  Uiso   1.00
C286   C     0.32072   0.75964   0.26657   0.00000  Uiso   1.00
C287   C     0.18791   0.54432   0.29240   0.00000  Uiso   1.00
C288   C     0.15070   0.95577   0.21298   0.00000  Uiso   1.00
H289   H     0.18676   0.52403   0.32403   0.00000  Uiso   1.00
H290   H     0.12648   0.97635   0.18782   0.00000  Uiso   1.00
C291   C     0.18251   0.59031   0.29465   0.00000  Uiso   1.00
C292   C     0.14050   0.90966   0.21415   0.00000  Uiso   1.00
C293   C     0.18032   0.61609   0.25241   0.00000  Uiso   1.00
C294   C     0.17088   0.88411   0.24905   0.00000  Uiso   1.00
C295   C     0.18925   0.59568   0.21031   0.00000  Uiso   1.00
C296   C     0.21049   0.90437   0.28138   0.00000  Uiso   1.00
H297   H     0.19100   0.61482   0.17813   0.00000  Uiso   1.00
H298   H     0.23498   0.88454   0.30699   0.00000  Uiso   1.00
C299   C     0.19527   0.54999   0.20879   0.00000  Uiso   1.00
C300   C     0.21968   0.95019   0.28016   0.00000  Uiso   1.00
H301   H     0.20004   0.53451   0.17560   0.00000  Uiso   1.00
H302   H     0.24981   0.96573   0.30590   0.00000  Uiso   1.00
C303   C     0.19296   0.52422   0.24947   0.00000  Uiso   1.00
C304   C     0.18942   0.97589   0.24634   0.00000  Uiso   1.00
C305   C     0.12892   0.72700   0.04737   0.00000  Uiso   1.00
C306   C     0.18971   0.78390   0.45092   0.00000  Uiso   1.00
H307   H     0.09587   0.71170   0.02470   0.00000  Uiso   1.00
H308   H     0.20377   0.81331   0.47140   0.00000  Uiso   1.00
C309   C     0.12877   0.72654   0.09688   0.00000  Uiso   1.00
C310   C     0.19154   0.78392   0.40158   0.00000  Uiso   1.00
N311   N     0.16667   0.74999   0.12623   0.00000  Uiso   1.00
N312   N     0.16667   0.75001   0.37376   0.00000  Uiso   1.00
C313   C     0.20483   0.77445   0.10657   0.00000  Uiso   1.00
C314   C     0.14063   0.71573   0.39526   0.00000  Uiso   1.00
C315   C     0.21219   0.76755   0.05873   0.00000  Uiso   1.00
C316   C     0.15021   0.70956   0.44542   0.00000  Uiso   1.00
C317   C     0.17161   0.74599   0.02745   0.00000  Uiso   1.00
C318   C     0.17139   0.74594   0.47409   0.00000  Uiso   1.00
N319   N     0.32220   0.71129   0.19790   0.00000  Uiso   1.00
O320   O     0.31358   0.72257   0.15342   0.00000  Uiso   1.00
O321   O     0.30683   0.67166   0.21120   0.00000  Uiso   1.00
N322   N     0.01077   0.79287   0.30039   0.00000  Uiso   1.00
O323   O     0.00188   0.79055   0.34403   0.00000  Uiso   1.00
O324   O     0.03554   0.82827   0.28634   0.00000  Uiso   1.00
N325   N     0.17968   0.60968   0.33987   0.00000  Uiso   1.00
O326   O     0.21791   0.63618   0.35917   0.00000  Uiso   1.00
O327   O     0.14700   0.59222   0.36632   0.00000  Uiso   1.00
N328   N     0.09838   0.88994   0.18129   0.00000  Uiso   1.00
O329   O     0.06957   0.85648   0.19409   0.00000  Uiso   1.00
O330   O     0.08461   0.90881   0.14027   0.00000  Uiso   1.00
N331   N     0.08630   0.70512   0.11571   0.00000  Uiso   1.00
H332   H     0.05111   0.71828   0.10160   0.00000  Uiso   1.00
C333   C     0.08417   0.65672   0.11261   0.00000  Uiso   1.00
H334   H     0.07397   0.64597   0.07516   0.00000  Uiso   1.00
H335   H     0.05383   0.64272   0.13317   0.00000  Uiso   1.00
H336   H     0.12238   0.64309   0.12750   0.00000  Uiso   1.00
N337   N     0.21553   0.82107   0.38026   0.00000  Uiso   1.00
H338   H     0.18986   0.84638   0.37115   0.00000  Uiso   1.00
C339   C     0.26550   0.83796   0.40464   0.00000  Uiso   1.00
H340   H     0.25972   0.85953   0.43477   0.00000  Uiso   1.00
H341   H     0.28587   0.85868   0.37985   0.00000  Uiso   1.00
H342   H     0.29070   0.80984   0.41789   0.00000  Uiso   1.00
N343   N     0.23369   0.81040   0.13184   0.00000  Uiso   1.00
H344   H     0.24160   0.80690   0.16768   0.00000  Uiso   1.00
C345   C     0.21388   0.85423   0.11869   0.00000  Uiso   1.00
H346   H     0.17344   0.85658   0.12713   0.00000  Uiso   1.00
H347   H     0.21353   0.86070   0.08025   0.00000  Uiso   1.00
H348   H     0.23932   0.88055   0.13862   0.00000  Uiso   1.00
N349   N     0.10107   0.68807   0.36831   0.00000  Uiso   1.00
H350   H     0.10179   0.68577   0.33287   0.00000  Uiso   1.00
C351   C     0.04793   0.69215   0.37848   0.00000  Uiso   1.00
H352   H     0.02323   0.70679   0.34755   0.00000  Uiso   1.00
H353   H     0.04617   0.71348   0.40988   0.00000  Uiso   1.00
H354   H     0.03077   0.65832   0.38486   0.00000  Uiso   1.00
N355   N     0.26193   0.77924   0.04331   0.00000  Uiso   1.00
O356   O     0.28164   0.75208   0.01582   0.00000  Uiso   1.00
O357   O     0.29088   0.81337   0.06098   0.00000  Uiso   1.00
N358   N     0.14304   0.66588   0.46658   0.00000  Uiso   1.00
O359   O     0.17709   0.65271   0.00166   0.00000  Uiso   1.00
O360   O     0.10716   0.63696   0.44796   0.00000  Uiso   1.00
O361   O     0.50000   0.68454   0.28974   0.00000  Uiso   1.00
O362   O     0.50000   0.81547   0.21026   0.00000  Uiso   1.00
O363   O     0.50000   0.68453   0.21026   0.00000  Uiso   1.00
O364   O     0.50000   0.81547   0.28974   0.00000  Uiso   1.00
C365   C     0.50314   0.66382   0.25076   0.00000  Uiso   1.00
C366   C     0.49964   0.83604   0.24961   0.00000  Uiso   1.00
O367   O     0.42392   0.75000   0.28044   0.00000  Uiso   1.00
O368   O     0.57608   0.75000   0.21955   0.00000  Uiso   1.00
O369   O     0.42392   0.75000   0.20096   0.00000  Uiso   1.00
O370   O     0.57608   0.75001   0.29903   0.00000  Uiso   1.00
C371   C     0.40059   0.74966   0.23779   0.00000  Uiso   1.00
C372   C     0.59949   0.75115   0.26212   0.00000  Uiso   1.00
Zn373  Zn    0.50000   0.75001   0.30307   0.00000  Uiso   1.00
Zn374  Zn    0.50000   0.75000   0.19693   0.00000  Uiso   1.00
C375   C     0.34595   0.74341   0.23254   0.00000  Uiso   1.00
C376   C     0.65406   0.75964   0.26657   0.00000  Uiso   1.00
C377   C     0.52124   0.54432   0.29240   0.00000  Uiso   1.00
C378   C     0.48404   0.95577   0.21298   0.00000  Uiso   1.00
H379   H     0.52009   0.52403   0.32403   0.00000  Uiso   1.00
H380   H     0.45982   0.97635   0.18782   0.00000  Uiso   1.00
C381   C     0.51584   0.59031   0.29465   0.00000  Uiso   1.00
C382   C     0.47383   0.90966   0.21415   0.00000  Uiso   1.00
C383   C     0.51365   0.61609   0.25241   0.00000  Uiso   1.00
C384   C     0.50421   0.88411   0.24905   0.00000  Uiso   1.00
C385   C     0.52259   0.59568   0.21031   0.00000  Uiso   1.00
C386   C     0.54383   0.90437   0.28138   0.00000  Uiso   1.00
H387   H     0.52433   0.61482   0.17813   0.00000  Uiso   1.00
H388   H     0.56831   0.88454   0.30699   0.00000  Uiso   1.00
C389   C     0.52860   0.54999   0.20879   0.00000  Uiso   1.00
C390   C     0.55302   0.95019   0.28016   0.00000  Uiso   1.00
H391   H     0.53337   0.53451   0.17560   0.00000  Uiso   1.00
H392   H     0.58314   0.96573   0.30590   0.00000  Uiso   1.00
C393   C     0.52629   0.52422   0.24947   0.00000  Uiso   1.00
C394   C     0.52275   0.97589   0.24634   0.00000  Uiso   1.00
C395   C     0.46225   0.72700   0.04737   0.00000  Uiso   1.00
C396   C     0.52304   0.78390   0.45092   0.00000  Uiso   1.00
H397   H     0.42921   0.71170   0.02470   0.00000  Uiso   1.00
H398   H     0.53711   0.81331   0.47140   0.00000  Uiso   1.00
C399   C     0.46210   0.72654   0.09688   0.00000  Uiso   1.00
C400   C     0.52487   0.78392   0.40158   0.00000  Uiso   1.00
N401   N     0.50000   0.74999   0.12623   0.00000  Uiso   1.00
N402   N     0.50000   0.75001   0.37376   0.00000  Uiso   1.00
C403   C     0.53816   0.77445   0.10657   0.00000  Uiso   1.00
C404   C     0.47396   0.71573   0.39526   0.00000  Uiso   1.00
C405   C     0.54552   0.76755   0.05873   0.00000  Uiso   1.00
C406   C     0.48354   0.70956   0.44542   0.00000  Uiso   1.00
C407   C     0.50495   0.74599   0.02745   0.00000  Uiso   1.00
C408   C     0.50472   0.74594   0.47409   0.00000  Uiso   1.00
N409   N     0.65553   0.71129   0.19790   0.00000  Uiso   1.00
O410   O     0.64691   0.72257   0.15342   0.00000  Uiso   1.00
O411   O     0.64016   0.67166   0.21120   0.00000  Uiso   1.00
N412   N     0.34410   0.79287   0.30039   0.00000  Uiso   1.00
O413   O     0.33521   0.79055   0.34403   0.00000  Uiso   1.00
O414   O     0.36887   0.82827   0.28634   0.00000  Uiso   1.00
N415   N     0.51302   0.60968   0.33987   0.00000  Uiso   1.00
O416   O     0.55124   0.63618   0.35917   0.00000  Uiso   1.00
O417   O     0.48033   0.59222   0.36632   0.00000  Uiso   1.00
N418   N     0.43171   0.88994   0.18129   0.00000  Uiso   1.00
O419   O     0.40290   0.85648   0.19409   0.00000  Uiso   1.00
O420   O     0.41795   0.90881   0.14027   0.00000  Uiso   1.00
N421   N     0.41963   0.70512   0.11571   0.00000  Uiso   1.00
H422   H     0.38444   0.71828   0.10160   0.00000  Uiso   1.00
C423   C     0.41751   0.65672   0.11261   0.00000  Uiso   1.00
H424   H     0.40730   0.64597   0.07516   0.00000  Uiso   1.00
H425   H     0.38716   0.64272   0.13317   0.00000  Uiso   1.00
H426   H     0.45571   0.64309   0.12750   0.00000  Uiso   1.00
N427   N     0.54886   0.82107   0.38026   0.00000  Uiso   1.00
H428   H     0.52320   0.84638   0.37115   0.00000  Uiso   1.00
C429   C     0.59883   0.83796   0.40464   0.00000  Uiso   1.00
H430   H     0.59305   0.85953   0.43477   0.00000  Uiso   1.00
H431   H     0.61921   0.85868   0.37985   0.00000  Uiso   1.00
H432   H     0.62404   0.80984   0.41789   0.00000  Uiso   1.00
N433   N     0.56703   0.81040   0.13184   0.00000  Uiso   1.00
H434   H     0.57494   0.80690   0.16768   0.00000  Uiso   1.00
C435   C     0.54721   0.85423   0.11869   0.00000  Uiso   1.00
H436   H     0.50677   0.85658   0.12713   0.00000  Uiso   1.00
H437   H     0.54686   0.86070   0.08025   0.00000  Uiso   1.00
H438   H     0.57266   0.88055   0.13862   0.00000  Uiso   1.00
N439   N     0.43440   0.68807   0.36831   0.00000  Uiso   1.00
H440   H     0.43512   0.68577   0.33287   0.00000  Uiso   1.00
C441   C     0.38127   0.69215   0.37848   0.00000  Uiso   1.00
H442   H     0.35656   0.70679   0.34755   0.00000  Uiso   1.00
H443   H     0.37951   0.71348   0.40988   0.00000  Uiso   1.00
H444   H     0.36410   0.65832   0.38486   0.00000  Uiso   1.00
N445   N     0.59527   0.77924   0.04331   0.00000  Uiso   1.00
O446   O     0.61498   0.75208   0.01582   0.00000  Uiso   1.00
O447   O     0.62421   0.81337   0.06098   0.00000  Uiso   1.00
N448   N     0.47637   0.66588   0.46658   0.00000  Uiso   1.00
O449   O     0.51042   0.65271   0.00166   0.00000  Uiso   1.00
O450   O     0.44049   0.63696   0.44796   0.00000  Uiso   1.00
O451   O     0.83334   0.68454   0.28974   0.00000  Uiso   1.00
O452   O     0.83333   0.81547   0.21026   0.00000  Uiso   1.00
O453   O     0.83334   0.68453   0.21026   0.00000  Uiso   1.00
O454   O     0.83333   0.81547   0.28974   0.00000  Uiso   1.00
C455   C     0.83647   0.66382   0.25076   0.00000  Uiso   1.00
C456   C     0.83297   0.83604   0.24961   0.00000  Uiso   1.00
O457   O     0.75725   0.75000   0.28044   0.00000  Uiso   1.00
O458   O     0.90942   0.75000   0.21955   0.00000  Uiso   1.00
O459   O     0.75725   0.75000   0.20096   0.00000  Uiso   1.00
O460   O     0.90942   0.75001   0.29903   0.00000  Uiso   1.00
C461   C     0.73393   0.74966   0.23779   0.00000  Uiso   1.00
C462   C     0.93283   0.75115   0.26212   0.00000  Uiso   1.00
Zn463  Zn    0.83333   0.75001   0.30307   0.00000  Uiso   1.00
Zn464  Zn    0.83333   0.75000   0.19693   0.00000  Uiso   1.00
C465   C     0.67928   0.74341   0.23254   0.00000  Uiso   1.00
C466   C     0.98739   0.75964   0.26657   0.00000  Uiso   1.00
C467   C     0.85458   0.54432   0.29240   0.00000  Uiso   1.00
C468   C     0.81737   0.95577   0.21298   0.00000  Uiso   1.00
H469   H     0.85343   0.52403   0.32403   0.00000  Uiso   1.00
H470   H     0.79315   0.97635   0.18782   0.00000  Uiso   1.00
C471   C     0.84918   0.59031   0.29465   0.00000  Uiso   1.00
C472   C     0.80716   0.90966   0.21415   0.00000  Uiso   1.00
C473   C     0.84698   0.61609   0.25241   0.00000  Uiso   1.00
C474   C     0.83755   0.88411   0.24905   0.00000  Uiso   1.00
C475   C     0.85592   0.59568   0.21031   0.00000  Uiso   1.00
C476   C     0.87716   0.90437   0.28138   0.00000  Uiso   1.00
H477   H     0.85767   0.61482   0.17813   0.00000  Uiso   1.00
H478   H     0.90164   0.88454   0.30699   0.00000  Uiso   1.00
C479   C     0.86193   0.54999   0.20879   0.00000  Uiso   1.00
C480   C     0.88635   0.95019   0.28016   0.00000  Uiso   1.00
H481   H     0.86671   0.53451   0.17560   0.00000  Uiso   1.00
H482   H     0.91648   0.96573   0.30590   0.00000  Uiso   1.00
C483   C     0.85962   0.52422   0.24947   0.00000  Uiso   1.00
C484   C     0.85608   0.97589   0.24634   0.00000  Uiso   1.00
C485   C     0.79559   0.72700   0.04737   0.00000  Uiso   1.00
C486   C     0.85638   0.78390   0.45092   0.00000  Uiso   1.00
H487   H     0.76254   0.71170   0.02470   0.00000  Uiso   1.00
H488   H     0.87044   0.81331   0.47140   0.00000  Uiso   1.00
C489   C     0.79543   0.72654   0.09688   0.00000  Uiso   1.00
C490   C     0.85821   0.78392   0.40158   0.00000  Uiso   1.00
N491   N     0.83333   0.74999   0.12623   0.00000  Uiso   1.00
N492   N     0.83333   0.75001   0.37376   0.00000  Uiso   1.00
C493   C     0.87150   0.77445   0.10657   0.00000  Uiso   1.00
C494   C     0.80730   0.71573   0.39526   0.00000  Uiso   1.00
C495   C     0.87886   0.76755   0.05873   0.00000  Uiso   1.00
C496   C     0.81687   0.70956   0.44542   0.00000  Uiso   1.00
C497   C     0.83828   0.74599   0.02745   0.00000  Uiso   1.00
C498   C     0.83806   0.74594   0.47409   0.00000  Uiso   1.00
N499   N     0.98887   0.71129   0.19790   0.00000  Uiso   1.00
O500   O     0.98025   0.72257   0.15342   0.00000  Uiso   1.00
O501   O     0.97349   0.67166   0.21120   0.00000  Uiso   1.00
N502   N     0.67743   0.79287   0.30039   0.00000  Uiso   1.00
O503   O     0.66854   0.79055   0.34403   0.00000  Uiso   1.00
O504   O     0.70220   0.82827   0.28634   0.00000  Uiso   1.00
N505   N     0.84635   0.60968   0.33987   0.00000  Uiso   1.00
O506   O     0.88457   0.63618   0.35917   0.00000  Uiso   1.00
O507   O     0.81367   0.59222   0.36632   0.00000  Uiso   1.00
N508   N     0.76504   0.88994   0.18129   0.00000  Uiso   1.00
O509   O     0.73624   0.85648   0.19409   0.00000  Uiso   1.00
O510   O     0.75128   0.90881   0.14027   0.00000  Uiso   1.00
N511   N     0.75297   0.70512   0.11571   0.00000  Uiso   1.00
H512   H     0.71777   0.71828   0.10160   0.00000  Uiso   1.00
C513   C     0.75084   0.65672   0.11261   0.00000  Uiso   1.00
H514   H     0.74063   0.64597   0.07516   0.00000  Uiso   1.00
H515   H     0.72050   0.64272   0.13317   0.00000  Uiso   1.00
H516   H     0.78904   0.64309   0.12750   0.00000  Uiso   1.00
N517   N     0.88219   0.82107   0.38026   0.00000  Uiso   1.00
H518   H     0.85653   0.84638   0.37115   0.00000  Uiso   1.00
C519   C     0.93216   0.83796   0.40464   0.00000  Uiso   1.00
H520   H     0.92638   0.85953   0.43477   0.00000  Uiso   1.00
H521   H     0.95254   0.85868   0.37985   0.00000  Uiso   1.00
H522   H     0.95737   0.80984   0.41789   0.00000  Uiso   1.00
N523   N     0.90036   0.81040   0.13184   0.00000  Uiso   1.00
H524   H     0.90827   0.80690   0.16768   0.00000  Uiso   1.00
C525   C     0.88054   0.85423   0.11869   0.00000  Uiso   1.00
H526   H     0.84010   0.85658   0.12713   0.00000  Uiso   1.00
H527   H     0.88020   0.86070   0.08025   0.00000  Uiso   1.00
H528   H     0.90599   0.88055   0.13862   0.00000  Uiso   1.00
N529   N     0.76773   0.68807   0.36831   0.00000  Uiso   1.00
H530   H     0.76845   0.68577   0.33287   0.00000  Uiso   1.00
C531   C     0.71460   0.69215   0.37848   0.00000  Uiso   1.00
H532   H     0.68990   0.70679   0.34755   0.00000  Uiso   1.00
H533   H     0.71284   0.71348   0.40988   0.00000  Uiso   1.00
H534   H     0.69744   0.65832   0.38486   0.00000  Uiso   1.00
N535   N     0.92860   0.77924   0.04331   0.00000  Uiso   1.00
O536   O     0.94831   0.75208   0.01582   0.00000  Uiso   1.00
O537   O     0.95755   0.81337   0.06098   0.00000  Uiso   1.00
N538   N     0.80970   0.66588   0.46658   0.00000  Uiso   1.00
O539   O     0.84376   0.65271   0.00166   0.00000  Uiso   1.00
O540   O     0.77383   0.63696   0.44796   0.00000  Uiso   1.00
O541   O     0.16667   0.18454   0.78974   0.00000  Uiso   1.00
O542   O     0.16666   0.31547   0.71026   0.00000  Uiso   1.00
O543   O     0.16667   0.18453   0.71026   0.00000  Uiso   1.00
O544   O     0.16666   0.31547   0.78974   0.00000  Uiso   1.00
C545   C     0.16981   0.16382   0.75076   0.00000  Uiso   1.00
C546   C     0.16631   0.33604   0.74961   0.00000  Uiso   1.00
O547   O     0.09058   0.25000   0.78044   0.00000  Uiso   1.00
O548   O     0.24275   0.25000   0.71955   0.00000  Uiso   1.00
O549   O     0.09058   0.25000   0.70096   0.00000  Uiso   1.00
O550   O     0.24275   0.25001   0.79903   0.00000  Uiso   1.00
C551   C     0.06726   0.24966   0.73779   0.00000  Uiso   1.00
C552   C     0.26616   0.25115   0.76212   0.00000  Uiso   1.00
Zn553  Zn    0.16667   0.25001   0.80307   0.00000  Uiso   1.00
Zn554  Zn    0.16667   0.25000   0.69693   0.00000  Uiso   1.00
C555   C     0.01262   0.24341   0.73254   0.00000  Uiso   1.00
C556   C     0.32072   0.25964   0.76657   0.00000  Uiso   1.00
C557   C     0.18791   0.04432   0.79240   0.00000  Uiso   1.00
C558   C     0.15070   0.45577   0.71298   0.00000  Uiso   1.00
H559   H     0.18676   0.02403   0.82403   0.00000  Uiso   1.00
H560   H     0.12648   0.47635   0.68782   0.00000  Uiso   1.00
C561   C     0.18251   0.09031   0.79465   0.00000  Uiso   1.00
C562   C     0.14050   0.40966   0.71415   0.00000  Uiso   1.00
C563   C     0.18032   0.11609   0.75241   0.00000  Uiso   1.00
C564   C     0.17088   0.38411   0.74905   0.00000  Uiso   1.00
C565   C     0.18925   0.09568   0.71031   0.00000  Uiso   1.00
C566   C     0.21049   0.40437   0.78138   0.00000  Uiso   1.00
H567   H     0.19100   0.11482   0.67813   0.00000  Uiso   1.00
H568   H     0.23498   0.38454   0.80699   0.00000  Uiso   1.00
C569   C     0.19527   0.04999   0.70879   0.00000  Uiso   1.00
C570   C     0.21968   0.45019   0.78016   0.00000  Uiso   1.00
H571   H     0.20004   0.03451   0.67560   0.00000  Uiso   1.00
H572   H     0.24981   0.46573   0.80590   0.00000  Uiso   1.00
C573   C     0.19296   0.02422   0.74947   0.00000  Uiso   1.00
C574   C     0.18942   0.47589   0.74634   0.00000  Uiso   1.00
C575   C     0.12892   0.22700   0.54737   0.00000  Uiso   1.00
C576   C     0.18971   0.28390   0.95092   0.00000  Uiso   1.00
H577   H     0.09587   0.21170   0.52470   0.00000  Uiso   1.00
H578   H     0.20377   0.31331   0.97140   0.00000  Uiso   1.00
C579   C     0.12877   0.22654   0.59688   0.00000  Uiso   1.00
C580   C     0.19154   0.28392   0.90158   0.00000  Uiso   1.00
N581   N     0.16667   0.24999   0.62623   0.00000  Uiso   1.00
N582   N     0.16667   0.25001   0.87376   0.00000  Uiso   1.00
C583   C     0.20483   0.27445   0.60657   0.00000  Uiso   1.00
C584   C     0.14063   0.21573   0.89526   0.00000  Uiso   1.00
C585   C     0.21219   0.26755   0.55873   0.00000  Uiso   1.00
C586   C     0.15021   0.20956   0.94542   0.00000  Uiso   1.00
C587   C     0.17161   0.24599   0.52745   0.00000  Uiso   1.00
C588   C     0.17139   0.24594   0.97409   0.00000  Uiso   1.00
N589   N     0.32220   0.21129   0.69790   0.00000  Uiso   1.00
O590   O     0.31358   0.22257   0.65342   0.00000  Uiso   1.00
O591   O     0.30683   0.17166   0.71120   0.00000  Uiso   1.00
N592   N     0.01077   0.29287   0.80039   0.00000  Uiso   1.00
O593   O     0.00188   0.29055   0.84403   0.00000  Uiso   1.00
O594   O     0.03554   0.32827   0.78634   0.00000  Uiso   1.00
N595   N     0.17968   0.10968   0.83987   0.00000  Uiso   1.00
O596   O     0.21791   0.13618   0.85917   0.00000  Uiso   1.00
O597   O     0.14700   0.09222   0.86632   0.00000  Uiso   1.00
N598   N     0.09838   0.38994   0.68129   0.00000  Uiso   1.00
O599   O     0.06957   0.35648   0.69409   0.00000  Uiso   1.00
O600   O     0.08461   0.40881   0.64027   0.00000  Uiso   1.00
N601   N     0.08630   0.20512   0.61571   0.00000  Uiso   1.00
H602   H     0.05111   0.21828   0.60160   0.00000  Uiso   1.00
C603   C     0.08417   0.15672   0.61261   0.00000  Uiso   1.00
H604   H     0.07397   0.14597   0.57516   0.00000  Uiso   1.00
H605   H     0.05383   0.14272   0.63317   0.00000  Uiso   1.00
H606   H     0.12238   0.14309   0.62750   0.00000  Uiso   1.00
N607   N     0.21553   0.32107   0.88026   0.00000  Uiso   1.00
H608   H     0.18986   0.34638   0.87115   0.00000  Uiso   1.00
C609   C     0.26550   0.33796   0.90464   0.00000  Uiso   1.00
H610   H     0.25972   0.35953   0.93477   0.00000  Uiso   1.00
H611   H     0.28587   0.35868   0.87985   0.00000  Uiso   1.00
H612   H     0.29070   0.30984   0.91789   0.00000  Uiso   1.00
N613   N     0.23369   0.31040   0.63184   0.00000  Uiso   1.00
H614   H     0.24160   0.30690   0.66768   0.00000  Uiso   1.00
C615   C     0.21388   0.35423   0.61869   0.00000  Uiso   1.00
H616   H     0.17344   0.35658   0.62713   0.00000  Uiso   1.00
H617   H     0.21353   0.36070   0.58025   0.00000  Uiso   1.00
H618   H     0.23932   0.38055   0.63862   0.00000  Uiso   1.00
N619   N     0.10107   0.18807   0.86831   0.00000  Uiso   1.00
H620   H     0.10179   0.18577   0.83287   0.00000  Uiso   1.00
C621   C     0.04793   0.19215   0.87848   0.00000  Uiso   1.00
H622   H     0.02323   0.20679   0.84755   0.00000  Uiso   1.00
H623   H     0.04617   0.21348   0.90988   0.00000  Uiso   1.00
H624   H     0.03077   0.15832   0.88486   0.00000  Uiso   1.00
N625   N     0.26193   0.27924   0.54331   0.00000  Uiso   1.00
O626   O     0.28164   0.25208   0.51582   0.00000  Uiso   1.00
O627   O     0.29088   0.31337   0.56098   0.00000  Uiso   1.00
N628   N     0.14304   0.16588   0.96658   0.00000  Uiso   1.00
O629   O     0.17709   0.15271   0.50166   0.00000  Uiso   1.00
O630   O     0.10716   0.13696   0.94796   0.00000  Uiso   1.00
O631   O     0.50000   0.18454   0.78974   0.00000  Uiso   1.00
O632   O     0.50000   0.31547   0.71026   0.00000  Uiso   1.00
O633   O     0.50000   0.18453   0.71026   0.00000  Uiso   1.00
O634   O     0.50000   0.31547   0.78974   0.00000  Uiso   1.00
C635   C     0.50314   0.16382   0.75076   0.00000  Uiso   1.00
C636   C     0.49964   0.33604   0.74961   0.00000  Uiso   1.00
O637   O     0.42392   0.25000   0.78044   0.00000  Uiso   1.00
O638   O     0.57608   0.25000   0.71955   0.00000  Uiso   1.00
O639   O     0.42392   0.25000   0.70096   0.00000  Uiso   1.00
O640   O     0.57608   0.25001   0.79903   0.00000  Uiso   1.00
C641   C     0.40059   0.24966   0.73779   0.00000  Uiso   1.00
C642   C     0.59949   0.25115   0.76212   0.00000  Uiso   1.00
Zn643  Zn    0.50000   0.25001   0.80307   0.00000  Uiso   1.00
Zn644  Zn    0.50000   0.25000   0.69693   0.00000  Uiso   1.00
C645   C     0.34595   0.24341   0.73254   0.00000  Uiso   1.00
C646   C     0.65406   0.25964   0.76657   0.00000  Uiso   1.00
C647   C     0.52124   0.04432   0.79240   0.00000  Uiso   1.00
C648   C     0.48404   0.45577   0.71298   0.00000  Uiso   1.00
H649   H     0.52009   0.02403   0.82403   0.00000  Uiso   1.00
H650   H     0.45982   0.47635   0.68782   0.00000  Uiso   1.00
C651   C     0.51584   0.09031   0.79465   0.00000  Uiso   1.00
C652   C     0.47383   0.40966   0.71415   0.00000  Uiso   1.00
C653   C     0.51365   0.11609   0.75241   0.00000  Uiso   1.00
C654   C     0.50421   0.38411   0.74905   0.00000  Uiso   1.00
C655   C     0.52259   0.09568   0.71031   0.00000  Uiso   1.00
C656   C     0.54383   0.40437   0.78138   0.00000  Uiso   1.00
H657   H     0.52433   0.11482   0.67813   0.00000  Uiso   1.00
H658   H     0.56831   0.38454   0.80699   0.00000  Uiso   1.00
C659   C     0.52860   0.04999   0.70879   0.00000  Uiso   1.00
C660   C     0.55302   0.45019   0.78016   0.00000  Uiso   1.00
H661   H     0.53337   0.03451   0.67560   0.00000  Uiso   1.00
H662   H     0.58314   0.46573   0.80590   0.00000  Uiso   1.00
C663   C     0.52629   0.02422   0.74947   0.00000  Uiso   1.00
C664   C     0.52275   0.47589   0.74634   0.00000  Uiso   1.00
C665   C     0.46225   0.22700   0.54737   0.00000  Uiso   1.00
C666   C     0.52304   0.28390   0.95092   0.00000  Uiso   1.00
H667   H     0.42921   0.21170   0.52470   0.00000  Uiso   1.00
H668   H     0.53711   0.31331   0.97140   0.00000  Uiso   1.00
C669   C     0.46210   0.22654   0.59688   0.00000  Uiso   1.00
C670   C     0.52487   0.28392   0.90158   0.00000  Uiso   1.00
N671   N     0.50000   0.24999   0.62623   0.00000  Uiso   1.00
N672   N     0.50000   0.25001   0.87376   0.00000  Uiso   1.00
C673   C     0.53816   0.27445   0.60657   0.00000  Uiso   1.00
C674   C     0.47396   0.21573   0.89526   0.00000  Uiso   1.00
C675   C     0.54552   0.26755   0.55873   0.00000  Uiso   1.00
C676   C     0.48354   0.20956   0.94542   0.00000  Uiso   1.00
C677   C     0.50495   0.24599   0.52745   0.00000  Uiso   1.00
C678   C     0.50472   0.24594   0.97409   0.00000  Uiso   1.00
N679   N     0.65553   0.21129   0.69790   0.00000  Uiso   1.00
O680   O     0.64691   0.22257   0.65342   0.00000  Uiso   1.00
O681   O     0.64016   0.17166   0.71120   0.00000  Uiso   1.00
N682   N     0.34410   0.29287   0.80039   0.00000  Uiso   1.00
O683   O     0.33521   0.29055   0.84403   0.00000  Uiso   1.00
O684   O     0.36887   0.32827   0.78634   0.00000  Uiso   1.00
N685   N     0.51302   0.10968   0.83987   0.00000  Uiso   1.00
O686   O     0.55124   0.13618   0.85917   0.00000  Uiso   1.00
O687   O     0.48033   0.09222   0.86632   0.00000  Uiso   1.00
N688   N     0.43171   0.38994   0.68129   0.00000  Uiso   1.00
O689   O     0.40290   0.35648   0.69409   0.00000  Uiso   1.00
O690   O     0.41795   0.40881   0.64027   0.00000  Uiso   1.00
N691   N     0.41963   0.20512   0.61571   0.00000  Uiso   1.00
H692   H     0.38444   0.21828   0.60160   0.00000  Uiso   1.00
C693   C     0.41751   0.15672   0.61261   0.00000  Uiso   1.00
H694   H     0.40730   0.14597   0.57516   0.00000  Uiso   1.00
H695   H     0.38716   0.14272   0.63317   0.00000  Uiso   1.00
H696   H     0.45571   0.14309   0.62750   0.00000  Uiso   1.00
N697   N     0.54886   0.32107   0.88026   0.00000  Uiso   1.00
H698   H     0.52320   0.34638   0.87115   0.00000  Uiso   1.00
C699   C     0.59883   0.33796   0.90464   0.00000  Uiso   1.00
H700   H     0.59305   0.35953   0.93477   0.00000  Uiso   1.00
H701   H     0.61921   0.35868   0.87985   0.00000  Uiso   1.00
H702   H     0.62404   0.30984   0.91789   0.00000  Uiso   1.00
N703   N     0.56703   0.31040   0.63184   0.00000  Uiso   1.00
H704   H     0.57494   0.30690   0.66768   0.00000  Uiso   1.00
C705   C     0.54721   0.35423   0.61869   0.00000  Uiso   1.00
H706   H     0.50677   0.35658   0.62713   0.00000  Uiso   1.00
H707   H     0.54686   0.36070   0.58025   0.00000  Uiso   1.00
H708   H     0.57266   0.38055   0.63862   0.00000  Uiso   1.00
N709   N     0.43440   0.18807   0.86831   0.00000  Uiso   1.00
H710   H     0.43512   0.18577   0.83287   0.00000  Uiso   1.00
C711   C     0.38127   0.19215   0.87848   0.00000  Uiso   1.00
H712   H     0.35656   0.20679   0.84755   0.00000  Uiso   1.00
H713   H     0.37951   0.21348   0.90988   0.00000  Uiso   1.00
H714   H     0.36410   0.15832   0.88486   0.00000  Uiso   1.00
N715   N     0.59527   0.27924   0.54331   0.00000  Uiso   1.00
O716   O     0.61498   0.25208   0.51582   0.00000  Uiso   1.00
O717   O     0.62421   0.31337   0.56098   0.00000  Uiso   1.00
N718   N     0.47637   0.16588   0.96658   0.00000  Uiso   1.00
O719   O     0.51042   0.15271   0.50166   0.00000  Uiso   1.00
O720   O     0.44049   0.13696   0.94796   0.00000  Uiso   1.00
O721   O     0.83334   0.18454   0.78974   0.00000  Uiso   1.00
O722   O     0.83333   0.31547   0.71026   0.00000  Uiso   1.00
O723   O     0.83334   0.18453   0.71026   0.00000  Uiso   1.00
O724   O     0.83333   0.31547   0.78974   0.00000  Uiso   1.00
C725   C     0.83647   0.16382   0.75076   0.00000  Uiso   1.00
C726   C     0.83297   0.33604   0.74961   0.00000  Uiso   1.00
O727   O     0.75725   0.25000   0.78044   0.00000  Uiso   1.00
O728   O     0.90942   0.25000   0.71955   0.00000  Uiso   1.00
O729   O     0.75725   0.25000   0.70096   0.00000  Uiso   1.00
O730   O     0.90942   0.25001   0.79903   0.00000  Uiso   1.00
C731   C     0.73393   0.24966   0.73779   0.00000  Uiso   1.00
C732   C     0.93283   0.25115   0.76212   0.00000  Uiso   1.00
Zn733  Zn    0.83333   0.25001   0.80307   0.00000  Uiso   1.00
Zn734  Zn    0.83333   0.25000   0.69693   0.00000  Uiso   1.00
C735   C     0.67928   0.24341   0.73254   0.00000  Uiso   1.00
C736   C     0.98739   0.25964   0.76657   0.00000  Uiso   1.00
C737   C     0.85458   0.04432   0.79240   0.00000  Uiso   1.00
C738   C     0.81737   0.45577   0.71298   0.00000  Uiso   1.00
H739   H     0.85343   0.02403   0.82403   0.00000  Uiso   1.00
H740   H     0.79315   0.47635   0.68782   0.00000  Uiso   1.00
C741   C     0.84918   0.09031   0.79465   0.00000  Uiso   1.00
C742   C     0.80716   0.40966   0.71415   0.00000  Uiso   1.00
C743   C     0.84698   0.11609   0.75241   0.00000  Uiso   1.00
C744   C     0.83755   0.38411   0.74905   0.00000  Uiso   1.00
C745   C     0.85592   0.09568   0.71031   0.00000  Uiso   1.00
C746   C     0.87716   0.40437   0.78138   0.00000  Uiso   1.00
H747   H     0.85767   0.11482   0.67813   0.00000  Uiso   1.00
H748   H     0.90164   0.38454   0.80699   0.00000  Uiso   1.00
C749   C     0.86193   0.04999   0.70879   0.00000  Uiso   1.00
C750   C     0.88635   0.45019   0.78016   0.00000  Uiso   1.00
H751   H     0.86671   0.03451   0.67560   0.00000  Uiso   1.00
H752   H     0.91648   0.46573   0.80590   0.00000  Uiso   1.00
C753   C     0.85962   0.02422   0.74947   0.00000  Uiso   1.00
C754   C     0.85608   0.47589   0.74634   0.00000  Uiso   1.00
C755   C     0.79559   0.22700   0.54737   0.00000  Uiso   1.00
C756   C     0.85638   0.28390   0.95092   0.00000  Uiso   1.00
H757   H     0.76254   0.21170   0.52470   0.00000  Uiso   1.00
H758   H     0.87044   0.31331   0.97140   0.00000  Uiso   1.00
C759   C     0.79543   0.22654   0.59688   0.00000  Uiso   1.00
C760   C     0.85821   0.28392   0.90158   0.00000  Uiso   1.00
N761   N     0.83333   0.24999   0.62623   0.00000  Uiso   1.00
N762   N     0.83333   0.25001   0.87376   0.00000  Uiso   1.00
C763   C     0.87150   0.27445   0.60657   0.00000  Uiso   1.00
C764   C     0.80730   0.21573   0.89526   0.00000  Uiso   1.00
C765   C     0.87886   0.26755   0.55873   0.00000  Uiso   1.00
C766   C     0.81687   0.20956   0.94542   0.00000  Uiso   1.00
C767   C     0.83828   0.24599   0.52745   0.00000  Uiso   1.00
C768   C     0.83806   0.24594   0.97409   0.00000  Uiso   1.00
N769   N     0.98887   0.21129   0.69790   0.00000  Uiso   1.00
O770   O     0.98025   0.22257   0.65342   0.00000  Uiso   1.00
O771   O     0.97349   0.17166   0.71120   0.00000  Uiso   1.00
N772   N     0.67743   0.29287   0.80039   0.00000  Uiso   1.00
O773   O     0.66854   0.29055   0.84403   0.00000  Uiso   1.00
O774   O     0.70220   0.32827   0.78634   0.00000  Uiso   1.00
N775   N     0.84635   0.10968   0.83987   0.00000  Uiso   1.00
O776   O     0.88457   0.13618   0.85917   0.00000  Uiso   1.00
O777   O     0.81367   0.09222   0.86632   0.00000  Uiso   1.00
N778   N     0.76504   0.38994   0.68129   0.00000  Uiso   1.00
O779   O     0.73624   0.35648   0.69409   0.00000  Uiso   1.00
O780   O     0.75128   0.40881   0.64027   0.00000  Uiso   1.00
N781   N     0.75297   0.20512   0.61571   0.00000  Uiso   1.00
H782   H     0.71777   0.21828   0.60160   0.00000  Uiso   1.00
C783   C     0.75084   0.15672   0.61261   0.00000  Uiso   1.00
H784   H     0.74063   0.14597   0.57516   0.00000  Uiso   1.00
H785   H     0.72050   0.14272   0.63317   0.00000  Uiso   1.00
H786   H     0.78904   0.14309   0.62750   0.00000  Uiso   1.00
N787   N     0.88219   0.32107   0.88026   0.00000  Uiso   1.00
H788   H     0.85653   0.34638   0.87115   0.00000  Uiso   1.00
C789   C     0.93216   0.33796   0.90464   0.00000  Uiso   1.00
H790   H     0.92638   0.35953   0.93477   0.00000  Uiso   1.00
H791   H     0.95254   0.35868   0.87985   0.00000  Uiso   1.00
H792   H     0.95737   0.30984   0.91789   0.00000  Uiso   1.00
N793   N     0.90036   0.31040   0.63184   0.00000  Uiso   1.00
H794   H     0.90827   0.30690   0.66768   0.00000  Uiso   1.00
C795   C     0.88054   0.35423   0.61869   0.00000  Uiso   1.00
H796   H     0.84010   0.35658   0.62713   0.00000  Uiso   1.00
H797   H     0.88020   0.36070   0.58025   0.00000  Uiso   1.00
H798   H     0.90599   0.38055   0.63862   0.00000  Uiso   1.00
N799   N     0.76773   0.18807   0.86831   0.00000  Uiso   1.00
H800   H     0.76845   0.18577   0.83287   0.00000  Uiso   1.00
C801   C     0.71460   0.19215   0.87848   0.00000  Uiso   1.00
H802   H     0.68990   0.20679   0.84755   0.00000  Uiso   1.00
H803   H     0.71284   0.21348   0.90988   0.00000  Uiso   1.00
H804   H     0.69744   0.15832   0.88486   0.00000  Uiso   1.00
N805   N     0.92860   0.27924   0.54331   0.00000  Uiso   1.00
O806   O     0.94831   0.25208   0.51582   0.00000  Uiso   1.00
O807   O     0.95755   0.31337   0.56098   0.00000  Uiso   1.00
N808   N     0.80970   0.16588   0.96658   0.00000  Uiso   1.00
O809   O     0.84376   0.15271   0.50166   0.00000  Uiso   1.00
O810   O     0.77383   0.13696   0.94796   0.00000  Uiso   1.00
O811   O     0.16667   0.68454   0.78974   0.00000  Uiso   1.00
O812   O     0.16666   0.81547   0.71026   0.00000  Uiso   1.00
O813   O     0.16667   0.68453   0.71026   0.00000  Uiso   1.00
O814   O     0.16666   0.81547   0.78974   0.00000  Uiso   1.00
C815   C     0.16981   0.66382   0.75076   0.00000  Uiso   1.00
C816   C     0.16631   0.83604   0.74961   0.00000  Uiso   1.00
O817   O     0.09058   0.75000   0.78044   0.00000  Uiso   1.00
O818   O     0.24275   0.75000   0.71955   0.00000  Uiso   1.00
O819   O     0.09058   0.75000   0.70096   0.00000  Uiso   1.00
O820   O     0.24275   0.75001   0.79903   0.00000  Uiso   1.00
C821   C     0.06726   0.74966   0.73779   0.00000  Uiso   1.00
C822   C     0.26616   0.75115   0.76212   0.00000  Uiso   1.00
Zn823  Zn    0.16667   0.75001   0.80307   0.00000  Uiso   1.00
Zn824  Zn    0.16667   0.75000   0.69693   0.00000  Uiso   1.00
C825   C     0.01262   0.74341   0.73254   0.00000  Uiso   1.00
C826   C     0.32072   0.75964   0.76657   0.00000  Uiso   1.00
C827   C     0.18791   0.54432   0.79240   0.00000  Uiso   1.00
C828   C     0.15070   0.95577   0.71298   0.00000  Uiso   1.00
H829   H     0.18676   0.52403   0.82403   0.00000  Uiso   1.00
H830   H     0.12648   0.97635   0.68782   0.00000  Uiso   1.00
C831   C     0.18251   0.59031   0.79465   0.00000  Uiso   1.00
C832   C     0.14050   0.90966   0.71415   0.00000  Uiso   1.00
C833   C     0.18032   0.61609   0.75241   0.00000  Uiso   1.00
C834   C     0.17088   0.88411   0.74905   0.00000  Uiso   1.00
C835   C     0.18925   0.59568   0.71031   0.00000  Uiso   1.00
C836   C     0.21049   0.90437   0.78138   0.00000  Uiso   1.00
H837   H     0.19100   0.61482   0.67813   0.00000  Uiso   1.00
H838   H     0.23498   0.88454   0.80699   0.00000  Uiso   1.00
C839   C     0.19527   0.54999   0.70879   0.00000  Uiso   1.00
C840   C     0.21968   0.95019   0.78016   0.00000  Uiso   1.00
H841   H     0.20004   0.53451   0.67560   0.00000  Uiso   1.00
H842   H     0.24981   0.96573   0.80590   0.00000  Uiso   1.00
C843   C     0.19296   0.52422   0.74947   0.00000  Uiso   1.00
C844   C     0.18942   0.97589   0.74634   0.00000  Uiso   1.00
C845   C     0.12892   0.72700   0.54737   0.00000  Uiso   1.00
C846   C     0.18971   0.78390   0.95092   0.00000  Uiso   1.00
H847   H     0.09587   0.71170   0.52470   0.00000  Uiso   1.00
H848   H     0.20377   0.81331   0.97140   0.00000  Uiso   1.00
C849   C     0.12877   0.72654   0.59688   0.00000  Uiso   1.00
C850   C     0.19154   0.78392   0.90158   0.00000  Uiso   1.00
N851   N     0.16667   0.74999   0.62623   0.00000  Uiso   1.00
N852   N     0.16667   0.75001   0.87376   0.00000  Uiso   1.00
C853   C     0.20483   0.77445   0.60657   0.00000  Uiso   1.00
C854   C     0.14063   0.71573   0.89526   0.00000  Uiso   1.00
C855   C     0.21219   0.76755   0.55873   0.00000  Uiso   1.00
C856   C     0.15021   0.70956   0.94542   0.00000  Uiso   1.00
C857   C     0.17161   0.74599   0.52745   0.00000  Uiso   1.00
C858   C     0.17139   0.74594   0.97409   0.00000  Uiso   1.00
N859   N     0.32220   0.71129   0.69790   0.00000  Uiso   1.00
O860   O     0.31358   0.72257   0.65342   0.00000  Uiso   1.00
O861   O     0.30683   0.67166   0.71120   0.00000  Uiso   1.00
N862   N     0.01077   0.79287   0.80039   0.00000  Uiso   1.00
O863   O     0.00188   0.79055   0.84403   0.00000  Uiso   1.00
O864   O     0.03554   0.82827   0.78634   0.00000  Uiso   1.00
N865   N     0.17968   0.60968   0.83987   0.00000  Uiso   1.00
O866   O     0.21791   0.63618   0.85917   0.00000  Uiso   1.00
O867   O     0.14700   0.59222   0.86632   0.00000  Uiso   1.00
N868   N     0.09838   0.88994   0.68129   0.00000  Uiso   1.00
O869   O     0.06957   0.85648   0.69409   0.00000  Uiso   1.00
O870   O     0.08461   0.90881   0.64027   0.00000  Uiso   1.00
N871   N     0.08630   0.70512   0.61571   0.00000  Uiso   1.00
H872   H     0.05111   0.71828   0.60160   0.00000  Uiso   1.00
C873   C     0.08417   0.65672   0.61261   0.00000  Uiso   1.00
H874   H     0.07397   0.64597   0.57516   0.00000  Uiso   1.00
H875   H     0.05383   0.64272   0.63317   0.00000  Uiso   1.00
H876   H     0.12238   0.64309   0.62750   0.00000  Uiso   1.00
N877   N     0.21553   0.82107   0.88026   0.00000  Uiso   1.00
H878   H     0.18986   0.84638   0.87115   0.00000  Uiso   1.00
C879   C     0.26550   0.83796   0.90464   0.00000  Uiso   1.00
H880   H     0.25972   0.85953   0.93477   0.00000  Uiso   1.00
H881   H     0.28587   0.85868   0.87985   0.00000  Uiso   1.00
H882   H     0.29070   0.80984   0.91789   0.00000  Uiso   1.00
N883   N     0.23369   0.81040   0.63184   0.00000  Uiso   1.00
H884   H     0.24160   0.80690   0.66768   0.00000  Uiso   1.00
C885   C     0.21388   0.85423   0.61869   0.00000  Uiso   1.00
H886   H     0.17344   0.85658   0.62713   0.00000  Uiso   1.00
H887   H     0.21353   0.86070   0.58025   0.00000  Uiso   1.00
H888   H     0.23932   0.88055   0.63862   0.00000  Uiso   1.00
N889   N     0.10107   0.68807   0.86831   0.00000  Uiso   1.00
H890   H     0.10179   0.68577   0.83287   0.00000  Uiso   1.00
C891   C     0.04793   0.69215   0.87848   0.00000  Uiso   1.00
H892   H     0.02323   0.70679   0.84755   0.00000  Uiso   1.00
H893   H     0.04617   0.71348   0.90988   0.00000  Uiso   1.00
H894   H     0.03077   0.65832   0.88486   0.00000  Uiso   1.00
N895   N     0.26193   0.77924   0.54331   0.00000  Uiso   1.00
O896   O     0.28164   0.75208   0.51582   0.00000  Uiso   1.00
O897   O     0.29088   0.81337   0.56098   0.00000  Uiso   1.00
N898   N     0.14304   0.66588   0.96658   0.00000  Uiso   1.00
O899   O     0.17709   0.65271   0.50166   0.00000  Uiso   1.00
O900   O     0.10716   0.63696   0.94796   0.00000  Uiso   1.00
O901   O     0.50000   0.68454   0.78974   0.00000  Uiso   1.00
O902   O     0.50000   0.81547   0.71026   0.00000  Uiso   1.00
O903   O     0.50000   0.68453   0.71026   0.00000  Uiso   1.00
O904   O     0.50000   0.81547   0.78974   0.00000  Uiso   1.00
C905   C     0.50314   0.66382   0.75076   0.00000  Uiso   1.00
C906   C     0.49964   0.83604   0.74961   0.00000  Uiso   1.00
O907   O     0.42392   0.75000   0.78044   0.00000  Uiso   1.00
O908   O     0.57608   0.75000   0.71955   0.00000  Uiso   1.00
O909   O     0.42392   0.75000   0.70096   0.00000  Uiso   1.00
O910   O     0.57608   0.75001   0.79903   0.00000  Uiso   1.00
C911   C     0.40059   0.74966   0.73779   0.00000  Uiso   1.00
C912   C     0.59949   0.75115   0.76212   0.00000  Uiso   1.00
Zn913  Zn    0.50000   0.75001   0.80307   0.00000  Uiso   1.00
Zn914  Zn    0.50000   0.75000   0.69693   0.00000  Uiso   1.00
C915   C     0.34595   0.74341   0.73254   0.00000  Uiso   1.00
C916   C     0.65406   0.75964   0.76657   0.00000  Uiso   1.00
C917   C     0.52124   0.54432   0.79240   0.00000  Uiso   1.00
C918   C     0.48404   0.95577   0.71298   0.00000  Uiso   1.00
H919   H     0.52009   0.52403   0.82403   0.00000  Uiso   1.00
H920   H     0.45982   0.97635   0.68782   0.00000  Uiso   1.00
C921   C     0.51584   0.59031   0.79465   0.00000  Uiso   1.00
C922   C     0.47383   0.90966   0.71415   0.00000  Uiso   1.00
C923   C     0.51365   0.61609   0.75241   0.00000  Uiso   1.00
C924   C     0.50421   0.88411   0.74905   0.00000  Uiso   1.00
C925   C     0.52259   0.59568   0.71031   0.00000  Uiso   1.00
C926   C     0.54383   0.90437   0.78138   0.00000  Uiso   1.00
H927   H     0.52433   0.61482   0.67813   0.00000  Uiso   1.00
H928   H     0.56831   0.88454   0.80699   0.00000  Uiso   1.00
C929   C     0.52860   0.54999   0.70879   0.00000  Uiso   1.00
C930   C     0.55302   0.95019   0.78016   0.00000  Uiso   1.00
H931   H     0.53337   0.53451   0.67560   0.00000  Uiso   1.00
H932   H     0.58314   0.96573   0.80590   0.00000  Uiso   1.00
C933   C     0.52629   0.52422   0.74947   0.00000  Uiso   1.00
C934   C     0.52275   0.97589   0.74634   0.00000  Uiso   1.00
C935   C     0.46225   0.72700   0.54737   0.00000  Uiso   1.00
C936   C     0.52304   0.78390   0.95092   0.00000  Uiso   1.00
H937   H     0.42921   0.71170   0.52470   0.00000  Uiso   1.00
H938   H     0.53711   0.81331   0.97140   0.00000  Uiso   1.00
C939   C     0.46210   0.72654   0.59688   0.00000  Uiso   1.00
C940   C     0.52487   0.78392   0.90158   0.00000  Uiso   1.00
N941   N     0.50000   0.74999   0.62623   0.00000  Uiso   1.00
N942   N     0.50000   0.75001   0.87376   0.00000  Uiso   1.00
C943   C     0.53816   0.77445   0.60657   0.00000  Uiso   1.00
C944   C     0.47396   0.71573   0.89526   0.00000  Uiso   1.00
C945   C     0.54552   0.76755   0.55873   0.00000  Uiso   1.00
C946   C     0.48354   0.70956   0.94542   0.00000  Uiso   1.00
C947   C     0.50495   0.74599   0.52745   0.00000  Uiso   1.00
C948   C     0.50472   0.74594   0.97409   0.00000  Uiso   1.00
N949   N     0.65553   0.71129   0.69790   0.00000  Uiso   1.00
O950   O     0.64691   0.72257   0.65342   0.00000  Uiso   1.00
O951   O     0.64016   0.67166   0.71120   0.00000  Uiso   1.00
N952   N     0.34410   0.79287   0.80039   0.00000  Uiso   1.00
O953   O     0.33521   0.79055   0.84403   0.00000  Uiso   1.00
O954   O     0.36887   0.82827   0.78634   0.00000  Uiso   1.00
N955   N     0.51302   0.60968   0.83987   0.00000  Uiso   1.00
O956   O     0.55124   0.63618   0.85917   0.00000  Uiso   1.00
O957   O     0.48033   0.59222   0.86632   0.00000  Uiso   1.00
N958   N     0.43171   0.88994   0.68129   0.00000  Uiso   1.00
O959   O     0.40290   0.85648   0.69409   0.00000  Uiso   1.00
O960   O     0.41795   0.90881   0.64027   0.00000  Uiso   1.00
N961   N     0.41963   0.70512   0.61571   0.00000  Uiso   1.00
H962   H     0.38444   0.71828   0.60160   0.00000  Uiso   1.00
C963   C     0.41751   0.65672   0.61261   0.00000  Uiso   1.00
H964   H     0.40730   0.64597   0.57516   0.00000  Uiso   1.00
H965   H     0.38716   0.64272   0.63317   0.00000  Uiso   1.00
H966   H     0.45571   0.64309   0.62750   0.00000  Uiso   1.00
N967   N     0.54886   0.82107   0.88026   0.00000  Uiso   1.00
H968   H     0.52320   0.84638   0.87115   0.00000  Uiso   1.00
C969   C     0.59883   0.83796   0.90464   0.00000  Uiso   1.00
H970   H     0.59305   0.85953   0.93477   0.00000  Uiso   1.00
H971   H     0.61921   0.85868   0.87985   0.00000  Uiso   1.00
H972   H     0.62404   0.80984   0.91789   0.00000  Uiso   1.00
N973   N     0.56703   0.81040   0.63184   0.00000  Uiso   1.00
H974   H     0.57494   0.80690   0.66768   0.00000  Uiso   1.00
C975   C     0.54721   0.85423   0.61869   0.00000  Uiso   1.00
H976   H     0.50677   0.85658   0.62713   0.00000  Uiso   1.00
H977   H     0.54686   0.86070   0.58025   0.00000  Uiso   1.00
H978   H     0.57266   0.88055   0.63862   0.00000  Uiso   1.00
N979   N     0.43440   0.68807   0.86831   0.00000  Uiso   1.00
H980   H     0.43512   0.68577   0.83287   0.00000  Uiso   1.00
C981   C     0.38127   0.69215   0.87848   0.00000  Uiso   1.00
H982   H     0.35656   0.70679   0.84755   0.00000  Uiso   1.00
H983   H     0.37951   0.71348   0.90988   0.00000  Uiso   1.00
H984   H     0.36410   0.65832   0.88486   0.00000  Uiso   1.00
N985   N     0.59527   0.77924   0.54331   0.00000  Uiso   1.00
O986   O     0.61498   0.75208   0.51582   0.00000  Uiso   1.00
O987   O     0.62421   0.81337   0.56098   0.00000  Uiso   1.00
N988   N     0.47637   0.66588   0.96658   0.00000  Uiso   1.00
O989   O     0.51042   0.65271   0.50166   0.00000  Uiso   1.00
O990   O     0.44049   0.63696   0.94796   0.00000  Uiso   1.00
O991   O     0.83334   0.68454   0.78974   0.00000  Uiso   1.00
O992   O     0.83333   0.81547   0.71026   0.00000  Uiso   1.00
O993   O     0.83334   0.68453   0.71026   0.00000  Uiso   1.00
O994   O     0.83333   0.81547   0.78974   0.00000  Uiso   1.00
C995   C     0.83647   0.66382   0.75076   0.00000  Uiso   1.00
C996   C     0.83297   0.83604   0.74961   0.00000  Uiso   1.00
O997   O     0.75725   0.75000   0.78044   0.00000  Uiso   1.00
O998   O     0.90942   0.75000   0.71955   0.00000  Uiso   1.00
O999   O     0.75725   0.75000   0.70096   0.00000  Uiso   1.00
O1000  O     0.90942   0.75001   0.79903   0.00000  Uiso   1.00
C1001  C     0.73393   0.74966   0.73779   0.00000  Uiso   1.00
C1002  C     0.93283   0.75115   0.76212   0.00000  Uiso   1.00
Zn1003 Zn    0.83333   0.75001   0.80307   0.00000  Uiso   1.00
Zn1004 Zn    0.83333   0.75000   0.69693   0.00000  Uiso   1.00
C1005  C     0.67928   0.74341   0.73254   0.00000  Uiso   1.00
C1006  C     0.98739   0.75964   0.76657   0.00000  Uiso   1.00
C1007  C     0.85458   0.54432   0.79240   0.00000  Uiso   1.00
C1008  C     0.81737   0.95577   0.71298   0.00000  Uiso   1.00
H1009  H     0.85343   0.52403   0.82403   0.00000  Uiso   1.00
H1010  H     0.79315   0.97635   0.68782   0.00000  Uiso   1.00
C1011  C     0.84918   0.59031   0.79465   0.00000  Uiso   1.00
C1012  C     0.80716   0.90966   0.71415   0.00000  Uiso   1.00
C1013  C     0.84698   0.61609   0.75241   0.00000  Uiso   1.00
C1014  C     0.83755   0.88411   0.74905   0.00000  Uiso   1.00
C1015  C     0.85592   0.59568   0.71031   0.00000  Uiso   1.00
C1016  C     0.87716   0.90437   0.78138   0.00000  Uiso   1.00
H1017  H     0.85767   0.61482   0.67813   0.00000  Uiso   1.00
H1018  H     0.90164   0.88454   0.80699   0.00000  Uiso   1.00
C1019  C     0.86193   0.54999   0.70879   0.00000  Uiso   1.00
C1020  C     0.88635   0.95019   0.78016   0.00000  Uiso   1.00
H1021  H     0.86671   0.53451   0.67560   0.00000  Uiso   1.00
H1022  H     0.91648   0.96573   0.80590   0.00000  Uiso   1.00
C1023  C     0.85962   0.52422   0.74947   0.00000  Uiso   1.00
C1024  C     0.85608   0.97589   0.74634   0.00000  Uiso   1.00
C1025  C     0.79559   0.72700   0.54737   0.00000  Uiso   1.00
C1026  C     0.85638   0.78390   0.95092   0.00000  Uiso   1.00
H1027  H     0.76254   0.71170   0.52470   0.00000  Uiso   1.00
H1028  H     0.87044   0.81331   0.97140   0.00000  Uiso   1.00
C1029  C     0.79543   0.72654   0.59688   0.00000  Uiso   1.00
C1030  C     0.85821   0.78392   0.90158   0.00000  Uiso   1.00
N1031  N     0.83333   0.74999   0.62623   0.00000  Uiso   1.00
N1032  N     0.83333   0.75001   0.87376   0.00000  Uiso   1.00
C1033  C     0.87150   0.77445   0.60657   0.00000  Uiso   1.00
C1034  C     0.80730   0.71573   0.89526   0.00000  Uiso   1.00
C1035  C     0.87886   0.76755   0.55873   0.00000  Uiso   1.00
C1036  C     0.81687   0.70956   0.94542   0.00000  Uiso   1.00
C1037  C     0.83828   0.74599   0.52745   0.00000  Uiso   1.00
C1038  C     0.83806   0.74594   0.97409   0.00000  Uiso   1.00
N1039  N     0.98887   0.71129   0.69790   0.00000  Uiso   1.00
O1040  O     0.98025   0.72257   0.65342   0.00000  Uiso   1.00
O1041  O     0.97349   0.67166   0.71120   0.00000  Uiso   1.00
N1042  N     0.67743   0.79287   0.80039   0.00000  Uiso   1.00
O1043  O     0.66854   0.79055   0.84403   0.00000  Uiso   1.00
O1044  O     0.70220   0.82827   0.78634   0.00000  Uiso   1.00
N1045  N     0.84635   0.60968   0.83987   0.00000  Uiso   1.00
O1046  O     0.88457   0.63618   0.85917   0.00000  Uiso   1.00
O1047  O     0.81367   0.59222   0.86632   0.00000  Uiso   1.00
N1048  N     0.76504   0.88994   0.68129   0.00000  Uiso   1.00
O1049  O     0.73624   0.85648   0.69409   0.00000  Uiso   1.00
O1050  O     0.75128   0.90881   0.64027   0.00000  Uiso   1.00
N1051  N     0.75297   0.70512   0.61571   0.00000  Uiso   1.00
H1052  H     0.71777   0.71828   0.60160   0.00000  Uiso   1.00
C1053  C     0.75084   0.65672   0.61261   0.00000  Uiso   1.00
H1054  H     0.74063   0.64597   0.57516   0.00000  Uiso   1.00
H1055  H     0.72050   0.64272   0.63317   0.00000  Uiso   1.00
H1056  H     0.78904   0.64309   0.62750   0.00000  Uiso   1.00
N1057  N     0.88219   0.82107   0.88026   0.00000  Uiso   1.00
H1058  H     0.85653   0.84638   0.87115   0.00000  Uiso   1.00
C1059  C     0.93216   0.83796   0.90464   0.00000  Uiso   1.00
H1060  H     0.92638   0.85953   0.93477   0.00000  Uiso   1.00
H1061  H     0.95254   0.85868   0.87985   0.00000  Uiso   1.00
H1062  H     0.95737   0.80984   0.91789   0.00000  Uiso   1.00
N1063  N     0.90036   0.81040   0.63184   0.00000  Uiso   1.00
H1064  H     0.90827   0.80690   0.66768   0.00000  Uiso   1.00
C1065  C     0.88054   0.85423   0.61869   0.00000  Uiso   1.00
H1066  H     0.84010   0.85658   0.62713   0.00000  Uiso   1.00
H1067  H     0.88020   0.86070   0.58025   0.00000  Uiso   1.00
H1068  H     0.90599   0.88055   0.63862   0.00000  Uiso   1.00
N1069  N     0.76773   0.68807   0.86831   0.00000  Uiso   1.00
H1070  H     0.76845   0.68577   0.83287   0.00000  Uiso   1.00
C1071  C     0.71460   0.69215   0.87848   0.00000  Uiso   1.00
H1072  H     0.68990   0.70679   0.84755   0.00000  Uiso   1.00
H1073  H     0.71284   0.71348   0.90988   0.00000  Uiso   1.00
H1074  H     0.69744   0.65832   0.88486   0.00000  Uiso   1.00
N1075  N     0.92860   0.77924   0.54331   0.00000  Uiso   1.00
O1076  O     0.94831   0.75208   0.51582   0.00000  Uiso   1.00
O1077  O     0.95755   0.81337   0.56098   0.00000  Uiso   1.00
N1078  N     0.80970   0.66588   0.96658   0.00000  Uiso   1.00
O1079  O     0.84376   0.65271   0.50166   0.00000  Uiso   1.00
O1080  O     0.77383   0.63696   0.94796   0.00000  Uiso   1.00
loop_
_geom_bond_atom_site_label_1
_geom_bond_atom_site_label_2
_geom_bond_distance
_geom_bond_site_symmetry_2
_ccdc_geom_bond_type
O1     C5      1.293   .     A
O1     Zn13    1.994   .     S
O2     C6      1.288   .     A
O2     Zn14    1.994   .     S
O3     Zn14    1.985   .     S
O3     C5      1.298   .     A
O4     Zn13    1.985   .     S
O4     C6      1.292   .     A
C5     C23     1.459   .     S
C6     C24     1.434   .     S
O7     C11     1.278   .     A
O7     Zn13    1.978   .     S
O8     C12     1.277   .     A
O8     Zn14    1.978   .     S
O9     Zn14    1.985   .     S
O9     C11     1.284   .     A
O10    C12     1.288   .     A
O10    Zn13    1.985   .     S
C11    C15     1.403   .     S
C12    C16     1.409   .     S
Zn13   N42     2.018   .     S
Zn14   N41     2.018   .     S
C15    C196    1.349   1_455 S
C15    N229    1.440   1_455 S
C16    C105    1.349   .     S
C16    N142    1.444   .     S
C17    C33     1.396   .     A
C17    C21     1.388   .     A
C17    H19     1.084   .     S
C18    C34     1.399   .     A
C18    C22     1.391   .     A
C18    H20     1.084   .     S
C21    C23     1.417   .     A
C21    N55     1.433   .     S
C22    C24     1.412   .     A
C22    N58     1.441   .     S
C23    C25     1.406   .     A
C24    C26     1.398   .     A
C25    C29     1.380   .     A
C25    H27     1.081   .     S
C26    C30     1.379   .     A
C26    H28     1.082   .     S
C29    C33     1.392   .     A
C29    H31     1.084   .     S
C30    C34     1.394   .     A
C30    H32     1.084   .     S
C33    C304    1.444   1_545 S
C34    C303    1.444   .     S
C35    C39     1.414   .     A
C35    C47     1.408   .     A
C35    H37     1.083   .     S
C36    C40     1.416   .     A
C36    H38     1.081   .     S
C36    C48     1.404   .     A
C39    N41     1.368   .     A
C39    N61     1.416   .     S
C40    N67     1.421   .     S
C40    N42     1.373   .     A
N41    C43     1.382   .     A
N42    C44     1.387   .     A
C43    N73     1.423   .     S
C43    C45     1.424   .     A
C44    C46     1.428   .     A
C44    N79     1.427   .     S
C45    C47     1.414   .     A
C45    N85     1.445   .     S
C46    N88     1.446   .     S
C46    C48     1.411   .     A
C47    C588    1.522   1_554 S
C48    C587    1.522   .     S
N49    O51     1.301   .     A
N49    O50     1.300   .     A
N49    C105    1.440   .     S
N52    O54     1.302   .     A
N52    O53     1.299   .     A
N52    C196    1.444   1_455 S
N55    O56     1.301   .     A
N55    O57     1.301   .     A
N58    O60     1.302   .     A
N58    O59     1.301   .     A
N61    C63     1.446   .     S
N61    H62     1.030   .     S
C63    H65     1.110   .     S
C63    H66     1.107   .     S
C63    H64     1.111   .     S
N67    H68     1.031   .     S
N67    C69     1.449   .     S
C69    H70     1.111   .     S
C69    H71     1.109   .     S
C69    H72     1.111   .     S
N73    H74     1.019   .     S
N73    C75     1.449   .     S
C75    H76     1.110   .     S
C75    H78     1.111   .     S
C75    H77     1.111   .     S
N79    C81     1.453   .     S
N79    H80     1.018   .     S
C81    H82     1.108   .     S
C81    H83     1.112   .     S
C81    H84     1.109   .     S
N85    O86     1.302   .     A
N85    O87     1.301   .     A
N88    O90     1.300   .     A
N88    O629    1.302   .     S
O89    N628    1.302   1_554 S
O91    C95     1.293   .     A
O91    Zn103   1.994   .     S
O92    C96     1.288   .     A
O92    Zn104   1.994   .     S
O93    Zn104   1.985   .     S
O93    C95     1.298   .     A
O94    Zn103   1.985   .     S
O94    C96     1.292   .     A
C95    C113    1.459   .     S
C96    C114    1.434   .     S
O97    C101    1.278   .     A
O97    Zn103   1.978   .     S
O98    C102    1.277   .     A
O98    Zn104   1.978   .     S
O99    Zn104   1.985   .     S
O99    C101    1.284   .     A
O100   C102    1.288   .     A
O100   Zn103   1.985   .     S
C101   C105    1.403   .     S
C102   C106    1.409   .     S
Zn103  N132    2.018   .     S
Zn104  N131    2.018   .     S
C106   C195    1.349   .     S
C106   N232    1.444   .     S
C107   C123    1.396   .     A
C107   C111    1.388   .     A
C107   H109    1.084   .     S
C108   C124    1.399   .     A
C108   C112    1.391   .     A
C108   H110    1.084   .     S
C111   C113    1.417   .     A
C111   N145    1.433   .     S
C112   C114    1.412   .     A
C112   N148    1.441   .     S
C113   C115    1.406   .     A
C114   C116    1.398   .     A
C115   C119    1.380   .     A
C115   H117    1.081   .     S
C116   C120    1.379   .     A
C116   H118    1.082   .     S
C119   C123    1.392   .     A
C119   H121    1.084   .     S
C120   C124    1.394   .     A
C120   H122    1.084   .     S
C123   C394    1.444   1_545 S
C124   C393    1.444   .     S
C125   C129    1.414   .     A
C125   C137    1.408   .     A
C125   H127    1.083   .     S
C126   C130    1.416   .     A
C126   H128    1.081   .     S
C126   C138    1.404   .     A
C129   N131    1.368   .     A
C129   N151    1.416   .     S
C130   N157    1.421   .     S
C130   N132    1.373   .     A
N131   C133    1.382   .     A
N132   C134    1.387   .     A
C133   N163    1.423   .     S
C133   C135    1.424   .     A
C134   C136    1.428   .     A
C134   N169    1.427   .     S
C135   C137    1.414   .     A
C135   N175    1.445   .     S
C136   N178    1.446   .     S
C136   C138    1.411   .     A
C137   C678    1.522   1_554 S
C138   C677    1.522   .     S
N139   O141    1.301   .     A
N139   O140    1.300   .     A
N139   C195    1.440   .     S
N142   O144    1.302   .     A
N142   O143    1.299   .     A
N145   O146    1.301   .     A
N145   O147    1.301   .     A
N148   O150    1.302   .     A
N148   O149    1.301   .     A
N151   C153    1.446   .     S
N151   H152    1.030   .     S
C153   H155    1.110   .     S
C153   H156    1.107   .     S
C153   H154    1.111   .     S
N157   H158    1.031   .     S
N157   C159    1.449   .     S
C159   H160    1.111   .     S
C159   H161    1.109   .     S
C159   H162    1.111   .     S
N163   H164    1.019   .     S
N163   C165    1.449   .     S
C165   H166    1.110   .     S
C165   H168    1.111   .     S
C165   H167    1.111   .     S
N169   C171    1.453   .     S
N169   H170    1.018   .     S
C171   H172    1.108   .     S
C171   H173    1.112   .     S
C171   H174    1.109   .     S
N175   O176    1.302   .     A
N175   O177    1.301   .     A
N178   O180    1.300   .     A
N178   O719    1.302   .     S
O179   N718    1.302   1_554 S
O181   C185    1.293   .     A
O181   Zn193   1.994   .     S
O182   C186    1.288   .     A
O182   Zn194   1.994   .     S
O183   Zn194   1.985   .     S
O183   C185    1.298   .     A
O184   Zn193   1.985   .     S
O184   C186    1.292   .     A
C185   C203    1.459   .     S
C186   C204    1.434   .     S
O187   C191    1.278   .     A
O187   Zn193   1.978   .     S
O188   C192    1.277   .     A
O188   Zn194   1.978   .     S
O189   Zn194   1.985   .     S
O189   C191    1.284   .     A
O190   C192    1.288   .     A
O190   Zn193   1.985   .     S
C191   C195    1.403   .     S
C192   C196    1.409   .     S
Zn193  N222    2.018   .     S
Zn194  N221    2.018   .     S
C196   C15     1.349   1_655 S
C196   N52     1.444   1_655 S
C197   C213    1.396   .     A
C197   C201    1.388   .     A
C197   H199    1.084   .     S
C198   C214    1.399   .     A
C198   C202    1.391   .     A
C198   H200    1.084   .     S
C201   C203    1.417   .     A
C201   N235    1.433   .     S
C202   C204    1.412   .     A
C202   N238    1.441   .     S
C203   C205    1.406   .     A
C204   C206    1.398   .     A
C205   C209    1.380   .     A
C205   H207    1.081   .     S
C206   C210    1.379   .     A
C206   H208    1.082   .     S
C209   C213    1.392   .     A
C209   H211    1.084   .     S
C210   C214    1.394   .     A
C210   H212    1.084   .     S
C213   C484    1.444   1_545 S
C214   C483    1.444   .     S
C215   C219    1.414   .     A
C215   C227    1.408   .     A
C215   H217    1.083   .     S
C216   C220    1.416   .     A
C216   H218    1.081   .     S
C216   C228    1.404   .     A
C219   N221    1.368   .     A
C219   N241    1.416   .     S
C220   N247    1.421   .     S
C220   N222    1.373   .     A
N221   C223    1.382   .     A
N222   C224    1.387   .     A
C223   N253    1.423   .     S
C223   C225    1.424   .     A
C224   C226    1.428   .     A
C224   N259    1.427   .     S
C225   C227    1.414   .     A
C225   N265    1.445   .     S
C226   N268    1.446   .     S
C226   C228    1.411   .     A
C227   C768    1.522   1_554 S
C228   C767    1.522   .     S
N229   O231    1.301   .     A
N229   O230    1.300   .     A
N229   C15     1.440   1_655 S
N232   O234    1.302   .     A
N232   O233    1.299   .     A
N235   O236    1.301   .     A
N235   O237    1.301   .     A
N238   O240    1.302   .     A
N238   O239    1.301   .     A
N241   C243    1.446   .     S
N241   H242    1.030   .     S
C243   H245    1.110   .     S
C243   H246    1.107   .     S
C243   H244    1.111   .     S
N247   H248    1.031   .     S
N247   C249    1.449   .     S
C249   H250    1.111   .     S
C249   H251    1.109   .     S
C249   H252    1.111   .     S
N253   H254    1.019   .     S
N253   C255    1.449   .     S
C255   H256    1.110   .     S
C255   H258    1.111   .     S
C255   H257    1.111   .     S
N259   C261    1.453   .     S
N259   H260    1.018   .     S
C261   H262    1.108   .     S
C261   H263    1.112   .     S
C261   H264    1.109   .     S
N265   O266    1.302   .     A
N265   O267    1.301   .     A
N268   O270    1.300   .     A
N268   O809    1.302   .     S
O269   N808    1.302   1_554 S
O271   C275    1.293   .     A
O271   Zn283   1.994   .     S
O272   C276    1.288   .     A
O272   Zn284   1.994   .     S
O273   Zn284   1.985   .     S
O273   C275    1.298   .     A
O274   Zn283   1.985   .     S
O274   C276    1.292   .     A
C275   C293    1.459   .     S
C276   C294    1.434   .     S
O277   C281    1.278   .     A
O277   Zn283   1.978   .     S
O278   C282    1.277   .     A
O278   Zn284   1.978   .     S
O279   Zn284   1.985   .     S
O279   C281    1.284   .     A
O280   C282    1.288   .     A
O280   Zn283   1.985   .     S
C281   C285    1.403   .     S
C282   C286    1.409   .     S
Zn283  N312    2.018   .     S
Zn284  N311    2.018   .     S
C285   C466    1.349   1_455 S
C285   N499    1.440   1_455 S
C286   C375    1.349   .     S
C286   N412    1.444   .     S
C287   C303    1.396   .     A
C287   C291    1.388   .     A
C287   H289    1.084   .     S
C288   C304    1.399   .     A
C288   C292    1.391   .     A
C288   H290    1.084   .     S
C291   C293    1.417   .     A
C291   N325    1.433   .     S
C292   C294    1.412   .     A
C292   N328    1.441   .     S
C293   C295    1.406   .     A
C294   C296    1.398   .     A
C295   C299    1.380   .     A
C295   H297    1.081   .     S
C296   C300    1.379   .     A
C296   H298    1.082   .     S
C299   C303    1.392   .     A
C299   H301    1.084   .     S
C300   C304    1.394   .     A
C300   H302    1.084   .     S
C304   C33     1.444   1_565 S
C305   C309    1.414   .     A
C305   C317    1.408   .     A
C305   H307    1.083   .     S
C306   C310    1.416   .     A
C306   H308    1.081   .     S
C306   C318    1.404   .     A
C309   N311    1.368   .     A
C309   N331    1.416   .     S
C310   N337    1.421   .     S
C310   N312    1.373   .     A
N311   C313    1.382   .     A
N312   C314    1.387   .     A
C313   N343    1.423   .     S
C313   C315    1.424   .     A
C314   C316    1.428   .     A
C314   N349    1.427   .     S
C315   C317    1.414   .     A
C315   N355    1.445   .     S
C316   N358    1.446   .     S
C316   C318    1.411   .     A
C317   C858    1.522   1_554 S
C318   C857    1.522   .     S
N319   O321    1.301   .     A
N319   O320    1.300   .     A
N319   C375    1.440   .     S
N322   O324    1.302   .     A
N322   O323    1.299   .     A
N322   C466    1.444   1_455 S
N325   O326    1.301   .     A
N325   O327    1.301   .     A
N328   O330    1.302   .     A
N328   O329    1.301   .     A
N331   C333    1.446   .     S
N331   H332    1.030   .     S
C333   H335    1.110   .     S
C333   H336    1.107   .     S
C333   H334    1.111   .     S
N337   H338    1.031   .     S
N337   C339    1.449   .     S
C339   H340    1.111   .     S
C339   H341    1.109   .     S
C339   H342    1.111   .     S
N343   H344    1.019   .     S
N343   C345    1.449   .     S
C345   H346    1.110   .     S
C345   H348    1.111   .     S
C345   H347    1.111   .     S
N349   C351    1.453   .     S
N349   H350    1.018   .     S
C351   H352    1.108   .     S
C351   H353    1.112   .     S
C351   H354    1.109   .     S
N355   O356    1.302   .     A
N355   O357    1.301   .     A
N358   O360    1.300   .     A
N358   O899    1.302   .     S
O359   N898    1.302   1_554 S
O361   C365    1.293   .     A
O361   Zn373   1.994   .     S
O362   C366    1.288   .     A
O362   Zn374   1.994   .     S
O363   Zn374   1.985   .     S
O363   C365    1.298   .     A
O364   Zn373   1.985   .     S
O364   C366    1.292   .     A
C365   C383    1.459   .     S
C366   C384    1.434   .     S
O367   C371    1.278   .     A
O367   Zn373   1.978   .     S
O368   C372    1.277   .     A
O368   Zn374   1.978   .     S
O369   Zn374   1.985   .     S
O369   C371    1.284   .     A
O370   C372    1.288   .     A
O370   Zn373   1.985   .     S
C371   C375    1.403   .     S
C372   C376    1.409   .     S
Zn373  N402    2.018   .     S
Zn374  N401    2.018   .     S
C376   C465    1.349   .     S
C376   N502    1.444   .     S
C377   C393    1.396   .     A
C377   C381    1.388   .     A
C377   H379    1.084   .     S
C378   C394    1.399   .     A
C378   C382    1.391   .     A
C378   H380    1.084   .     S
C381   C383    1.417   .     A
C381   N415    1.433   .     S
C382   C384    1.412   .     A
C382   N418    1.441   .     S
C383   C385    1.406   .     A
C384   C386    1.398   .     A
C385   C389    1.380   .     A
C385   H387    1.081   .     S
C386   C390    1.379   .     A
C386   H388    1.082   .     S
C389   C393    1.392   .     A
C389   H391    1.084   .     S
C390   C394    1.394   .     A
C390   H392    1.084   .     S
C394   C123    1.444   1_565 S
C395   C399    1.414   .     A
C395   C407    1.408   .     A
C395   H397    1.083   .     S
C396   C400    1.416   .     A
C396   H398    1.081   .     S
C396   C408    1.404   .     A
C399   N401    1.368   .     A
C399   N421    1.416   .     S
C400   N427    1.421   .     S
C400   N402    1.373   .     A
N401   C403    1.382   .     A
N402   C404    1.387   .     A
C403   N433    1.423   .     S
C403   C405    1.424   .     A
C404   C406    1.428   .     A
C404   N439    1.427   .     S
C405   C407    1.414   .     A
C405   N445    1.445   .     S
C406   N448    1.446   .     S
C406   C408    1.411   .     A
C407   C948    1.522   1_554 S
C408   C947    1.522   .     S
N409   O411    1.301   .     A
N409   O410    1.300   .     A
N409   C465    1.440   .     S
N412   O414    1.302   .     A
N412   O413    1.299   .     A
N415   O416    1.301   .     A
N415   O417    1.301   .     A
N418   O420    1.302   .     A
N418   O419    1.301   .     A
N421   C423    1.446   .     S
N421   H422    1.030   .     S
C423   H425    1.110   .     S
C423   H426    1.107   .     S
C423   H424    1.111   .     S
N427   H428    1.031   .     S
N427   C429    1.449   .     S
C429   H430    1.111   .     S
C429   H431    1.109   .     S
C429   H432    1.111   .     S
N433   H434    1.019   .     S
N433   C435    1.449   .     S
C435   H436    1.110   .     S
C435   H438    1.111   .     S
C435   H437    1.111   .     S
N439   C441    1.453   .     S
N439   H440    1.018   .     S
C441   H442    1.108   .     S
C441   H443    1.112   .     S
C441   H444    1.109   .     S
N445   O446    1.302   .     A
N445   O447    1.301   .     A
N448   O450    1.300   .     A
N448   O989    1.302   .     S
O449   N988    1.302   1_554 S
O451   C455    1.293   .     A
O451   Zn463   1.994   .     S
O452   C456    1.288   .     A
O452   Zn464   1.994   .     S
O453   Zn464   1.985   .     S
O453   C455    1.298   .     A
O454   Zn463   1.985   .     S
O454   C456    1.292   .     A
C455   C473    1.459   .     S
C456   C474    1.434   .     S
O457   C461    1.278   .     A
O457   Zn463   1.978   .     S
O458   C462    1.277   .     A
O458   Zn464   1.978   .     S
O459   Zn464   1.985   .     S
O459   C461    1.284   .     A
O460   C462    1.288   .     A
O460   Zn463   1.985   .     S
C461   C465    1.403   .     S
C462   C466    1.409   .     S
Zn463  N492    2.018   .     S
Zn464  N491    2.018   .     S
C466   C285    1.349   1_655 S
C466   N322    1.444   1_655 S
C467   C483    1.396   .     A
C467   C471    1.388   .     A
C467   H469    1.084   .     S
C468   C484    1.399   .     A
C468   C472    1.391   .     A
C468   H470    1.084   .     S
C471   C473    1.417   .     A
C471   N505    1.433   .     S
C472   C474    1.412   .     A
C472   N508    1.441   .     S
C473   C475    1.406   .     A
C474   C476    1.398   .     A
C475   C479    1.380   .     A
C475   H477    1.081   .     S
C476   C480    1.379   .     A
C476   H478    1.082   .     S
C479   C483    1.392   .     A
C479   H481    1.084   .     S
C480   C484    1.394   .     A
C480   H482    1.084   .     S
C484   C213    1.444   1_565 S
C485   C489    1.414   .     A
C485   C497    1.408   .     A
C485   H487    1.083   .     S
C486   C490    1.416   .     A
C486   H488    1.081   .     S
C486   C498    1.404   .     A
C489   N491    1.368   .     A
C489   N511    1.416   .     S
C490   N517    1.421   .     S
C490   N492    1.373   .     A
N491   C493    1.382   .     A
N492   C494    1.387   .     A
C493   N523    1.423   .     S
C493   C495    1.424   .     A
C494   C496    1.428   .     A
C494   N529    1.427   .     S
C495   C497    1.414   .     A
C495   N535    1.445   .     S
C496   N538    1.446   .     S
C496   C498    1.411   .     A
C497   C1038   1.522   1_554 S
C498   C1037   1.522   .     S
N499   O501    1.301   .     A
N499   O500    1.300   .     A
N499   C285    1.440   1_655 S
N502   O504    1.302   .     A
N502   O503    1.299   .     A
N505   O506    1.301   .     A
N505   O507    1.301   .     A
N508   O510    1.302   .     A
N508   O509    1.301   .     A
N511   C513    1.446   .     S
N511   H512    1.030   .     S
C513   H515    1.110   .     S
C513   H516    1.107   .     S
C513   H514    1.111   .     S
N517   H518    1.031   .     S
N517   C519    1.449   .     S
C519   H520    1.111   .     S
C519   H521    1.109   .     S
C519   H522    1.111   .     S
N523   H524    1.019   .     S
N523   C525    1.449   .     S
C525   H526    1.110   .     S
C525   H528    1.111   .     S
C525   H527    1.111   .     S
N529   C531    1.453   .     S
N529   H530    1.018   .     S
C531   H532    1.108   .     S
C531   H533    1.112   .     S
C531   H534    1.109   .     S
N535   O536    1.302   .     A
N535   O537    1.301   .     A
N538   O540    1.300   .     A
N538   O1079   1.302   .     S
O539   N1078   1.302   1_554 S
O541   C545    1.293   .     A
O541   Zn553   1.994   .     S
O542   C546    1.288   .     A
O542   Zn554   1.994   .     S
O543   Zn554   1.985   .     S
O543   C545    1.298   .     A
O544   Zn553   1.985   .     S
O544   C546    1.292   .     A
C545   C563    1.459   .     S
C546   C564    1.434   .     S
O547   C551    1.278   .     A
O547   Zn553   1.978   .     S
O548   C552    1.277   .     A
O548   Zn554   1.978   .     S
O549   Zn554   1.985   .     S
O549   C551    1.284   .     A
O550   C552    1.288   .     A
O550   Zn553   1.985   .     S
C551   C555    1.403   .     S
C552   C556    1.409   .     S
Zn553  N582    2.018   .     S
Zn554  N581    2.018   .     S
C555   C736    1.349   1_455 S
C555   N769    1.440   1_455 S
C556   C645    1.349   .     S
C556   N682    1.444   .     S
C557   C573    1.396   .     A
C557   C561    1.388   .     A
C557   H559    1.084   .     S
C558   C574    1.399   .     A
C558   C562    1.391   .     A
C558   H560    1.084   .     S
C561   C563    1.417   .     A
C561   N595    1.433   .     S
C562   C564    1.412   .     A
C562   N598    1.441   .     S
C563   C565    1.406   .     A
C564   C566    1.398   .     A
C565   C569    1.380   .     A
C565   H567    1.081   .     S
C566   C570    1.379   .     A
C566   H568    1.082   .     S
C569   C573    1.392   .     A
C569   H571    1.084   .     S
C570   C574    1.394   .     A
C570   H572    1.084   .     S
C573   C844    1.444   1_545 S
C574   C843    1.444   .     S
C575   C579    1.414   .     A
C575   C587    1.408   .     A
C575   H577    1.083   .     S
C576   C580    1.416   .     A
C576   H578    1.081   .     S
C576   C588    1.404   .     A
C579   N581    1.368   .     A
C579   N601    1.416   .     S
C580   N607    1.421   .     S
C580   N582    1.373   .     A
N581   C583    1.382   .     A
N582   C584    1.387   .     A
C583   N613    1.423   .     S
C583   C585    1.424   .     A
C584   C586    1.428   .     A
C584   N619    1.427   .     S
C585   C587    1.414   .     A
C585   N625    1.445   .     S
C586   N628    1.446   .     S
C586   C588    1.411   .     A
C588   C47     1.522   1_556 S
N589   O591    1.301   .     A
N589   O590    1.300   .     A
N589   C645    1.440   .     S
N592   O594    1.302   .     A
N592   O593    1.299   .     A
N592   C736    1.444   1_455 S
N595   O596    1.301   .     A
N595   O597    1.301   .     A
N598   O600    1.302   .     A
N598   O599    1.301   .     A
N601   C603    1.446   .     S
N601   H602    1.030   .     S
C603   H605    1.110   .     S
C603   H606    1.107   .     S
C603   H604    1.111   .     S
N607   H608    1.031   .     S
N607   C609    1.449   .     S
C609   H610    1.111   .     S
C609   H611    1.109   .     S
C609   H612    1.111   .     S
N613   H614    1.019   .     S
N613   C615    1.449   .     S
C615   H616    1.110   .     S
C615   H618    1.111   .     S
C615   H617    1.111   .     S
N619   C621    1.453   .     S
N619   H620    1.018   .     S
C621   H622    1.108   .     S
C621   H623    1.112   .     S
C621   H624    1.109   .     S
N625   O626    1.302   .     A
N625   O627    1.301   .     A
N628   O630    1.300   .     A
N628   O89     1.302   1_556 S
O631   C635    1.293   .     A
O631   Zn643   1.994   .     S
O632   C636    1.288   .     A
O632   Zn644   1.994   .     S
O633   Zn644   1.985   .     S
O633   C635    1.298   .     A
O634   Zn643   1.985   .     S
O634   C636    1.292   .     A
C635   C653    1.459   .     S
C636   C654    1.434   .     S
O637   C641    1.278   .     A
O637   Zn643   1.978   .     S
O638   C642    1.277   .     A
O638   Zn644   1.978   .     S
O639   Zn644   1.985   .     S
O639   C641    1.284   .     A
O640   C642    1.288   .     A
O640   Zn643   1.985   .     S
C641   C645    1.403   .     S
C642   C646    1.409   .     S
Zn643  N672    2.018   .     S
Zn644  N671    2.018   .     S
C646   C735    1.349   .     S
C646   N772    1.444   .     S
C647   C663    1.396   .     A
C647   C651    1.388   .     A
C647   H649    1.084   .     S
C648   C664    1.399   .     A
C648   C652    1.391   .     A
C648   H650    1.084   .     S
C651   C653    1.417   .     A
C651   N685    1.433   .     S
C652   C654    1.412   .     A
C652   N688    1.441   .     S
C653   C655    1.406   .     A
C654   C656    1.398   .     A
C655   C659    1.380   .     A
C655   H657    1.081   .     S
C656   C660    1.379   .     A
C656   H658    1.082   .     S
C659   C663    1.392   .     A
C659   H661    1.084   .     S
C660   C664    1.394   .     A
C660   H662    1.084   .     S
C663   C934    1.444   1_545 S
C664   C933    1.444   .     S
C665   C669    1.414   .     A
C665   C677    1.408   .     A
C665   H667    1.083   .     S
C666   C670    1.416   .     A
C666   H668    1.081   .     S
C666   C678    1.404   .     A
C669   N671    1.368   .     A
C669   N691    1.416   .     S
C670   N697    1.421   .     S
C670   N672    1.373   .     A
N671   C673    1.382   .     A
N672   C674    1.387   .     A
C673   N703    1.423   .     S
C673   C675    1.424   .     A
C674   C676    1.428   .     A
C674   N709    1.427   .     S
C675   C677    1.414   .     A
C675   N715    1.445   .     S
C676   N718    1.446   .     S
C676   C678    1.411   .     A
C678   C137    1.522   1_556 S
N679   O681    1.301   .     A
N679   O680    1.300   .     A
N679   C735    1.440   .     S
N682   O684    1.302   .     A
N682   O683    1.299   .     A
N685   O686    1.301   .     A
N685   O687    1.301   .     A
N688   O690    1.302   .     A
N688   O689    1.301   .     A
N691   C693    1.446   .     S
N691   H692    1.030   .     S
C693   H695    1.110   .     S
C693   H696    1.107   .     S
C693   H694    1.111   .     S
N697   H698    1.031   .     S
N697   C699    1.449   .     S
C699   H700    1.111   .     S
C699   H701    1.109   .     S
C699   H702    1.111   .     S
N703   H704    1.019   .     S
N703   C705    1.449   .     S
C705   H706    1.110   .     S
C705   H708    1.111   .     S
C705   H707    1.111   .     S
N709   C711    1.453   .     S
N709   H710    1.018   .     S
C711   H712    1.108   .     S
C711   H713    1.112   .     S
C711   H714    1.109   .     S
N715   O716    1.302   .     A
N715   O717    1.301   .     A
N718   O720    1.300   .     A
N718   O179    1.302   1_556 S
O721   C725    1.293   .     A
O721   Zn733   1.994   .     S
O722   C726    1.288   .     A
O722   Zn734   1.994   .     S
O723   Zn734   1.985   .     S
O723   C725    1.298   .     A
O724   Zn733   1.985   .     S
O724   C726    1.292   .     A
C725   C743    1.459   .     S
C726   C744    1.434   .     S
O727   C731    1.278   .     A
O727   Zn733   1.978   .     S
O728   C732    1.277   .     A
O728   Zn734   1.978   .     S
O729   Zn734   1.985   .     S
O729   C731    1.284   .     A
O730   C732    1.288   .     A
O730   Zn733   1.985   .     S
C731   C735    1.403   .     S
C732   C736    1.409   .     S
Zn733  N762    2.018   .     S
Zn734  N761    2.018   .     S
C736   C555    1.349   1_655 S
C736   N592    1.444   1_655 S
C737   C753    1.396   .     A
C737   C741    1.388   .     A
C737   H739    1.084   .     S
C738   C754    1.399   .     A
C738   C742    1.391   .     A
C738   H740    1.084   .     S
C741   C743    1.417   .     A
C741   N775    1.433   .     S
C742   C744    1.412   .     A
C742   N778    1.441   .     S
C743   C745    1.406   .     A
C744   C746    1.398   .     A
C745   C749    1.380   .     A
C745   H747    1.081   .     S
C746   C750    1.379   .     A
C746   H748    1.082   .     S
C749   C753    1.392   .     A
C749   H751    1.084   .     S
C750   C754    1.394   .     A
C750   H752    1.084   .     S
C753   C1024   1.444   1_545 S
C754   C1023   1.444   .     S
C755   C759    1.414   .     A
C755   C767    1.408   .     A
C755   H757    1.083   .     S
C756   C760    1.416   .     A
C756   H758    1.081   .     S
C756   C768    1.404   .     A
C759   N761    1.368   .     A
C759   N781    1.416   .     S
C760   N787    1.421   .     S
C760   N762    1.373   .     A
N761   C763    1.382   .     A
N762   C764    1.387   .     A
C763   N793    1.423   .     S
C763   C765    1.424   .     A
C764   C766    1.428   .     A
C764   N799    1.427   .     S
C765   C767    1.414   .     A
C765   N805    1.445   .     S
C766   N808    1.446   .     S
C766   C768    1.411   .     A
C768   C227    1.522   1_556 S
N769   O771    1.301   .     A
N769   O770    1.300   .     A
N769   C555    1.440   1_655 S
N772   O774    1.302   .     A
N772   O773    1.299   .     A
N775   O776    1.301   .     A
N775   O777    1.301   .     A
N778   O780    1.302   .     A
N778   O779    1.301   .     A
N781   C783    1.446   .     S
N781   H782    1.030   .     S
C783   H785    1.110   .     S
C783   H786    1.107   .     S
C783   H784    1.111   .     S
N787   H788    1.031   .     S
N787   C789    1.449   .     S
C789   H790    1.111   .     S
C789   H791    1.109   .     S
C789   H792    1.111   .     S
N793   H794    1.019   .     S
N793   C795    1.449   .     S
C795   H796    1.110   .     S
C795   H798    1.111   .     S
C795   H797    1.111   .     S
N799   C801    1.453   .     S
N799   H800    1.018   .     S
C801   H802    1.108   .     S
C801   H803    1.112   .     S
C801   H804    1.109   .     S
N805   O806    1.302   .     A
N805   O807    1.301   .     A
N808   O810    1.300   .     A
N808   O269    1.302   1_556 S
O811   C815    1.293   .     A
O811   Zn823   1.994   .     S
O812   C816    1.288   .     A
O812   Zn824   1.994   .     S
O813   Zn824   1.985   .     S
O813   C815    1.298   .     A
O814   Zn823   1.985   .     S
O814   C816    1.292   .     A
C815   C833    1.459   .     S
C816   C834    1.434   .     S
O817   C821    1.278   .     A
O817   Zn823   1.978   .     S
O818   C822    1.277   .     A
O818   Zn824   1.978   .     S
O819   Zn824   1.985   .     S
O819   C821    1.284   .     A
O820   C822    1.288   .     A
O820   Zn823   1.985   .     S
C821   C825    1.403   .     S
C822   C826    1.409   .     S
Zn823  N852    2.018   .     S
Zn824  N851    2.018   .     S
C825   C1006   1.349   1_455 S
C825   N1039   1.440   1_455 S
C826   C915    1.349   .     S
C826   N952    1.444   .     S
C827   C843    1.396   .     A
C827   C831    1.388   .     A
C827   H829    1.084   .     S
C828   C844    1.399   .     A
C828   C832    1.391   .     A
C828   H830    1.084   .     S
C831   C833    1.417   .     A
C831   N865    1.433   .     S
C832   C834    1.412   .     A
C832   N868    1.441   .     S
C833   C835    1.406   .     A
C834   C836    1.398   .     A
C835   C839    1.380   .     A
C835   H837    1.081   .     S
C836   C840    1.379   .     A
C836   H838    1.082   .     S
C839   C843    1.392   .     A
C839   H841    1.084   .     S
C840   C844    1.394   .     A
C840   H842    1.084   .     S
C844   C573    1.444   1_565 S
C845   C849    1.414   .     A
C845   C857    1.408   .     A
C845   H847    1.083   .     S
C846   C850    1.416   .     A
C846   H848    1.081   .     S
C846   C858    1.404   .     A
C849   N851    1.368   .     A
C849   N871    1.416   .     S
C850   N877    1.421   .     S
C850   N852    1.373   .     A
N851   C853    1.382   .     A
N852   C854    1.387   .     A
C853   N883    1.423   .     S
C853   C855    1.424   .     A
C854   C856    1.428   .     A
C854   N889    1.427   .     S
C855   C857    1.414   .     A
C855   N895    1.445   .     S
C856   N898    1.446   .     S
C856   C858    1.411   .     A
C858   C317    1.522   1_556 S
N859   O861    1.301   .     A
N859   O860    1.300   .     A
N859   C915    1.440   .     S
N862   O864    1.302   .     A
N862   O863    1.299   .     A
N862   C1006   1.444   1_455 S
N865   O866    1.301   .     A
N865   O867    1.301   .     A
N868   O870    1.302   .     A
N868   O869    1.301   .     A
N871   C873    1.446   .     S
N871   H872    1.030   .     S
C873   H875    1.110   .     S
C873   H876    1.107   .     S
C873   H874    1.111   .     S
N877   H878    1.031   .     S
N877   C879    1.449   .     S
C879   H880    1.111   .     S
C879   H881    1.109   .     S
C879   H882    1.111   .     S
N883   H884    1.019   .     S
N883   C885    1.449   .     S
C885   H886    1.110   .     S
C885   H888    1.111   .     S
C885   H887    1.111   .     S
N889   C891    1.453   .     S
N889   H890    1.018   .     S
C891   H892    1.108   .     S
C891   H893    1.112   .     S
C891   H894    1.109   .     S
N895   O896    1.302   .     A
N895   O897    1.301   .     A
N898   O900    1.300   .     A
N898   O359    1.302   1_556 S
O901   C905    1.293   .     A
O901   Zn913   1.994   .     S
O902   C906    1.288   .     A
O902   Zn914   1.994   .     S
O903   Zn914   1.985   .     S
O903   C905    1.298   .     A
O904   Zn913   1.985   .     S
O904   C906    1.292   .     A
C905   C923    1.459   .     S
C906   C924    1.434   .     S
O907   C911    1.278   .     A
O907   Zn913   1.978   .     S
O908   C912    1.277   .     A
O908   Zn914   1.978   .     S
O909   Zn914   1.985   .     S
O909   C911    1.284   .     A
O910   C912    1.288   .     A
O910   Zn913   1.985   .     S
C911   C915    1.403   .     S
C912   C916    1.409   .     S
Zn913  N942    2.018   .     S
Zn914  N941    2.018   .     S
C916   C1005   1.349   .     S
C916   N1042   1.444   .     S
C917   C933    1.396   .     A
C917   C921    1.388   .     A
C917   H919    1.084   .     S
C918   C934    1.399   .     A
C918   C922    1.391   .     A
C918   H920    1.084   .     S
C921   C923    1.417   .     A
C921   N955    1.433   .     S
C922   C924    1.412   .     A
C922   N958    1.441   .     S
C923   C925    1.406   .     A
C924   C926    1.398   .     A
C925   C929    1.380   .     A
C925   H927    1.081   .     S
C926   C930    1.379   .     A
C926   H928    1.082   .     S
C929   C933    1.392   .     A
C929   H931    1.084   .     S
C930   C934    1.394   .     A
C930   H932    1.084   .     S
C934   C663    1.444   1_565 S
C935   C939    1.414   .     A
C935   C947    1.408   .     A
C935   H937    1.083   .     S
C936   C940    1.416   .     A
C936   H938    1.081   .     S
C936   C948    1.404   .     A
C939   N941    1.368   .     A
C939   N961    1.416   .     S
C940   N967    1.421   .     S
C940   N942    1.373   .     A
N941   C943    1.382   .     A
N942   C944    1.387   .     A
C943   N973    1.423   .     S
C943   C945    1.424   .     A
C944   C946    1.428   .     A
C944   N979    1.427   .     S
C945   C947    1.414   .     A
C945   N985    1.445   .     S
C946   N988    1.446   .     S
C946   C948    1.411   .     A
C948   C407    1.522   1_556 S
N949   O951    1.301   .     A
N949   O950    1.300   .     A
N949   C1005   1.440   .     S
N952   O954    1.302   .     A
N952   O953    1.299   .     A
N955   O956    1.301   .     A
N955   O957    1.301   .     A
N958   O960    1.302   .     A
N958   O959    1.301   .     A
N961   C963    1.446   .     S
N961   H962    1.030   .     S
C963   H965    1.110   .     S
C963   H966    1.107   .     S
C963   H964    1.111   .     S
N967   H968    1.031   .     S
N967   C969    1.449   .     S
C969   H970    1.111   .     S
C969   H971    1.109   .     S
C969   H972    1.111   .     S
N973   H974    1.019   .     S
N973   C975    1.449   .     S
C975   H976    1.110   .     S
C975   H978    1.111   .     S
C975   H977    1.111   .     S
N979   C981    1.453   .     S
N979   H980    1.018   .     S
C981   H982    1.108   .     S
C981   H983    1.112   .     S
C981   H984    1.109   .     S
N985   O986    1.302   .     A
N985   O987    1.301   .     A
N988   O990    1.300   .     A
N988   O449    1.302   1_556 S
O991   C995    1.293   .     A
O991   Zn1003  1.994   .     S
O992   C996    1.288   .     A
O992   Zn1004  1.994   .     S
O993   Zn1004  1.985   .     S
O993   C995    1.298   .     A
O994   Zn1003  1.985   .     S
O994   C996    1.292   .     A
C995   C1013   1.459   .     S
C996   C1014   1.434   .     S
O997   C1001   1.278   .     A
O997   Zn1003  1.978   .     S
O998   C1002   1.277   .     A
O998   Zn1004  1.978   .     S
O999   Zn1004  1.985   .     S
O999   C1001   1.284   .     A
O1000  C1002   1.288   .     A
O1000  Zn1003  1.985   .     S
C1001  C1005   1.403   .     S
C1002  C1006   1.409   .     S
Zn1003 N1032   2.018   .     S
Zn1004 N1031   2.018   .     S
C1006  C825    1.349   1_655 S
C1006  N862    1.444   1_655 S
C1007  C1023   1.396   .     A
C1007  C1011   1.388   .     A
C1007  H1009   1.084   .     S
C1008  C1024   1.399   .     A
C1008  C1012   1.391   .     A
C1008  H1010   1.084   .     S
C1011  C1013   1.417   .     A
C1011  N1045   1.433   .     S
C1012  C1014   1.412   .     A
C1012  N1048   1.441   .     S
C1013  C1015   1.406   .     A
C1014  C1016   1.398   .     A
C1015  C1019   1.380   .     A
C1015  H1017   1.081   .     S
C1016  C1020   1.379   .     A
C1016  H1018   1.082   .     S
C1019  C1023   1.392   .     A
C1019  H1021   1.084   .     S
C1020  C1024   1.394   .     A
C1020  H1022   1.084   .     S
C1024  C753    1.444   1_565 S
C1025  C1029   1.414   .     A
C1025  C1037   1.408   .     A
C1025  H1027   1.083   .     S
C1026  C1030   1.416   .     A
C1026  H1028   1.081   .     S
C1026  C1038   1.404   .     A
C1029  N1031   1.368   .     A
C1029  N1051   1.416   .     S
C1030  N1057   1.421   .     S
C1030  N1032   1.373   .     A
N1031  C1033   1.382   .     A
N1032  C1034   1.387   .     A
C1033  N1063   1.423   .     S
C1033  C1035   1.424   .     A
C1034  C1036   1.428   .     A
C1034  N1069   1.427   .     S
C1035  C1037   1.414   .     A
C1035  N1075   1.445   .     S
C1036  N1078   1.446   .     S
C1036  C1038   1.411   .     A
C1038  C497    1.522   1_556 S
N1039  O1041   1.301   .     A
N1039  O1040   1.300   .     A
N1039  C825    1.440   1_655 S
N1042  O1044   1.302   .     A
N1042  O1043   1.299   .     A
N1045  O1046   1.301   .     A
N1045  O1047   1.301   .     A
N1048  O1050   1.302   .     A
N1048  O1049   1.301   .     A
N1051  C1053   1.446   .     S
N1051  H1052   1.030   .     S
C1053  H1055   1.110   .     S
C1053  H1056   1.107   .     S
C1053  H1054   1.111   .     S
N1057  H1058   1.031   .     S
N1057  C1059   1.449   .     S
C1059  H1060   1.111   .     S
C1059  H1061   1.109   .     S
C1059  H1062   1.111   .     S
N1063  H1064   1.019   .     S
N1063  C1065   1.449   .     S
C1065  H1066   1.110   .     S
C1065  H1068   1.111   .     S
C1065  H1067   1.111   .     S
N1069  C1071   1.453   .     S
N1069  H1070   1.018   .     S
C1071  H1072   1.108   .     S
C1071  H1073   1.112   .     S
C1071  H1074   1.109   .     S
N1075  O1076   1.302   .     A
N1075  O1077   1.301   .     A
N1078  O1080   1.300   .     A
N1078  O539    1.302   1_556 S
