data_str_m3_o1_o2_pcu_sym.80
_audit_creation_date              2020-01-03
_audit_creation_method            'Materials Studio'
_symmetry_space_group_name_H-M    'P1'
_symmetry_Int_Tables_number       1
_symmetry_cell_setting            triclinic
loop_
_symmetry_equiv_pos_as_xyz
  x,y,z
_cell_length_a                    32.0272
_cell_length_b                    29.8520
_cell_length_c                    29.9876
_cell_angle_alpha                 90.6229
_cell_angle_beta                  91.8146
_cell_angle_gamma                 90.1974
loop_
_atom_site_label
_atom_site_type_symbol
_atom_site_fract_x
_atom_site_fract_y
_atom_site_fract_z
_atom_site_U_iso_or_equiv
_atom_site_adp_type
_atom_site_occupancy
C1     C     0.08685   0.16670   0.25503   0.00000  Uiso   1.00
C2     C     0.31278   0.20807   0.24231   0.00000  Uiso   1.00
C3     C     0.31250   0.12645   0.23995   0.00000  Uiso   1.00
C4     C     0.02059   0.20788   0.25751   0.00000  Uiso   1.00
C5     C     0.18364   0.19753   0.04358   0.00000  Uiso   1.00
C6     C     0.15889   0.12319   0.45073   0.00000  Uiso   1.00
C7     C     0.13659   0.20101   0.45420   0.00000  Uiso   1.00
C8     C     0.14656   0.12674   0.05034   0.00000  Uiso   1.00
C9     C     0.18629   0.20125   0.09004   0.00000  Uiso   1.00
C10    C     0.15209   0.12383   0.40509   0.00000  Uiso   1.00
C11    C     0.14089   0.20411   0.40810   0.00000  Uiso   1.00
C12    C     0.24631   0.16677   0.24446   0.00000  Uiso   1.00
C13    C     0.16239   0.12428   0.09343   0.00000  Uiso   1.00
C14    C     0.17411   0.16424   0.11565   0.00000  Uiso   1.00
C15    C     0.15141   0.16540   0.38314   0.00000  Uiso   1.00
C16    C     0.15960   0.16234   0.02391   0.00000  Uiso   1.00
C17    C     0.15043   0.16180   0.47589   0.00000  Uiso   1.00
C18    C     0.29096   0.16721   0.23851   0.00000  Uiso   1.00
C19    C     0.04200   0.16690   0.25982   0.00000  Uiso   1.00
C20    C     0.23843   0.21181   0.49933   0.00000  Uiso   1.00
C21    C     0.25771   0.24646   0.46902   0.00000  Uiso   1.00
C22    C     0.29115   0.22568   0.44012   0.00000  Uiso   1.00
C23    C     0.17018   0.16630   0.16404   0.00000  Uiso   1.00
C24    C     0.21813   0.08348   0.46772   0.00000  Uiso   1.00
C25    C     0.23182   0.03580   0.45657   0.00000  Uiso   1.00
C26    C     0.27918   0.03305   0.45339   0.00000  Uiso   1.00
C27    C     0.08662   0.22982   0.49978   0.00000  Uiso   1.00
C28    C     0.06504   0.27415   0.00976   0.00000  Uiso   1.00
C29    C     0.02955   0.26809   0.04203   0.00000  Uiso   1.00
C30    C     0.07959   0.10510   0.03720   0.00000  Uiso   1.00
C31    C     0.05088   0.06760   0.01963   0.00000  Uiso   1.00
C32    C     0.05843   0.05660   0.47070   0.00000  Uiso   1.00
C33    C     0.16169   0.16668   0.33568   0.00000  Uiso   1.00
C34    C     0.19381   0.02427   0.27767   0.00000  Uiso   1.00
C35    C     0.14021   0.30903   0.22163   0.00000  Uiso   1.00
C36    C     0.13951   0.02350   0.22237   0.00000  Uiso   1.00
C37    C     0.19317   0.30980   0.27833   0.00000  Uiso   1.00
C38    C     0.02001   0.12621   0.25607   0.00000  Uiso   1.00
H39    H     0.23111   0.18127   0.47901   0.00000  Uiso   1.00
H40    H     0.22127   0.01255   0.48269   0.00000  Uiso   1.00
H41    H     0.21716   0.02511   0.42411   0.00000  Uiso   1.00
H42    H     0.29096   0.05906   0.43067   0.00000  Uiso   1.00
H43    H     0.28807   0.33319   0.43987   0.00000  Uiso   1.00
H44    H     0.29410   0.03762   0.48705   0.00000  Uiso   1.00
H45    H     0.09372   0.21300   0.03196   0.00000  Uiso   1.00
H46    H     0.06454   0.20863   0.47905   0.00000  Uiso   1.00
H47    H     0.08820   0.29819   0.02475   0.00000  Uiso   1.00
H48    H     0.05236   0.28821   0.47801   0.00000  Uiso   1.00
H49    H     0.00724   0.24208   0.02943   0.00000  Uiso   1.00
H50    H     0.26174   0.20308   0.02621   0.00000  Uiso   1.00
H51    H     0.01247   0.30014   0.04578   0.00000  Uiso   1.00
H52    H     0.04226   0.25801   0.07529   0.00000  Uiso   1.00
H53    H     0.07266   0.13567   0.01747   0.00000  Uiso   1.00
H54    H     0.07220   0.11173   0.07276   0.00000  Uiso   1.00
H55    H     0.05601   0.03726   0.04012   0.00000  Uiso   1.00
H56    H     0.01795   0.07831   0.02306   0.00000  Uiso   1.00
H57    H     0.05507   0.08712   0.45004   0.00000  Uiso   1.00
H58    H     0.03540   0.03129   0.45820   0.00000  Uiso   1.00
H59    H     0.09019   0.04251   0.46715   0.00000  Uiso   1.00
H60    H     0.23297   0.26104   0.44679   0.00000  Uiso   1.00
H61    H     0.27182   0.27374   0.49008   0.00000  Uiso   1.00
H62    H     0.31521   0.20849   0.46109   0.00000  Uiso   1.00
H63    H     0.30657   0.25226   0.42084   0.00000  Uiso   1.00
H64    H     0.27670   0.20101   0.41623   0.00000  Uiso   1.00
H65    H     0.23209   0.09373   0.00070   0.00000  Uiso   1.00
H66    H     0.23083   0.10620   0.44195   0.00000  Uiso   1.00
I67    I     0.23810   0.05901   0.32090   0.00000  Uiso   1.00
I68    I     0.28929   0.26887   0.21413   0.00000  Uiso   1.00
I69    I     0.28898   0.06781   0.20588   0.00000  Uiso   1.00
I70    I     0.04464   0.26816   0.28803   0.00000  Uiso   1.00
I71    I     0.09951   0.27415   0.17479   0.00000  Uiso   1.00
I72    I     0.09460   0.05702   0.17991   0.00000  Uiso   1.00
I73    I     0.23407   0.27603   0.32488   0.00000  Uiso   1.00
I74    I     0.21272   0.26132   0.11712   0.00000  Uiso   1.00
I75    I     0.13441   0.06103   0.37566   0.00000  Uiso   1.00
I76    I     0.12672   0.26746   0.38020   0.00000  Uiso   1.00
I77    I     0.18693   0.06069   0.11188   0.00000  Uiso   1.00
I78    I     0.04115   0.06730   0.28939   0.00000  Uiso   1.00
N79    N     0.16667   0.28573   0.25000   0.00000  Uiso   1.00
N80    N     0.16667   0.04760   0.25000   0.00000  Uiso   1.00
O81    O     0.10559   0.20487   0.24999   0.00000  Uiso   1.00
O82    O     0.17406   0.08449   0.47028   0.00000  Uiso   1.00
O83    O     0.12416   0.23868   0.47781   0.00000  Uiso   1.00
O84    O     0.12173   0.09223   0.03348   0.00000  Uiso   1.00
O85    O     0.22774   0.12846   0.25000   0.00000  Uiso   1.00
O86    O     0.22774   0.20487   0.25000   0.00000  Uiso   1.00
O87    O     0.10559   0.12846   0.24999   0.00000  Uiso   1.00
O88    O     0.16666   0.20489   0.18453   0.00000  Uiso   1.00
O89    O     0.16667   0.12845   0.31547   0.00000  Uiso   1.00
O90    O     0.16667   0.20489   0.31547   0.00000  Uiso   1.00
O91    O     0.16666   0.12845   0.18453   0.00000  Uiso   1.00
O92    O     0.20204   0.22996   0.01790   0.00000  Uiso   1.00
Zn93   Zn    0.16667   0.21771   0.25000   0.00000  Uiso   1.00
Zn94   Zn    0.16667   0.11563   0.25000   0.00000  Uiso   1.00
C95    C     0.42019   0.16670   0.25503   0.00000  Uiso   1.00
C96    C     0.64611   0.20807   0.24231   0.00000  Uiso   1.00
C97    C     0.64584   0.12645   0.23995   0.00000  Uiso   1.00
C98    C     0.35392   0.20788   0.25751   0.00000  Uiso   1.00
C99    C     0.51698   0.19753   0.04358   0.00000  Uiso   1.00
C100   C     0.49222   0.12319   0.45073   0.00000  Uiso   1.00
C101   C     0.46992   0.20101   0.45420   0.00000  Uiso   1.00
C102   C     0.47989   0.12674   0.05034   0.00000  Uiso   1.00
C103   C     0.51962   0.20125   0.09004   0.00000  Uiso   1.00
C104   C     0.48543   0.12383   0.40509   0.00000  Uiso   1.00
C105   C     0.47422   0.20411   0.40810   0.00000  Uiso   1.00
C106   C     0.57964   0.16677   0.24446   0.00000  Uiso   1.00
C107   C     0.49572   0.12428   0.09343   0.00000  Uiso   1.00
C108   C     0.50744   0.16424   0.11565   0.00000  Uiso   1.00
C109   C     0.48475   0.16540   0.38314   0.00000  Uiso   1.00
C110   C     0.49293   0.16234   0.02391   0.00000  Uiso   1.00
C111   C     0.48376   0.16180   0.47589   0.00000  Uiso   1.00
C112   C     0.62429   0.16721   0.23851   0.00000  Uiso   1.00
C113   C     0.37533   0.16690   0.25982   0.00000  Uiso   1.00
C114   C     0.57176   0.21181   0.49933   0.00000  Uiso   1.00
C115   C     0.59105   0.24646   0.46902   0.00000  Uiso   1.00
C116   C     0.62448   0.22568   0.44012   0.00000  Uiso   1.00
C117   C     0.50351   0.16630   0.16404   0.00000  Uiso   1.00
C118   C     0.55146   0.08348   0.46772   0.00000  Uiso   1.00
C119   C     0.56515   0.03580   0.45657   0.00000  Uiso   1.00
C120   C     0.61252   0.03305   0.45339   0.00000  Uiso   1.00
C121   C     0.41995   0.22982   0.49978   0.00000  Uiso   1.00
C122   C     0.39837   0.27415   0.00976   0.00000  Uiso   1.00
C123   C     0.36288   0.26809   0.04203   0.00000  Uiso   1.00
C124   C     0.41292   0.10510   0.03720   0.00000  Uiso   1.00
C125   C     0.38421   0.06760   0.01963   0.00000  Uiso   1.00
C126   C     0.39177   0.05660   0.47070   0.00000  Uiso   1.00
C127   C     0.49503   0.16668   0.33568   0.00000  Uiso   1.00
C128   C     0.52714   0.02427   0.27767   0.00000  Uiso   1.00
C129   C     0.47354   0.30903   0.22163   0.00000  Uiso   1.00
C130   C     0.47285   0.02350   0.22237   0.00000  Uiso   1.00
C131   C     0.52650   0.30980   0.27833   0.00000  Uiso   1.00
C132   C     0.35334   0.12621   0.25607   0.00000  Uiso   1.00
H133   H     0.56444   0.18127   0.47901   0.00000  Uiso   1.00
H134   H     0.55461   0.01255   0.48269   0.00000  Uiso   1.00
H135   H     0.55049   0.02511   0.42411   0.00000  Uiso   1.00
H136   H     0.62430   0.05906   0.43067   0.00000  Uiso   1.00
H137   H     0.62140   0.33319   0.43987   0.00000  Uiso   1.00
H138   H     0.62743   0.03762   0.48705   0.00000  Uiso   1.00
H139   H     0.42705   0.21300   0.03196   0.00000  Uiso   1.00
H140   H     0.39788   0.20863   0.47905   0.00000  Uiso   1.00
H141   H     0.42153   0.29819   0.02475   0.00000  Uiso   1.00
H142   H     0.38569   0.28821   0.47801   0.00000  Uiso   1.00
H143   H     0.34057   0.24208   0.02943   0.00000  Uiso   1.00
H144   H     0.59508   0.20308   0.02621   0.00000  Uiso   1.00
H145   H     0.34580   0.30014   0.04578   0.00000  Uiso   1.00
H146   H     0.37559   0.25801   0.07529   0.00000  Uiso   1.00
H147   H     0.40600   0.13567   0.01747   0.00000  Uiso   1.00
H148   H     0.40554   0.11173   0.07276   0.00000  Uiso   1.00
H149   H     0.38934   0.03726   0.04012   0.00000  Uiso   1.00
H150   H     0.35128   0.07831   0.02306   0.00000  Uiso   1.00
H151   H     0.38841   0.08712   0.45004   0.00000  Uiso   1.00
H152   H     0.36873   0.03129   0.45820   0.00000  Uiso   1.00
H153   H     0.42353   0.04251   0.46715   0.00000  Uiso   1.00
H154   H     0.56630   0.26104   0.44679   0.00000  Uiso   1.00
H155   H     0.60515   0.27374   0.49008   0.00000  Uiso   1.00
H156   H     0.64854   0.20849   0.46109   0.00000  Uiso   1.00
H157   H     0.63990   0.25226   0.42084   0.00000  Uiso   1.00
H158   H     0.61003   0.20101   0.41623   0.00000  Uiso   1.00
H159   H     0.56542   0.09373   0.00070   0.00000  Uiso   1.00
H160   H     0.56416   0.10620   0.44195   0.00000  Uiso   1.00
I161   I     0.57144   0.05901   0.32090   0.00000  Uiso   1.00
I162   I     0.62263   0.26887   0.21413   0.00000  Uiso   1.00
I163   I     0.62232   0.06781   0.20588   0.00000  Uiso   1.00
I164   I     0.37798   0.26816   0.28803   0.00000  Uiso   1.00
I165   I     0.43284   0.27415   0.17479   0.00000  Uiso   1.00
I166   I     0.42794   0.05702   0.17991   0.00000  Uiso   1.00
I167   I     0.56741   0.27603   0.32488   0.00000  Uiso   1.00
I168   I     0.54606   0.26132   0.11712   0.00000  Uiso   1.00
I169   I     0.46774   0.06103   0.37566   0.00000  Uiso   1.00
I170   I     0.46005   0.26746   0.38020   0.00000  Uiso   1.00
I171   I     0.52027   0.06069   0.11188   0.00000  Uiso   1.00
I172   I     0.37448   0.06730   0.28939   0.00000  Uiso   1.00
N173   N     0.50000   0.28573   0.25000   0.00000  Uiso   1.00
N174   N     0.50000   0.04760   0.25000   0.00000  Uiso   1.00
O175   O     0.43892   0.20487   0.24999   0.00000  Uiso   1.00
O176   O     0.50740   0.08449   0.47028   0.00000  Uiso   1.00
O177   O     0.45749   0.23868   0.47781   0.00000  Uiso   1.00
O178   O     0.45506   0.09223   0.03348   0.00000  Uiso   1.00
O179   O     0.56108   0.12846   0.25000   0.00000  Uiso   1.00
O180   O     0.56108   0.20487   0.25000   0.00000  Uiso   1.00
O181   O     0.43892   0.12846   0.24999   0.00000  Uiso   1.00
O182   O     0.50000   0.20489   0.18453   0.00000  Uiso   1.00
O183   O     0.50000   0.12845   0.31547   0.00000  Uiso   1.00
O184   O     0.50000   0.20489   0.31547   0.00000  Uiso   1.00
O185   O     0.50000   0.12845   0.18453   0.00000  Uiso   1.00
O186   O     0.53537   0.22996   0.01790   0.00000  Uiso   1.00
Zn187  Zn    0.50000   0.21771   0.25000   0.00000  Uiso   1.00
Zn188  Zn    0.50000   0.11563   0.25000   0.00000  Uiso   1.00
C189   C     0.75352   0.16670   0.25503   0.00000  Uiso   1.00
C190   C     0.97945   0.20807   0.24231   0.00000  Uiso   1.00
C191   C     0.97917   0.12645   0.23995   0.00000  Uiso   1.00
C192   C     0.68725   0.20788   0.25751   0.00000  Uiso   1.00
C193   C     0.85031   0.19753   0.04358   0.00000  Uiso   1.00
C194   C     0.82555   0.12319   0.45073   0.00000  Uiso   1.00
C195   C     0.80325   0.20101   0.45420   0.00000  Uiso   1.00
C196   C     0.81323   0.12674   0.05034   0.00000  Uiso   1.00
C197   C     0.85295   0.20125   0.09004   0.00000  Uiso   1.00
C198   C     0.81876   0.12383   0.40509   0.00000  Uiso   1.00
C199   C     0.80756   0.20411   0.40810   0.00000  Uiso   1.00
C200   C     0.91298   0.16677   0.24446   0.00000  Uiso   1.00
C201   C     0.82905   0.12428   0.09343   0.00000  Uiso   1.00
C202   C     0.84077   0.16424   0.11565   0.00000  Uiso   1.00
C203   C     0.81808   0.16540   0.38314   0.00000  Uiso   1.00
C204   C     0.82626   0.16234   0.02391   0.00000  Uiso   1.00
C205   C     0.81709   0.16180   0.47589   0.00000  Uiso   1.00
C206   C     0.95762   0.16721   0.23851   0.00000  Uiso   1.00
C207   C     0.70867   0.16690   0.25982   0.00000  Uiso   1.00
C208   C     0.90509   0.21181   0.49933   0.00000  Uiso   1.00
C209   C     0.92438   0.24646   0.46902   0.00000  Uiso   1.00
C210   C     0.95782   0.22568   0.44012   0.00000  Uiso   1.00
C211   C     0.83685   0.16630   0.16404   0.00000  Uiso   1.00
C212   C     0.88480   0.08348   0.46772   0.00000  Uiso   1.00
C213   C     0.89849   0.03580   0.45657   0.00000  Uiso   1.00
C214   C     0.94585   0.03305   0.45339   0.00000  Uiso   1.00
C215   C     0.75328   0.22982   0.49978   0.00000  Uiso   1.00
C216   C     0.73171   0.27415   0.00976   0.00000  Uiso   1.00
C217   C     0.69621   0.26809   0.04203   0.00000  Uiso   1.00
C218   C     0.74626   0.10510   0.03720   0.00000  Uiso   1.00
C219   C     0.71754   0.06760   0.01963   0.00000  Uiso   1.00
C220   C     0.72510   0.05660   0.47070   0.00000  Uiso   1.00
C221   C     0.82836   0.16668   0.33568   0.00000  Uiso   1.00
C222   C     0.86047   0.02427   0.27767   0.00000  Uiso   1.00
C223   C     0.80688   0.30903   0.22163   0.00000  Uiso   1.00
C224   C     0.80618   0.02350   0.22237   0.00000  Uiso   1.00
C225   C     0.85984   0.30980   0.27833   0.00000  Uiso   1.00
C226   C     0.68667   0.12621   0.25607   0.00000  Uiso   1.00
H227   H     0.89777   0.18127   0.47901   0.00000  Uiso   1.00
H228   H     0.88794   0.01255   0.48269   0.00000  Uiso   1.00
H229   H     0.88383   0.02511   0.42411   0.00000  Uiso   1.00
H230   H     0.95763   0.05906   0.43067   0.00000  Uiso   1.00
H231   H     0.95473   0.33319   0.43987   0.00000  Uiso   1.00
H232   H     0.96077   0.03762   0.48705   0.00000  Uiso   1.00
H233   H     0.76038   0.21300   0.03196   0.00000  Uiso   1.00
H234   H     0.73121   0.20863   0.47905   0.00000  Uiso   1.00
H235   H     0.75487   0.29819   0.02475   0.00000  Uiso   1.00
H236   H     0.71902   0.28821   0.47801   0.00000  Uiso   1.00
H237   H     0.67390   0.24208   0.02943   0.00000  Uiso   1.00
H238   H     0.92841   0.20308   0.02621   0.00000  Uiso   1.00
H239   H     0.67913   0.30014   0.04578   0.00000  Uiso   1.00
H240   H     0.70892   0.25801   0.07529   0.00000  Uiso   1.00
H241   H     0.73933   0.13567   0.01747   0.00000  Uiso   1.00
H242   H     0.73887   0.11173   0.07276   0.00000  Uiso   1.00
H243   H     0.72267   0.03726   0.04012   0.00000  Uiso   1.00
H244   H     0.68461   0.07831   0.02306   0.00000  Uiso   1.00
H245   H     0.72174   0.08712   0.45004   0.00000  Uiso   1.00
H246   H     0.70206   0.03129   0.45820   0.00000  Uiso   1.00
H247   H     0.75686   0.04251   0.46715   0.00000  Uiso   1.00
H248   H     0.89963   0.26104   0.44679   0.00000  Uiso   1.00
H249   H     0.93848   0.27374   0.49008   0.00000  Uiso   1.00
H250   H     0.98187   0.20849   0.46109   0.00000  Uiso   1.00
H251   H     0.97323   0.25226   0.42084   0.00000  Uiso   1.00
H252   H     0.94336   0.20101   0.41623   0.00000  Uiso   1.00
H253   H     0.89876   0.09373   0.00070   0.00000  Uiso   1.00
H254   H     0.89749   0.10620   0.44195   0.00000  Uiso   1.00
I255   I     0.90477   0.05901   0.32090   0.00000  Uiso   1.00
I256   I     0.95596   0.26887   0.21413   0.00000  Uiso   1.00
I257   I     0.95565   0.06781   0.20588   0.00000  Uiso   1.00
I258   I     0.71131   0.26816   0.28803   0.00000  Uiso   1.00
I259   I     0.76617   0.27415   0.17479   0.00000  Uiso   1.00
I260   I     0.76127   0.05702   0.17991   0.00000  Uiso   1.00
I261   I     0.90074   0.27603   0.32488   0.00000  Uiso   1.00
I262   I     0.87939   0.26132   0.11712   0.00000  Uiso   1.00
I263   I     0.80108   0.06103   0.37566   0.00000  Uiso   1.00
I264   I     0.79339   0.26746   0.38020   0.00000  Uiso   1.00
I265   I     0.85360   0.06069   0.11188   0.00000  Uiso   1.00
I266   I     0.70781   0.06730   0.28939   0.00000  Uiso   1.00
N267   N     0.83333   0.28573   0.25000   0.00000  Uiso   1.00
N268   N     0.83333   0.04760   0.25000   0.00000  Uiso   1.00
O269   O     0.77226   0.20487   0.24999   0.00000  Uiso   1.00
O270   O     0.84073   0.08449   0.47028   0.00000  Uiso   1.00
O271   O     0.79082   0.23868   0.47781   0.00000  Uiso   1.00
O272   O     0.78840   0.09223   0.03348   0.00000  Uiso   1.00
O273   O     0.89441   0.12846   0.25000   0.00000  Uiso   1.00
O274   O     0.89441   0.20487   0.25000   0.00000  Uiso   1.00
O275   O     0.77226   0.12846   0.24999   0.00000  Uiso   1.00
O276   O     0.83333   0.20489   0.18453   0.00000  Uiso   1.00
O277   O     0.83334   0.12845   0.31547   0.00000  Uiso   1.00
O278   O     0.83334   0.20489   0.31547   0.00000  Uiso   1.00
O279   O     0.83333   0.12845   0.18453   0.00000  Uiso   1.00
O280   O     0.86871   0.22996   0.01790   0.00000  Uiso   1.00
Zn281  Zn    0.83333   0.21771   0.25000   0.00000  Uiso   1.00
Zn282  Zn    0.83333   0.11563   0.25000   0.00000  Uiso   1.00
C283   C     0.08685   0.50003   0.25503   0.00000  Uiso   1.00
C284   C     0.31278   0.54141   0.24231   0.00000  Uiso   1.00
C285   C     0.31250   0.45979   0.23995   0.00000  Uiso   1.00
C286   C     0.02059   0.54121   0.25751   0.00000  Uiso   1.00
C287   C     0.18364   0.53087   0.04358   0.00000  Uiso   1.00
C288   C     0.15889   0.45653   0.45073   0.00000  Uiso   1.00
C289   C     0.13659   0.53434   0.45420   0.00000  Uiso   1.00
C290   C     0.14656   0.46007   0.05034   0.00000  Uiso   1.00
C291   C     0.18629   0.53459   0.09004   0.00000  Uiso   1.00
C292   C     0.15209   0.45717   0.40509   0.00000  Uiso   1.00
C293   C     0.14089   0.53744   0.40810   0.00000  Uiso   1.00
C294   C     0.24631   0.50010   0.24446   0.00000  Uiso   1.00
C295   C     0.16239   0.45762   0.09343   0.00000  Uiso   1.00
C296   C     0.17411   0.49757   0.11565   0.00000  Uiso   1.00
C297   C     0.15141   0.49873   0.38314   0.00000  Uiso   1.00
C298   C     0.15960   0.49568   0.02391   0.00000  Uiso   1.00
C299   C     0.15043   0.49513   0.47589   0.00000  Uiso   1.00
C300   C     0.29096   0.50054   0.23851   0.00000  Uiso   1.00
C301   C     0.04200   0.50023   0.25982   0.00000  Uiso   1.00
C302   C     0.23843   0.54515   0.49933   0.00000  Uiso   1.00
C303   C     0.25771   0.57980   0.46902   0.00000  Uiso   1.00
C304   C     0.29115   0.55901   0.44012   0.00000  Uiso   1.00
C305   C     0.17018   0.49963   0.16404   0.00000  Uiso   1.00
C306   C     0.21813   0.41681   0.46772   0.00000  Uiso   1.00
C307   C     0.23182   0.36914   0.45657   0.00000  Uiso   1.00
C308   C     0.27918   0.36639   0.45339   0.00000  Uiso   1.00
C309   C     0.08662   0.56315   0.49978   0.00000  Uiso   1.00
C310   C     0.06504   0.60748   0.00976   0.00000  Uiso   1.00
C311   C     0.02955   0.60143   0.04203   0.00000  Uiso   1.00
C312   C     0.07959   0.43843   0.03720   0.00000  Uiso   1.00
C313   C     0.05088   0.40093   0.01963   0.00000  Uiso   1.00
C314   C     0.05843   0.38993   0.47070   0.00000  Uiso   1.00
C315   C     0.16169   0.50001   0.33568   0.00000  Uiso   1.00
C316   C     0.19381   0.35761   0.27767   0.00000  Uiso   1.00
C317   C     0.14021   0.64237   0.22163   0.00000  Uiso   1.00
C318   C     0.13951   0.35683   0.22237   0.00000  Uiso   1.00
C319   C     0.19317   0.64314   0.27833   0.00000  Uiso   1.00
C320   C     0.02001   0.45954   0.25607   0.00000  Uiso   1.00
H321   H     0.23111   0.51461   0.47901   0.00000  Uiso   1.00
H322   H     0.22127   0.34588   0.48269   0.00000  Uiso   1.00
H323   H     0.21716   0.35844   0.42411   0.00000  Uiso   1.00
H324   H     0.29096   0.39239   0.43067   0.00000  Uiso   1.00
H325   H     0.28807   0.66652   0.43987   0.00000  Uiso   1.00
H326   H     0.29410   0.37095   0.48705   0.00000  Uiso   1.00
H327   H     0.09372   0.54633   0.03196   0.00000  Uiso   1.00
H328   H     0.06454   0.54196   0.47905   0.00000  Uiso   1.00
H329   H     0.08820   0.63152   0.02475   0.00000  Uiso   1.00
H330   H     0.05236   0.62154   0.47801   0.00000  Uiso   1.00
H331   H     0.00724   0.57542   0.02943   0.00000  Uiso   1.00
H332   H     0.26174   0.53641   0.02621   0.00000  Uiso   1.00
H333   H     0.01247   0.63347   0.04578   0.00000  Uiso   1.00
H334   H     0.04226   0.59134   0.07529   0.00000  Uiso   1.00
H335   H     0.07266   0.46900   0.01747   0.00000  Uiso   1.00
H336   H     0.07220   0.44506   0.07276   0.00000  Uiso   1.00
H337   H     0.05601   0.37059   0.04012   0.00000  Uiso   1.00
H338   H     0.01795   0.41164   0.02306   0.00000  Uiso   1.00
H339   H     0.05507   0.42046   0.45004   0.00000  Uiso   1.00
H340   H     0.03540   0.36463   0.45820   0.00000  Uiso   1.00
H341   H     0.09019   0.37584   0.46715   0.00000  Uiso   1.00
H342   H     0.23297   0.59437   0.44679   0.00000  Uiso   1.00
H343   H     0.27182   0.60707   0.49008   0.00000  Uiso   1.00
H344   H     0.31521   0.54182   0.46109   0.00000  Uiso   1.00
H345   H     0.30657   0.58559   0.42084   0.00000  Uiso   1.00
H346   H     0.27670   0.53434   0.41623   0.00000  Uiso   1.00
H347   H     0.23209   0.42707   0.00070   0.00000  Uiso   1.00
H348   H     0.23083   0.43953   0.44195   0.00000  Uiso   1.00
I349   I     0.23810   0.39234   0.32090   0.00000  Uiso   1.00
I350   I     0.28929   0.60221   0.21413   0.00000  Uiso   1.00
I351   I     0.28898   0.40114   0.20588   0.00000  Uiso   1.00
I352   I     0.04464   0.60150   0.28803   0.00000  Uiso   1.00
I353   I     0.09951   0.60749   0.17479   0.00000  Uiso   1.00
I354   I     0.09460   0.39035   0.17991   0.00000  Uiso   1.00
I355   I     0.23407   0.60937   0.32488   0.00000  Uiso   1.00
I356   I     0.21272   0.59465   0.11712   0.00000  Uiso   1.00
I357   I     0.13441   0.39436   0.37566   0.00000  Uiso   1.00
I358   I     0.12672   0.60080   0.38020   0.00000  Uiso   1.00
I359   I     0.18693   0.39403   0.11188   0.00000  Uiso   1.00
I360   I     0.04115   0.40063   0.28939   0.00000  Uiso   1.00
N361   N     0.16667   0.61907   0.25000   0.00000  Uiso   1.00
N362   N     0.16667   0.38093   0.25000   0.00000  Uiso   1.00
O363   O     0.10559   0.53821   0.24999   0.00000  Uiso   1.00
O364   O     0.17406   0.41782   0.47028   0.00000  Uiso   1.00
O365   O     0.12416   0.57201   0.47781   0.00000  Uiso   1.00
O366   O     0.12173   0.42556   0.03348   0.00000  Uiso   1.00
O367   O     0.22774   0.46179   0.25000   0.00000  Uiso   1.00
O368   O     0.22774   0.53821   0.25000   0.00000  Uiso   1.00
O369   O     0.10559   0.46179   0.24999   0.00000  Uiso   1.00
O370   O     0.16666   0.53822   0.18453   0.00000  Uiso   1.00
O371   O     0.16667   0.46178   0.31547   0.00000  Uiso   1.00
O372   O     0.16667   0.53822   0.31547   0.00000  Uiso   1.00
O373   O     0.16666   0.46178   0.18453   0.00000  Uiso   1.00
O374   O     0.20204   0.56329   0.01790   0.00000  Uiso   1.00
Zn375  Zn    0.16667   0.55104   0.25000   0.00000  Uiso   1.00
Zn376  Zn    0.16667   0.44896   0.25000   0.00000  Uiso   1.00
C377   C     0.42019   0.50003   0.25503   0.00000  Uiso   1.00
C378   C     0.64611   0.54141   0.24231   0.00000  Uiso   1.00
C379   C     0.64584   0.45979   0.23995   0.00000  Uiso   1.00
C380   C     0.35392   0.54121   0.25751   0.00000  Uiso   1.00
C381   C     0.51698   0.53087   0.04358   0.00000  Uiso   1.00
C382   C     0.49222   0.45653   0.45073   0.00000  Uiso   1.00
C383   C     0.46992   0.53434   0.45420   0.00000  Uiso   1.00
C384   C     0.47989   0.46007   0.05034   0.00000  Uiso   1.00
C385   C     0.51962   0.53459   0.09004   0.00000  Uiso   1.00
C386   C     0.48543   0.45717   0.40509   0.00000  Uiso   1.00
C387   C     0.47422   0.53744   0.40810   0.00000  Uiso   1.00
C388   C     0.57964   0.50010   0.24446   0.00000  Uiso   1.00
C389   C     0.49572   0.45762   0.09343   0.00000  Uiso   1.00
C390   C     0.50744   0.49757   0.11565   0.00000  Uiso   1.00
C391   C     0.48475   0.49873   0.38314   0.00000  Uiso   1.00
C392   C     0.49293   0.49568   0.02391   0.00000  Uiso   1.00
C393   C     0.48376   0.49513   0.47589   0.00000  Uiso   1.00
C394   C     0.62429   0.50054   0.23851   0.00000  Uiso   1.00
C395   C     0.37533   0.50023   0.25982   0.00000  Uiso   1.00
C396   C     0.57176   0.54515   0.49933   0.00000  Uiso   1.00
C397   C     0.59105   0.57980   0.46902   0.00000  Uiso   1.00
C398   C     0.62448   0.55901   0.44012   0.00000  Uiso   1.00
C399   C     0.50351   0.49963   0.16404   0.00000  Uiso   1.00
C400   C     0.55146   0.41681   0.46772   0.00000  Uiso   1.00
C401   C     0.56515   0.36914   0.45657   0.00000  Uiso   1.00
C402   C     0.61252   0.36639   0.45339   0.00000  Uiso   1.00
C403   C     0.41995   0.56315   0.49978   0.00000  Uiso   1.00
C404   C     0.39837   0.60748   0.00976   0.00000  Uiso   1.00
C405   C     0.36288   0.60143   0.04203   0.00000  Uiso   1.00
C406   C     0.41292   0.43843   0.03720   0.00000  Uiso   1.00
C407   C     0.38421   0.40093   0.01963   0.00000  Uiso   1.00
C408   C     0.39177   0.38993   0.47070   0.00000  Uiso   1.00
C409   C     0.49503   0.50001   0.33568   0.00000  Uiso   1.00
C410   C     0.52714   0.35761   0.27767   0.00000  Uiso   1.00
C411   C     0.47354   0.64237   0.22163   0.00000  Uiso   1.00
C412   C     0.47285   0.35683   0.22237   0.00000  Uiso   1.00
C413   C     0.52650   0.64314   0.27833   0.00000  Uiso   1.00
C414   C     0.35334   0.45954   0.25607   0.00000  Uiso   1.00
H415   H     0.56444   0.51461   0.47901   0.00000  Uiso   1.00
H416   H     0.55461   0.34588   0.48269   0.00000  Uiso   1.00
H417   H     0.55049   0.35844   0.42411   0.00000  Uiso   1.00
H418   H     0.62430   0.39239   0.43067   0.00000  Uiso   1.00
H419   H     0.62140   0.66652   0.43987   0.00000  Uiso   1.00
H420   H     0.62743   0.37095   0.48705   0.00000  Uiso   1.00
H421   H     0.42705   0.54633   0.03196   0.00000  Uiso   1.00
H422   H     0.39788   0.54196   0.47905   0.00000  Uiso   1.00
H423   H     0.42153   0.63152   0.02475   0.00000  Uiso   1.00
H424   H     0.38569   0.62154   0.47801   0.00000  Uiso   1.00
H425   H     0.34057   0.57542   0.02943   0.00000  Uiso   1.00
H426   H     0.59508   0.53641   0.02621   0.00000  Uiso   1.00
H427   H     0.34580   0.63347   0.04578   0.00000  Uiso   1.00
H428   H     0.37559   0.59134   0.07529   0.00000  Uiso   1.00
H429   H     0.40600   0.46900   0.01747   0.00000  Uiso   1.00
H430   H     0.40554   0.44506   0.07276   0.00000  Uiso   1.00
H431   H     0.38934   0.37059   0.04012   0.00000  Uiso   1.00
H432   H     0.35128   0.41164   0.02306   0.00000  Uiso   1.00
H433   H     0.38841   0.42046   0.45004   0.00000  Uiso   1.00
H434   H     0.36873   0.36463   0.45820   0.00000  Uiso   1.00
H435   H     0.42353   0.37584   0.46715   0.00000  Uiso   1.00
H436   H     0.56630   0.59437   0.44679   0.00000  Uiso   1.00
H437   H     0.60515   0.60707   0.49008   0.00000  Uiso   1.00
H438   H     0.64854   0.54182   0.46109   0.00000  Uiso   1.00
H439   H     0.63990   0.58559   0.42084   0.00000  Uiso   1.00
H440   H     0.61003   0.53434   0.41623   0.00000  Uiso   1.00
H441   H     0.56542   0.42707   0.00070   0.00000  Uiso   1.00
H442   H     0.56416   0.43953   0.44195   0.00000  Uiso   1.00
I443   I     0.57144   0.39234   0.32090   0.00000  Uiso   1.00
I444   I     0.62263   0.60221   0.21413   0.00000  Uiso   1.00
I445   I     0.62232   0.40114   0.20588   0.00000  Uiso   1.00
I446   I     0.37798   0.60150   0.28803   0.00000  Uiso   1.00
I447   I     0.43284   0.60749   0.17479   0.00000  Uiso   1.00
I448   I     0.42794   0.39035   0.17991   0.00000  Uiso   1.00
I449   I     0.56741   0.60937   0.32488   0.00000  Uiso   1.00
I450   I     0.54606   0.59465   0.11712   0.00000  Uiso   1.00
I451   I     0.46774   0.39436   0.37566   0.00000  Uiso   1.00
I452   I     0.46005   0.60080   0.38020   0.00000  Uiso   1.00
I453   I     0.52027   0.39403   0.11188   0.00000  Uiso   1.00
I454   I     0.37448   0.40063   0.28939   0.00000  Uiso   1.00
N455   N     0.50000   0.61907   0.25000   0.00000  Uiso   1.00
N456   N     0.50000   0.38093   0.25000   0.00000  Uiso   1.00
O457   O     0.43892   0.53821   0.24999   0.00000  Uiso   1.00
O458   O     0.50740   0.41782   0.47028   0.00000  Uiso   1.00
O459   O     0.45749   0.57201   0.47781   0.00000  Uiso   1.00
O460   O     0.45506   0.42556   0.03348   0.00000  Uiso   1.00
O461   O     0.56108   0.46179   0.25000   0.00000  Uiso   1.00
O462   O     0.56108   0.53821   0.25000   0.00000  Uiso   1.00
O463   O     0.43892   0.46179   0.24999   0.00000  Uiso   1.00
O464   O     0.50000   0.53822   0.18453   0.00000  Uiso   1.00
O465   O     0.50000   0.46178   0.31547   0.00000  Uiso   1.00
O466   O     0.50000   0.53822   0.31547   0.00000  Uiso   1.00
O467   O     0.50000   0.46178   0.18453   0.00000  Uiso   1.00
O468   O     0.53537   0.56329   0.01790   0.00000  Uiso   1.00
Zn469  Zn    0.50000   0.55104   0.25000   0.00000  Uiso   1.00
Zn470  Zn    0.50000   0.44896   0.25000   0.00000  Uiso   1.00
C471   C     0.75352   0.50003   0.25503   0.00000  Uiso   1.00
C472   C     0.97945   0.54141   0.24231   0.00000  Uiso   1.00
C473   C     0.97917   0.45979   0.23995   0.00000  Uiso   1.00
C474   C     0.68725   0.54121   0.25751   0.00000  Uiso   1.00
C475   C     0.85031   0.53087   0.04358   0.00000  Uiso   1.00
C476   C     0.82555   0.45653   0.45073   0.00000  Uiso   1.00
C477   C     0.80325   0.53434   0.45420   0.00000  Uiso   1.00
C478   C     0.81323   0.46007   0.05034   0.00000  Uiso   1.00
C479   C     0.85295   0.53459   0.09004   0.00000  Uiso   1.00
C480   C     0.81876   0.45717   0.40509   0.00000  Uiso   1.00
C481   C     0.80756   0.53744   0.40810   0.00000  Uiso   1.00
C482   C     0.91298   0.50010   0.24446   0.00000  Uiso   1.00
C483   C     0.82905   0.45762   0.09343   0.00000  Uiso   1.00
C484   C     0.84077   0.49757   0.11565   0.00000  Uiso   1.00
C485   C     0.81808   0.49873   0.38314   0.00000  Uiso   1.00
C486   C     0.82626   0.49568   0.02391   0.00000  Uiso   1.00
C487   C     0.81709   0.49513   0.47589   0.00000  Uiso   1.00
C488   C     0.95762   0.50054   0.23851   0.00000  Uiso   1.00
C489   C     0.70867   0.50023   0.25982   0.00000  Uiso   1.00
C490   C     0.90509   0.54515   0.49933   0.00000  Uiso   1.00
C491   C     0.92438   0.57980   0.46902   0.00000  Uiso   1.00
C492   C     0.95782   0.55901   0.44012   0.00000  Uiso   1.00
C493   C     0.83685   0.49963   0.16404   0.00000  Uiso   1.00
C494   C     0.88480   0.41681   0.46772   0.00000  Uiso   1.00
C495   C     0.89849   0.36914   0.45657   0.00000  Uiso   1.00
C496   C     0.94585   0.36639   0.45339   0.00000  Uiso   1.00
C497   C     0.75328   0.56315   0.49978   0.00000  Uiso   1.00
C498   C     0.73171   0.60748   0.00976   0.00000  Uiso   1.00
C499   C     0.69621   0.60143   0.04203   0.00000  Uiso   1.00
C500   C     0.74626   0.43843   0.03720   0.00000  Uiso   1.00
C501   C     0.71754   0.40093   0.01963   0.00000  Uiso   1.00
C502   C     0.72510   0.38993   0.47070   0.00000  Uiso   1.00
C503   C     0.82836   0.50001   0.33568   0.00000  Uiso   1.00
C504   C     0.86047   0.35761   0.27767   0.00000  Uiso   1.00
C505   C     0.80688   0.64237   0.22163   0.00000  Uiso   1.00
C506   C     0.80618   0.35683   0.22237   0.00000  Uiso   1.00
C507   C     0.85984   0.64314   0.27833   0.00000  Uiso   1.00
C508   C     0.68667   0.45954   0.25607   0.00000  Uiso   1.00
H509   H     0.89777   0.51461   0.47901   0.00000  Uiso   1.00
H510   H     0.88794   0.34588   0.48269   0.00000  Uiso   1.00
H511   H     0.88383   0.35844   0.42411   0.00000  Uiso   1.00
H512   H     0.95763   0.39239   0.43067   0.00000  Uiso   1.00
H513   H     0.95473   0.66652   0.43987   0.00000  Uiso   1.00
H514   H     0.96077   0.37095   0.48705   0.00000  Uiso   1.00
H515   H     0.76038   0.54633   0.03196   0.00000  Uiso   1.00
H516   H     0.73121   0.54196   0.47905   0.00000  Uiso   1.00
H517   H     0.75487   0.63152   0.02475   0.00000  Uiso   1.00
H518   H     0.71902   0.62154   0.47801   0.00000  Uiso   1.00
H519   H     0.67390   0.57542   0.02943   0.00000  Uiso   1.00
H520   H     0.92841   0.53641   0.02621   0.00000  Uiso   1.00
H521   H     0.67913   0.63347   0.04578   0.00000  Uiso   1.00
H522   H     0.70892   0.59134   0.07529   0.00000  Uiso   1.00
H523   H     0.73933   0.46900   0.01747   0.00000  Uiso   1.00
H524   H     0.73887   0.44506   0.07276   0.00000  Uiso   1.00
H525   H     0.72267   0.37059   0.04012   0.00000  Uiso   1.00
H526   H     0.68461   0.41164   0.02306   0.00000  Uiso   1.00
H527   H     0.72174   0.42046   0.45004   0.00000  Uiso   1.00
H528   H     0.70206   0.36463   0.45820   0.00000  Uiso   1.00
H529   H     0.75686   0.37584   0.46715   0.00000  Uiso   1.00
H530   H     0.89963   0.59437   0.44679   0.00000  Uiso   1.00
H531   H     0.93848   0.60707   0.49008   0.00000  Uiso   1.00
H532   H     0.98187   0.54182   0.46109   0.00000  Uiso   1.00
H533   H     0.97323   0.58559   0.42084   0.00000  Uiso   1.00
H534   H     0.94336   0.53434   0.41623   0.00000  Uiso   1.00
H535   H     0.89876   0.42707   0.00070   0.00000  Uiso   1.00
H536   H     0.89749   0.43953   0.44195   0.00000  Uiso   1.00
I537   I     0.90477   0.39234   0.32090   0.00000  Uiso   1.00
I538   I     0.95596   0.60221   0.21413   0.00000  Uiso   1.00
I539   I     0.95565   0.40114   0.20588   0.00000  Uiso   1.00
I540   I     0.71131   0.60150   0.28803   0.00000  Uiso   1.00
I541   I     0.76617   0.60749   0.17479   0.00000  Uiso   1.00
I542   I     0.76127   0.39035   0.17991   0.00000  Uiso   1.00
I543   I     0.90074   0.60937   0.32488   0.00000  Uiso   1.00
I544   I     0.87939   0.59465   0.11712   0.00000  Uiso   1.00
I545   I     0.80108   0.39436   0.37566   0.00000  Uiso   1.00
I546   I     0.79339   0.60080   0.38020   0.00000  Uiso   1.00
I547   I     0.85360   0.39403   0.11188   0.00000  Uiso   1.00
I548   I     0.70781   0.40063   0.28939   0.00000  Uiso   1.00
N549   N     0.83333   0.61907   0.25000   0.00000  Uiso   1.00
N550   N     0.83333   0.38093   0.25000   0.00000  Uiso   1.00
O551   O     0.77226   0.53821   0.24999   0.00000  Uiso   1.00
O552   O     0.84073   0.41782   0.47028   0.00000  Uiso   1.00
O553   O     0.79082   0.57201   0.47781   0.00000  Uiso   1.00
O554   O     0.78840   0.42556   0.03348   0.00000  Uiso   1.00
O555   O     0.89441   0.46179   0.25000   0.00000  Uiso   1.00
O556   O     0.89441   0.53821   0.25000   0.00000  Uiso   1.00
O557   O     0.77226   0.46179   0.24999   0.00000  Uiso   1.00
O558   O     0.83333   0.53822   0.18453   0.00000  Uiso   1.00
O559   O     0.83334   0.46178   0.31547   0.00000  Uiso   1.00
O560   O     0.83334   0.53822   0.31547   0.00000  Uiso   1.00
O561   O     0.83333   0.46178   0.18453   0.00000  Uiso   1.00
O562   O     0.86871   0.56329   0.01790   0.00000  Uiso   1.00
Zn563  Zn    0.83333   0.55104   0.25000   0.00000  Uiso   1.00
Zn564  Zn    0.83333   0.44896   0.25000   0.00000  Uiso   1.00
C565   C     0.08685   0.83337   0.25503   0.00000  Uiso   1.00
C566   C     0.31278   0.87474   0.24231   0.00000  Uiso   1.00
C567   C     0.31250   0.79312   0.23995   0.00000  Uiso   1.00
C568   C     0.02059   0.87455   0.25751   0.00000  Uiso   1.00
C569   C     0.18364   0.86420   0.04358   0.00000  Uiso   1.00
C570   C     0.15889   0.78986   0.45073   0.00000  Uiso   1.00
C571   C     0.13659   0.86768   0.45420   0.00000  Uiso   1.00
C572   C     0.14656   0.79341   0.05034   0.00000  Uiso   1.00
C573   C     0.18629   0.86792   0.09004   0.00000  Uiso   1.00
C574   C     0.15209   0.79050   0.40509   0.00000  Uiso   1.00
C575   C     0.14089   0.87077   0.40810   0.00000  Uiso   1.00
C576   C     0.24631   0.83344   0.24446   0.00000  Uiso   1.00
C577   C     0.16239   0.79095   0.09343   0.00000  Uiso   1.00
C578   C     0.17411   0.83090   0.11565   0.00000  Uiso   1.00
C579   C     0.15141   0.83207   0.38314   0.00000  Uiso   1.00
C580   C     0.15960   0.82901   0.02391   0.00000  Uiso   1.00
C581   C     0.15043   0.82846   0.47589   0.00000  Uiso   1.00
C582   C     0.29096   0.83388   0.23851   0.00000  Uiso   1.00
C583   C     0.04200   0.83356   0.25982   0.00000  Uiso   1.00
C584   C     0.23843   0.87848   0.49933   0.00000  Uiso   1.00
C585   C     0.25771   0.91313   0.46902   0.00000  Uiso   1.00
C586   C     0.29115   0.89234   0.44012   0.00000  Uiso   1.00
C587   C     0.17018   0.83296   0.16404   0.00000  Uiso   1.00
C588   C     0.21813   0.75015   0.46772   0.00000  Uiso   1.00
C589   C     0.23182   0.70247   0.45657   0.00000  Uiso   1.00
C590   C     0.27918   0.69972   0.45339   0.00000  Uiso   1.00
C591   C     0.08662   0.89649   0.49978   0.00000  Uiso   1.00
C592   C     0.06504   0.94081   0.00976   0.00000  Uiso   1.00
C593   C     0.02955   0.93476   0.04203   0.00000  Uiso   1.00
C594   C     0.07959   0.77177   0.03720   0.00000  Uiso   1.00
C595   C     0.05088   0.73427   0.01963   0.00000  Uiso   1.00
C596   C     0.05843   0.72327   0.47070   0.00000  Uiso   1.00
C597   C     0.16169   0.83335   0.33568   0.00000  Uiso   1.00
C598   C     0.19381   0.69094   0.27767   0.00000  Uiso   1.00
C599   C     0.14021   0.97570   0.22163   0.00000  Uiso   1.00
C600   C     0.13951   0.69017   0.22237   0.00000  Uiso   1.00
C601   C     0.19317   0.97647   0.27833   0.00000  Uiso   1.00
C602   C     0.02001   0.79287   0.25607   0.00000  Uiso   1.00
H603   H     0.23111   0.84794   0.47901   0.00000  Uiso   1.00
H604   H     0.22127   0.67921   0.48269   0.00000  Uiso   1.00
H605   H     0.21716   0.69178   0.42411   0.00000  Uiso   1.00
H606   H     0.29096   0.72573   0.43067   0.00000  Uiso   1.00
H607   H     0.28807   0.99986   0.43987   0.00000  Uiso   1.00
H608   H     0.29410   0.70428   0.48705   0.00000  Uiso   1.00
H609   H     0.09372   0.87967   0.03196   0.00000  Uiso   1.00
H610   H     0.06454   0.87530   0.47905   0.00000  Uiso   1.00
H611   H     0.08820   0.96485   0.02475   0.00000  Uiso   1.00
H612   H     0.05236   0.95487   0.47801   0.00000  Uiso   1.00
H613   H     0.00724   0.90875   0.02943   0.00000  Uiso   1.00
H614   H     0.26174   0.86975   0.02621   0.00000  Uiso   1.00
H615   H     0.01247   0.96680   0.04578   0.00000  Uiso   1.00
H616   H     0.04226   0.92468   0.07529   0.00000  Uiso   1.00
H617   H     0.07266   0.80234   0.01747   0.00000  Uiso   1.00
H618   H     0.07220   0.77839   0.07276   0.00000  Uiso   1.00
H619   H     0.05601   0.70392   0.04012   0.00000  Uiso   1.00
H620   H     0.01795   0.74498   0.02306   0.00000  Uiso   1.00
H621   H     0.05507   0.75379   0.45004   0.00000  Uiso   1.00
H622   H     0.03540   0.69796   0.45820   0.00000  Uiso   1.00
H623   H     0.09019   0.70917   0.46715   0.00000  Uiso   1.00
H624   H     0.23297   0.92771   0.44679   0.00000  Uiso   1.00
H625   H     0.27182   0.94040   0.49008   0.00000  Uiso   1.00
H626   H     0.31521   0.87516   0.46109   0.00000  Uiso   1.00
H627   H     0.30657   0.91892   0.42084   0.00000  Uiso   1.00
H628   H     0.27670   0.86768   0.41623   0.00000  Uiso   1.00
H629   H     0.23209   0.76040   0.00070   0.00000  Uiso   1.00
H630   H     0.23083   0.77287   0.44195   0.00000  Uiso   1.00
I631   I     0.23810   0.72568   0.32090   0.00000  Uiso   1.00
I632   I     0.28929   0.93554   0.21413   0.00000  Uiso   1.00
I633   I     0.28898   0.73448   0.20588   0.00000  Uiso   1.00
I634   I     0.04464   0.93483   0.28803   0.00000  Uiso   1.00
I635   I     0.09951   0.94082   0.17479   0.00000  Uiso   1.00
I636   I     0.09460   0.72369   0.17991   0.00000  Uiso   1.00
I637   I     0.23407   0.94270   0.32488   0.00000  Uiso   1.00
I638   I     0.21272   0.92799   0.11712   0.00000  Uiso   1.00
I639   I     0.13441   0.72770   0.37566   0.00000  Uiso   1.00
I640   I     0.12672   0.93413   0.38020   0.00000  Uiso   1.00
I641   I     0.18693   0.72736   0.11188   0.00000  Uiso   1.00
I642   I     0.04115   0.73397   0.28939   0.00000  Uiso   1.00
N643   N     0.16667   0.95240   0.25000   0.00000  Uiso   1.00
N644   N     0.16667   0.71427   0.25000   0.00000  Uiso   1.00
O645   O     0.10559   0.87154   0.24999   0.00000  Uiso   1.00
O646   O     0.17406   0.75116   0.47028   0.00000  Uiso   1.00
O647   O     0.12416   0.90534   0.47781   0.00000  Uiso   1.00
O648   O     0.12173   0.75889   0.03348   0.00000  Uiso   1.00
O649   O     0.22774   0.79513   0.25000   0.00000  Uiso   1.00
O650   O     0.22774   0.87154   0.25000   0.00000  Uiso   1.00
O651   O     0.10559   0.79513   0.24999   0.00000  Uiso   1.00
O652   O     0.16666   0.87155   0.18453   0.00000  Uiso   1.00
O653   O     0.16667   0.79511   0.31547   0.00000  Uiso   1.00
O654   O     0.16667   0.87155   0.31547   0.00000  Uiso   1.00
O655   O     0.16666   0.79511   0.18453   0.00000  Uiso   1.00
O656   O     0.20204   0.89662   0.01790   0.00000  Uiso   1.00
Zn657  Zn    0.16667   0.88437   0.25000   0.00000  Uiso   1.00
Zn658  Zn    0.16667   0.78229   0.25000   0.00000  Uiso   1.00
C659   C     0.42019   0.83337   0.25503   0.00000  Uiso   1.00
C660   C     0.64611   0.87474   0.24231   0.00000  Uiso   1.00
C661   C     0.64584   0.79312   0.23995   0.00000  Uiso   1.00
C662   C     0.35392   0.87455   0.25751   0.00000  Uiso   1.00
C663   C     0.51698   0.86420   0.04358   0.00000  Uiso   1.00
C664   C     0.49222   0.78986   0.45073   0.00000  Uiso   1.00
C665   C     0.46992   0.86768   0.45420   0.00000  Uiso   1.00
C666   C     0.47989   0.79341   0.05034   0.00000  Uiso   1.00
C667   C     0.51962   0.86792   0.09004   0.00000  Uiso   1.00
C668   C     0.48543   0.79050   0.40509   0.00000  Uiso   1.00
C669   C     0.47422   0.87077   0.40810   0.00000  Uiso   1.00
C670   C     0.57964   0.83344   0.24446   0.00000  Uiso   1.00
C671   C     0.49572   0.79095   0.09343   0.00000  Uiso   1.00
C672   C     0.50744   0.83090   0.11565   0.00000  Uiso   1.00
C673   C     0.48475   0.83207   0.38314   0.00000  Uiso   1.00
C674   C     0.49293   0.82901   0.02391   0.00000  Uiso   1.00
C675   C     0.48376   0.82846   0.47589   0.00000  Uiso   1.00
C676   C     0.62429   0.83388   0.23851   0.00000  Uiso   1.00
C677   C     0.37533   0.83356   0.25982   0.00000  Uiso   1.00
C678   C     0.57176   0.87848   0.49933   0.00000  Uiso   1.00
C679   C     0.59105   0.91313   0.46902   0.00000  Uiso   1.00
C680   C     0.62448   0.89234   0.44012   0.00000  Uiso   1.00
C681   C     0.50351   0.83296   0.16404   0.00000  Uiso   1.00
C682   C     0.55146   0.75015   0.46772   0.00000  Uiso   1.00
C683   C     0.56515   0.70247   0.45657   0.00000  Uiso   1.00
C684   C     0.61252   0.69972   0.45339   0.00000  Uiso   1.00
C685   C     0.41995   0.89649   0.49978   0.00000  Uiso   1.00
C686   C     0.39837   0.94081   0.00976   0.00000  Uiso   1.00
C687   C     0.36288   0.93476   0.04203   0.00000  Uiso   1.00
C688   C     0.41292   0.77177   0.03720   0.00000  Uiso   1.00
C689   C     0.38421   0.73427   0.01963   0.00000  Uiso   1.00
C690   C     0.39177   0.72327   0.47070   0.00000  Uiso   1.00
C691   C     0.49503   0.83335   0.33568   0.00000  Uiso   1.00
C692   C     0.52714   0.69094   0.27767   0.00000  Uiso   1.00
C693   C     0.47354   0.97570   0.22163   0.00000  Uiso   1.00
C694   C     0.47285   0.69017   0.22237   0.00000  Uiso   1.00
C695   C     0.52650   0.97647   0.27833   0.00000  Uiso   1.00
C696   C     0.35334   0.79287   0.25607   0.00000  Uiso   1.00
H697   H     0.56444   0.84794   0.47901   0.00000  Uiso   1.00
H698   H     0.55461   0.67921   0.48269   0.00000  Uiso   1.00
H699   H     0.55049   0.69178   0.42411   0.00000  Uiso   1.00
H700   H     0.62430   0.72573   0.43067   0.00000  Uiso   1.00
H701   H     0.62140   0.99986   0.43987   0.00000  Uiso   1.00
H702   H     0.62743   0.70428   0.48705   0.00000  Uiso   1.00
H703   H     0.42705   0.87967   0.03196   0.00000  Uiso   1.00
H704   H     0.39788   0.87530   0.47905   0.00000  Uiso   1.00
H705   H     0.42153   0.96485   0.02475   0.00000  Uiso   1.00
H706   H     0.38569   0.95487   0.47801   0.00000  Uiso   1.00
H707   H     0.34057   0.90875   0.02943   0.00000  Uiso   1.00
H708   H     0.59508   0.86975   0.02621   0.00000  Uiso   1.00
H709   H     0.34580   0.96680   0.04578   0.00000  Uiso   1.00
H710   H     0.37559   0.92468   0.07529   0.00000  Uiso   1.00
H711   H     0.40600   0.80234   0.01747   0.00000  Uiso   1.00
H712   H     0.40554   0.77839   0.07276   0.00000  Uiso   1.00
H713   H     0.38934   0.70392   0.04012   0.00000  Uiso   1.00
H714   H     0.35128   0.74498   0.02306   0.00000  Uiso   1.00
H715   H     0.38841   0.75379   0.45004   0.00000  Uiso   1.00
H716   H     0.36873   0.69796   0.45820   0.00000  Uiso   1.00
H717   H     0.42353   0.70917   0.46715   0.00000  Uiso   1.00
H718   H     0.56630   0.92771   0.44679   0.00000  Uiso   1.00
H719   H     0.60515   0.94040   0.49008   0.00000  Uiso   1.00
H720   H     0.64854   0.87516   0.46109   0.00000  Uiso   1.00
H721   H     0.63990   0.91892   0.42084   0.00000  Uiso   1.00
H722   H     0.61003   0.86768   0.41623   0.00000  Uiso   1.00
H723   H     0.56542   0.76040   0.00070   0.00000  Uiso   1.00
H724   H     0.56416   0.77287   0.44195   0.00000  Uiso   1.00
I725   I     0.57144   0.72568   0.32090   0.00000  Uiso   1.00
I726   I     0.62263   0.93554   0.21413   0.00000  Uiso   1.00
I727   I     0.62232   0.73448   0.20588   0.00000  Uiso   1.00
I728   I     0.37798   0.93483   0.28803   0.00000  Uiso   1.00
I729   I     0.43284   0.94082   0.17479   0.00000  Uiso   1.00
I730   I     0.42794   0.72369   0.17991   0.00000  Uiso   1.00
I731   I     0.56741   0.94270   0.32488   0.00000  Uiso   1.00
I732   I     0.54606   0.92799   0.11712   0.00000  Uiso   1.00
I733   I     0.46774   0.72770   0.37566   0.00000  Uiso   1.00
I734   I     0.46005   0.93413   0.38020   0.00000  Uiso   1.00
I735   I     0.52027   0.72736   0.11188   0.00000  Uiso   1.00
I736   I     0.37448   0.73397   0.28939   0.00000  Uiso   1.00
N737   N     0.50000   0.95240   0.25000   0.00000  Uiso   1.00
N738   N     0.50000   0.71427   0.25000   0.00000  Uiso   1.00
O739   O     0.43892   0.87154   0.24999   0.00000  Uiso   1.00
O740   O     0.50740   0.75116   0.47028   0.00000  Uiso   1.00
O741   O     0.45749   0.90534   0.47781   0.00000  Uiso   1.00
O742   O     0.45506   0.75889   0.03348   0.00000  Uiso   1.00
O743   O     0.56108   0.79513   0.25000   0.00000  Uiso   1.00
O744   O     0.56108   0.87154   0.25000   0.00000  Uiso   1.00
O745   O     0.43892   0.79513   0.24999   0.00000  Uiso   1.00
O746   O     0.50000   0.87155   0.18453   0.00000  Uiso   1.00
O747   O     0.50000   0.79511   0.31547   0.00000  Uiso   1.00
O748   O     0.50000   0.87155   0.31547   0.00000  Uiso   1.00
O749   O     0.50000   0.79511   0.18453   0.00000  Uiso   1.00
O750   O     0.53537   0.89662   0.01790   0.00000  Uiso   1.00
Zn751  Zn    0.50000   0.88437   0.25000   0.00000  Uiso   1.00
Zn752  Zn    0.50000   0.78229   0.25000   0.00000  Uiso   1.00
C753   C     0.75352   0.83337   0.25503   0.00000  Uiso   1.00
C754   C     0.97945   0.87474   0.24231   0.00000  Uiso   1.00
C755   C     0.97917   0.79312   0.23995   0.00000  Uiso   1.00
C756   C     0.68725   0.87455   0.25751   0.00000  Uiso   1.00
C757   C     0.85031   0.86420   0.04358   0.00000  Uiso   1.00
C758   C     0.82555   0.78986   0.45073   0.00000  Uiso   1.00
C759   C     0.80325   0.86768   0.45420   0.00000  Uiso   1.00
C760   C     0.81323   0.79341   0.05034   0.00000  Uiso   1.00
C761   C     0.85295   0.86792   0.09004   0.00000  Uiso   1.00
C762   C     0.81876   0.79050   0.40509   0.00000  Uiso   1.00
C763   C     0.80756   0.87077   0.40810   0.00000  Uiso   1.00
C764   C     0.91298   0.83344   0.24446   0.00000  Uiso   1.00
C765   C     0.82905   0.79095   0.09343   0.00000  Uiso   1.00
C766   C     0.84077   0.83090   0.11565   0.00000  Uiso   1.00
C767   C     0.81808   0.83207   0.38314   0.00000  Uiso   1.00
C768   C     0.82626   0.82901   0.02391   0.00000  Uiso   1.00
C769   C     0.81709   0.82846   0.47589   0.00000  Uiso   1.00
C770   C     0.95762   0.83388   0.23851   0.00000  Uiso   1.00
C771   C     0.70867   0.83356   0.25982   0.00000  Uiso   1.00
C772   C     0.90509   0.87848   0.49933   0.00000  Uiso   1.00
C773   C     0.92438   0.91313   0.46902   0.00000  Uiso   1.00
C774   C     0.95782   0.89234   0.44012   0.00000  Uiso   1.00
C775   C     0.83685   0.83296   0.16404   0.00000  Uiso   1.00
C776   C     0.88480   0.75015   0.46772   0.00000  Uiso   1.00
C777   C     0.89849   0.70247   0.45657   0.00000  Uiso   1.00
C778   C     0.94585   0.69972   0.45339   0.00000  Uiso   1.00
C779   C     0.75328   0.89649   0.49978   0.00000  Uiso   1.00
C780   C     0.73171   0.94081   0.00976   0.00000  Uiso   1.00
C781   C     0.69621   0.93476   0.04203   0.00000  Uiso   1.00
C782   C     0.74626   0.77177   0.03720   0.00000  Uiso   1.00
C783   C     0.71754   0.73427   0.01963   0.00000  Uiso   1.00
C784   C     0.72510   0.72327   0.47070   0.00000  Uiso   1.00
C785   C     0.82836   0.83335   0.33568   0.00000  Uiso   1.00
C786   C     0.86047   0.69094   0.27767   0.00000  Uiso   1.00
C787   C     0.80688   0.97570   0.22163   0.00000  Uiso   1.00
C788   C     0.80618   0.69017   0.22237   0.00000  Uiso   1.00
C789   C     0.85984   0.97647   0.27833   0.00000  Uiso   1.00
C790   C     0.68667   0.79287   0.25607   0.00000  Uiso   1.00
H791   H     0.89777   0.84794   0.47901   0.00000  Uiso   1.00
H792   H     0.88794   0.67921   0.48269   0.00000  Uiso   1.00
H793   H     0.88383   0.69178   0.42411   0.00000  Uiso   1.00
H794   H     0.95763   0.72573   0.43067   0.00000  Uiso   1.00
H795   H     0.95473   0.99986   0.43987   0.00000  Uiso   1.00
H796   H     0.96077   0.70428   0.48705   0.00000  Uiso   1.00
H797   H     0.76038   0.87967   0.03196   0.00000  Uiso   1.00
H798   H     0.73121   0.87530   0.47905   0.00000  Uiso   1.00
H799   H     0.75487   0.96485   0.02475   0.00000  Uiso   1.00
H800   H     0.71902   0.95487   0.47801   0.00000  Uiso   1.00
H801   H     0.67390   0.90875   0.02943   0.00000  Uiso   1.00
H802   H     0.92841   0.86975   0.02621   0.00000  Uiso   1.00
H803   H     0.67913   0.96680   0.04578   0.00000  Uiso   1.00
H804   H     0.70892   0.92468   0.07529   0.00000  Uiso   1.00
H805   H     0.73933   0.80234   0.01747   0.00000  Uiso   1.00
H806   H     0.73887   0.77839   0.07276   0.00000  Uiso   1.00
H807   H     0.72267   0.70392   0.04012   0.00000  Uiso   1.00
H808   H     0.68461   0.74498   0.02306   0.00000  Uiso   1.00
H809   H     0.72174   0.75379   0.45004   0.00000  Uiso   1.00
H810   H     0.70206   0.69796   0.45820   0.00000  Uiso   1.00
H811   H     0.75686   0.70917   0.46715   0.00000  Uiso   1.00
H812   H     0.89963   0.92771   0.44679   0.00000  Uiso   1.00
H813   H     0.93848   0.94040   0.49008   0.00000  Uiso   1.00
H814   H     0.98187   0.87516   0.46109   0.00000  Uiso   1.00
H815   H     0.97323   0.91892   0.42084   0.00000  Uiso   1.00
H816   H     0.94336   0.86768   0.41623   0.00000  Uiso   1.00
H817   H     0.89876   0.76040   0.00070   0.00000  Uiso   1.00
H818   H     0.89749   0.77287   0.44195   0.00000  Uiso   1.00
I819   I     0.90477   0.72568   0.32090   0.00000  Uiso   1.00
I820   I     0.95596   0.93554   0.21413   0.00000  Uiso   1.00
I821   I     0.95565   0.73448   0.20588   0.00000  Uiso   1.00
I822   I     0.71131   0.93483   0.28803   0.00000  Uiso   1.00
I823   I     0.76617   0.94082   0.17479   0.00000  Uiso   1.00
I824   I     0.76127   0.72369   0.17991   0.00000  Uiso   1.00
I825   I     0.90074   0.94270   0.32488   0.00000  Uiso   1.00
I826   I     0.87939   0.92799   0.11712   0.00000  Uiso   1.00
I827   I     0.80108   0.72770   0.37566   0.00000  Uiso   1.00
I828   I     0.79339   0.93413   0.38020   0.00000  Uiso   1.00
I829   I     0.85360   0.72736   0.11188   0.00000  Uiso   1.00
I830   I     0.70781   0.73397   0.28939   0.00000  Uiso   1.00
N831   N     0.83333   0.95240   0.25000   0.00000  Uiso   1.00
N832   N     0.83333   0.71427   0.25000   0.00000  Uiso   1.00
O833   O     0.77226   0.87154   0.24999   0.00000  Uiso   1.00
O834   O     0.84073   0.75116   0.47028   0.00000  Uiso   1.00
O835   O     0.79082   0.90534   0.47781   0.00000  Uiso   1.00
O836   O     0.78840   0.75889   0.03348   0.00000  Uiso   1.00
O837   O     0.89441   0.79513   0.25000   0.00000  Uiso   1.00
O838   O     0.89441   0.87154   0.25000   0.00000  Uiso   1.00
O839   O     0.77226   0.79513   0.24999   0.00000  Uiso   1.00
O840   O     0.83333   0.87155   0.18453   0.00000  Uiso   1.00
O841   O     0.83334   0.79511   0.31547   0.00000  Uiso   1.00
O842   O     0.83334   0.87155   0.31547   0.00000  Uiso   1.00
O843   O     0.83333   0.79511   0.18453   0.00000  Uiso   1.00
O844   O     0.86871   0.89662   0.01790   0.00000  Uiso   1.00
Zn845  Zn    0.83333   0.88437   0.25000   0.00000  Uiso   1.00
Zn846  Zn    0.83333   0.78229   0.25000   0.00000  Uiso   1.00
C847   C     0.08685   0.16670   0.75503   0.00000  Uiso   1.00
C848   C     0.31278   0.20807   0.74231   0.00000  Uiso   1.00
C849   C     0.31250   0.12645   0.73995   0.00000  Uiso   1.00
C850   C     0.02059   0.20788   0.75751   0.00000  Uiso   1.00
C851   C     0.18364   0.19753   0.54358   0.00000  Uiso   1.00
C852   C     0.15889   0.12319   0.95073   0.00000  Uiso   1.00
C853   C     0.13659   0.20101   0.95420   0.00000  Uiso   1.00
C854   C     0.14656   0.12674   0.55034   0.00000  Uiso   1.00
C855   C     0.18629   0.20125   0.59004   0.00000  Uiso   1.00
C856   C     0.15209   0.12383   0.90509   0.00000  Uiso   1.00
C857   C     0.14089   0.20411   0.90810   0.00000  Uiso   1.00
C858   C     0.24631   0.16677   0.74446   0.00000  Uiso   1.00
C859   C     0.16239   0.12428   0.59343   0.00000  Uiso   1.00
C860   C     0.17411   0.16424   0.61565   0.00000  Uiso   1.00
C861   C     0.15141   0.16540   0.88314   0.00000  Uiso   1.00
C862   C     0.15960   0.16234   0.52391   0.00000  Uiso   1.00
C863   C     0.15043   0.16180   0.97589   0.00000  Uiso   1.00
C864   C     0.29096   0.16721   0.73851   0.00000  Uiso   1.00
C865   C     0.04200   0.16690   0.75982   0.00000  Uiso   1.00
C866   C     0.23843   0.21181   0.99933   0.00000  Uiso   1.00
C867   C     0.25771   0.24646   0.96902   0.00000  Uiso   1.00
C868   C     0.29115   0.22568   0.94012   0.00000  Uiso   1.00
C869   C     0.17018   0.16630   0.66404   0.00000  Uiso   1.00
C870   C     0.21813   0.08348   0.96772   0.00000  Uiso   1.00
C871   C     0.23182   0.03580   0.95657   0.00000  Uiso   1.00
C872   C     0.27918   0.03305   0.95339   0.00000  Uiso   1.00
C873   C     0.08662   0.22982   0.99978   0.00000  Uiso   1.00
C874   C     0.06504   0.27415   0.50976   0.00000  Uiso   1.00
C875   C     0.02955   0.26809   0.54203   0.00000  Uiso   1.00
C876   C     0.07959   0.10510   0.53720   0.00000  Uiso   1.00
C877   C     0.05088   0.06760   0.51963   0.00000  Uiso   1.00
C878   C     0.05843   0.05660   0.97070   0.00000  Uiso   1.00
C879   C     0.16169   0.16668   0.83568   0.00000  Uiso   1.00
C880   C     0.19381   0.02427   0.77767   0.00000  Uiso   1.00
C881   C     0.14021   0.30903   0.72163   0.00000  Uiso   1.00
C882   C     0.13951   0.02350   0.72237   0.00000  Uiso   1.00
C883   C     0.19317   0.30980   0.77833   0.00000  Uiso   1.00
C884   C     0.02001   0.12621   0.75607   0.00000  Uiso   1.00
H885   H     0.23111   0.18127   0.97901   0.00000  Uiso   1.00
H886   H     0.22127   0.01255   0.98269   0.00000  Uiso   1.00
H887   H     0.21716   0.02511   0.92411   0.00000  Uiso   1.00
H888   H     0.29096   0.05906   0.93067   0.00000  Uiso   1.00
H889   H     0.28807   0.33319   0.93987   0.00000  Uiso   1.00
H890   H     0.29410   0.03762   0.98705   0.00000  Uiso   1.00
H891   H     0.09372   0.21300   0.53196   0.00000  Uiso   1.00
H892   H     0.06454   0.20863   0.97905   0.00000  Uiso   1.00
H893   H     0.08820   0.29819   0.52475   0.00000  Uiso   1.00
H894   H     0.05236   0.28821   0.97801   0.00000  Uiso   1.00
H895   H     0.00724   0.24208   0.52943   0.00000  Uiso   1.00
H896   H     0.26174   0.20308   0.52621   0.00000  Uiso   1.00
H897   H     0.01247   0.30014   0.54578   0.00000  Uiso   1.00
H898   H     0.04226   0.25801   0.57529   0.00000  Uiso   1.00
H899   H     0.07266   0.13567   0.51747   0.00000  Uiso   1.00
H900   H     0.07220   0.11173   0.57276   0.00000  Uiso   1.00
H901   H     0.05601   0.03726   0.54012   0.00000  Uiso   1.00
H902   H     0.01795   0.07831   0.52306   0.00000  Uiso   1.00
H903   H     0.05507   0.08712   0.95004   0.00000  Uiso   1.00
H904   H     0.03540   0.03129   0.95820   0.00000  Uiso   1.00
H905   H     0.09019   0.04251   0.96715   0.00000  Uiso   1.00
H906   H     0.23297   0.26104   0.94679   0.00000  Uiso   1.00
H907   H     0.27182   0.27374   0.99008   0.00000  Uiso   1.00
H908   H     0.31521   0.20849   0.96109   0.00000  Uiso   1.00
H909   H     0.30657   0.25226   0.92084   0.00000  Uiso   1.00
H910   H     0.27670   0.20101   0.91623   0.00000  Uiso   1.00
H911   H     0.23209   0.09373   0.50070   0.00000  Uiso   1.00
H912   H     0.23083   0.10620   0.94195   0.00000  Uiso   1.00
I913   I     0.23810   0.05901   0.82090   0.00000  Uiso   1.00
I914   I     0.28929   0.26887   0.71413   0.00000  Uiso   1.00
I915   I     0.28898   0.06781   0.70588   0.00000  Uiso   1.00
I916   I     0.04464   0.26816   0.78803   0.00000  Uiso   1.00
I917   I     0.09951   0.27415   0.67479   0.00000  Uiso   1.00
I918   I     0.09460   0.05702   0.67991   0.00000  Uiso   1.00
I919   I     0.23407   0.27603   0.82488   0.00000  Uiso   1.00
I920   I     0.21272   0.26132   0.61712   0.00000  Uiso   1.00
I921   I     0.13441   0.06103   0.87566   0.00000  Uiso   1.00
I922   I     0.12672   0.26746   0.88020   0.00000  Uiso   1.00
I923   I     0.18693   0.06069   0.61188   0.00000  Uiso   1.00
I924   I     0.04115   0.06730   0.78939   0.00000  Uiso   1.00
N925   N     0.16667   0.28573   0.75000   0.00000  Uiso   1.00
N926   N     0.16667   0.04760   0.75000   0.00000  Uiso   1.00
O927   O     0.10559   0.20487   0.74999   0.00000  Uiso   1.00
O928   O     0.17406   0.08449   0.97028   0.00000  Uiso   1.00
O929   O     0.12416   0.23868   0.97781   0.00000  Uiso   1.00
O930   O     0.12173   0.09223   0.53348   0.00000  Uiso   1.00
O931   O     0.22774   0.12846   0.75000   0.00000  Uiso   1.00
O932   O     0.22774   0.20487   0.75000   0.00000  Uiso   1.00
O933   O     0.10559   0.12846   0.74999   0.00000  Uiso   1.00
O934   O     0.16666   0.20489   0.68453   0.00000  Uiso   1.00
O935   O     0.16667   0.12845   0.81547   0.00000  Uiso   1.00
O936   O     0.16667   0.20489   0.81547   0.00000  Uiso   1.00
O937   O     0.16666   0.12845   0.68453   0.00000  Uiso   1.00
O938   O     0.20204   0.22996   0.51790   0.00000  Uiso   1.00
Zn939  Zn    0.16667   0.21771   0.75000   0.00000  Uiso   1.00
Zn940  Zn    0.16667   0.11563   0.75000   0.00000  Uiso   1.00
C941   C     0.42019   0.16670   0.75503   0.00000  Uiso   1.00
C942   C     0.64611   0.20807   0.74231   0.00000  Uiso   1.00
C943   C     0.64584   0.12645   0.73995   0.00000  Uiso   1.00
C944   C     0.35392   0.20788   0.75751   0.00000  Uiso   1.00
C945   C     0.51698   0.19753   0.54358   0.00000  Uiso   1.00
C946   C     0.49222   0.12319   0.95073   0.00000  Uiso   1.00
C947   C     0.46992   0.20101   0.95420   0.00000  Uiso   1.00
C948   C     0.47989   0.12674   0.55034   0.00000  Uiso   1.00
C949   C     0.51962   0.20125   0.59004   0.00000  Uiso   1.00
C950   C     0.48543   0.12383   0.90509   0.00000  Uiso   1.00
C951   C     0.47422   0.20411   0.90810   0.00000  Uiso   1.00
C952   C     0.57964   0.16677   0.74446   0.00000  Uiso   1.00
C953   C     0.49572   0.12428   0.59343   0.00000  Uiso   1.00
C954   C     0.50744   0.16424   0.61565   0.00000  Uiso   1.00
C955   C     0.48475   0.16540   0.88314   0.00000  Uiso   1.00
C956   C     0.49293   0.16234   0.52391   0.00000  Uiso   1.00
C957   C     0.48376   0.16180   0.97589   0.00000  Uiso   1.00
C958   C     0.62429   0.16721   0.73851   0.00000  Uiso   1.00
C959   C     0.37533   0.16690   0.75982   0.00000  Uiso   1.00
C960   C     0.57176   0.21181   0.99933   0.00000  Uiso   1.00
C961   C     0.59105   0.24646   0.96902   0.00000  Uiso   1.00
C962   C     0.62448   0.22568   0.94012   0.00000  Uiso   1.00
C963   C     0.50351   0.16630   0.66404   0.00000  Uiso   1.00
C964   C     0.55146   0.08348   0.96772   0.00000  Uiso   1.00
C965   C     0.56515   0.03580   0.95657   0.00000  Uiso   1.00
C966   C     0.61252   0.03305   0.95339   0.00000  Uiso   1.00
C967   C     0.41995   0.22982   0.99978   0.00000  Uiso   1.00
C968   C     0.39837   0.27415   0.50976   0.00000  Uiso   1.00
C969   C     0.36288   0.26809   0.54203   0.00000  Uiso   1.00
C970   C     0.41292   0.10510   0.53720   0.00000  Uiso   1.00
C971   C     0.38421   0.06760   0.51963   0.00000  Uiso   1.00
C972   C     0.39177   0.05660   0.97070   0.00000  Uiso   1.00
C973   C     0.49503   0.16668   0.83568   0.00000  Uiso   1.00
C974   C     0.52714   0.02427   0.77767   0.00000  Uiso   1.00
C975   C     0.47354   0.30903   0.72163   0.00000  Uiso   1.00
C976   C     0.47285   0.02350   0.72237   0.00000  Uiso   1.00
C977   C     0.52650   0.30980   0.77833   0.00000  Uiso   1.00
C978   C     0.35334   0.12621   0.75607   0.00000  Uiso   1.00
H979   H     0.56444   0.18127   0.97901   0.00000  Uiso   1.00
H980   H     0.55461   0.01255   0.98269   0.00000  Uiso   1.00
H981   H     0.55049   0.02511   0.92411   0.00000  Uiso   1.00
H982   H     0.62430   0.05906   0.93067   0.00000  Uiso   1.00
H983   H     0.62140   0.33319   0.93987   0.00000  Uiso   1.00
H984   H     0.62743   0.03762   0.98705   0.00000  Uiso   1.00
H985   H     0.42705   0.21300   0.53196   0.00000  Uiso   1.00
H986   H     0.39788   0.20863   0.97905   0.00000  Uiso   1.00
H987   H     0.42153   0.29819   0.52475   0.00000  Uiso   1.00
H988   H     0.38569   0.28821   0.97801   0.00000  Uiso   1.00
H989   H     0.34057   0.24208   0.52943   0.00000  Uiso   1.00
H990   H     0.59508   0.20308   0.52621   0.00000  Uiso   1.00
H991   H     0.34580   0.30014   0.54578   0.00000  Uiso   1.00
H992   H     0.37559   0.25801   0.57529   0.00000  Uiso   1.00
H993   H     0.40600   0.13567   0.51747   0.00000  Uiso   1.00
H994   H     0.40554   0.11173   0.57276   0.00000  Uiso   1.00
H995   H     0.38934   0.03726   0.54012   0.00000  Uiso   1.00
H996   H     0.35128   0.07831   0.52306   0.00000  Uiso   1.00
H997   H     0.38841   0.08712   0.95004   0.00000  Uiso   1.00
H998   H     0.36873   0.03129   0.95820   0.00000  Uiso   1.00
H999   H     0.42353   0.04251   0.96715   0.00000  Uiso   1.00
H1000  H     0.56630   0.26104   0.94679   0.00000  Uiso   1.00
H1001  H     0.60515   0.27374   0.99008   0.00000  Uiso   1.00
H1002  H     0.64854   0.20849   0.96109   0.00000  Uiso   1.00
H1003  H     0.63990   0.25226   0.92084   0.00000  Uiso   1.00
H1004  H     0.61003   0.20101   0.91623   0.00000  Uiso   1.00
H1005  H     0.56542   0.09373   0.50070   0.00000  Uiso   1.00
H1006  H     0.56416   0.10620   0.94195   0.00000  Uiso   1.00
I1007  I     0.57144   0.05901   0.82090   0.00000  Uiso   1.00
I1008  I     0.62263   0.26887   0.71413   0.00000  Uiso   1.00
I1009  I     0.62232   0.06781   0.70588   0.00000  Uiso   1.00
I1010  I     0.37798   0.26816   0.78803   0.00000  Uiso   1.00
I1011  I     0.43284   0.27415   0.67479   0.00000  Uiso   1.00
I1012  I     0.42794   0.05702   0.67991   0.00000  Uiso   1.00
I1013  I     0.56741   0.27603   0.82488   0.00000  Uiso   1.00
I1014  I     0.54606   0.26132   0.61712   0.00000  Uiso   1.00
I1015  I     0.46774   0.06103   0.87566   0.00000  Uiso   1.00
I1016  I     0.46005   0.26746   0.88020   0.00000  Uiso   1.00
I1017  I     0.52027   0.06069   0.61188   0.00000  Uiso   1.00
I1018  I     0.37448   0.06730   0.78939   0.00000  Uiso   1.00
N1019  N     0.50000   0.28573   0.75000   0.00000  Uiso   1.00
N1020  N     0.50000   0.04760   0.75000   0.00000  Uiso   1.00
O1021  O     0.43892   0.20487   0.74999   0.00000  Uiso   1.00
O1022  O     0.50740   0.08449   0.97028   0.00000  Uiso   1.00
O1023  O     0.45749   0.23868   0.97781   0.00000  Uiso   1.00
O1024  O     0.45506   0.09223   0.53348   0.00000  Uiso   1.00
O1025  O     0.56108   0.12846   0.75000   0.00000  Uiso   1.00
O1026  O     0.56108   0.20487   0.75000   0.00000  Uiso   1.00
O1027  O     0.43892   0.12846   0.74999   0.00000  Uiso   1.00
O1028  O     0.50000   0.20489   0.68453   0.00000  Uiso   1.00
O1029  O     0.50000   0.12845   0.81547   0.00000  Uiso   1.00
O1030  O     0.50000   0.20489   0.81547   0.00000  Uiso   1.00
O1031  O     0.50000   0.12845   0.68453   0.00000  Uiso   1.00
O1032  O     0.53537   0.22996   0.51790   0.00000  Uiso   1.00
Zn1033 Zn    0.50000   0.21771   0.75000   0.00000  Uiso   1.00
Zn1034 Zn    0.50000   0.11563   0.75000   0.00000  Uiso   1.00
C1035  C     0.75352   0.16670   0.75503   0.00000  Uiso   1.00
C1036  C     0.97945   0.20807   0.74231   0.00000  Uiso   1.00
C1037  C     0.97917   0.12645   0.73995   0.00000  Uiso   1.00
C1038  C     0.68725   0.20788   0.75751   0.00000  Uiso   1.00
C1039  C     0.85031   0.19753   0.54358   0.00000  Uiso   1.00
C1040  C     0.82555   0.12319   0.95073   0.00000  Uiso   1.00
C1041  C     0.80325   0.20101   0.95420   0.00000  Uiso   1.00
C1042  C     0.81323   0.12674   0.55034   0.00000  Uiso   1.00
C1043  C     0.85295   0.20125   0.59004   0.00000  Uiso   1.00
C1044  C     0.81876   0.12383   0.90509   0.00000  Uiso   1.00
C1045  C     0.80756   0.20411   0.90810   0.00000  Uiso   1.00
C1046  C     0.91298   0.16677   0.74446   0.00000  Uiso   1.00
C1047  C     0.82905   0.12428   0.59343   0.00000  Uiso   1.00
C1048  C     0.84077   0.16424   0.61565   0.00000  Uiso   1.00
C1049  C     0.81808   0.16540   0.88314   0.00000  Uiso   1.00
C1050  C     0.82626   0.16234   0.52391   0.00000  Uiso   1.00
C1051  C     0.81709   0.16180   0.97589   0.00000  Uiso   1.00
C1052  C     0.95762   0.16721   0.73851   0.00000  Uiso   1.00
C1053  C     0.70867   0.16690   0.75982   0.00000  Uiso   1.00
C1054  C     0.90509   0.21181   0.99933   0.00000  Uiso   1.00
C1055  C     0.92438   0.24646   0.96902   0.00000  Uiso   1.00
C1056  C     0.95782   0.22568   0.94012   0.00000  Uiso   1.00
C1057  C     0.83685   0.16630   0.66404   0.00000  Uiso   1.00
C1058  C     0.88480   0.08348   0.96772   0.00000  Uiso   1.00
C1059  C     0.89849   0.03580   0.95657   0.00000  Uiso   1.00
C1060  C     0.94585   0.03305   0.95339   0.00000  Uiso   1.00
C1061  C     0.75328   0.22982   0.99978   0.00000  Uiso   1.00
C1062  C     0.73171   0.27415   0.50976   0.00000  Uiso   1.00
C1063  C     0.69621   0.26809   0.54203   0.00000  Uiso   1.00
C1064  C     0.74626   0.10510   0.53720   0.00000  Uiso   1.00
C1065  C     0.71754   0.06760   0.51963   0.00000  Uiso   1.00
C1066  C     0.72510   0.05660   0.97070   0.00000  Uiso   1.00
C1067  C     0.82836   0.16668   0.83568   0.00000  Uiso   1.00
C1068  C     0.86047   0.02427   0.77767   0.00000  Uiso   1.00
C1069  C     0.80688   0.30903   0.72163   0.00000  Uiso   1.00
C1070  C     0.80618   0.02350   0.72237   0.00000  Uiso   1.00
C1071  C     0.85984   0.30980   0.77833   0.00000  Uiso   1.00
C1072  C     0.68667   0.12621   0.75607   0.00000  Uiso   1.00
H1073  H     0.89777   0.18127   0.97901   0.00000  Uiso   1.00
H1074  H     0.88794   0.01255   0.98269   0.00000  Uiso   1.00
H1075  H     0.88383   0.02511   0.92411   0.00000  Uiso   1.00
H1076  H     0.95763   0.05906   0.93067   0.00000  Uiso   1.00
H1077  H     0.95473   0.33319   0.93987   0.00000  Uiso   1.00
H1078  H     0.96077   0.03762   0.98705   0.00000  Uiso   1.00
H1079  H     0.76038   0.21300   0.53196   0.00000  Uiso   1.00
H1080  H     0.73121   0.20863   0.97905   0.00000  Uiso   1.00
H1081  H     0.75487   0.29819   0.52475   0.00000  Uiso   1.00
H1082  H     0.71902   0.28821   0.97801   0.00000  Uiso   1.00
H1083  H     0.67390   0.24208   0.52943   0.00000  Uiso   1.00
H1084  H     0.92841   0.20308   0.52621   0.00000  Uiso   1.00
H1085  H     0.67913   0.30014   0.54578   0.00000  Uiso   1.00
H1086  H     0.70892   0.25801   0.57529   0.00000  Uiso   1.00
H1087  H     0.73933   0.13567   0.51747   0.00000  Uiso   1.00
H1088  H     0.73887   0.11173   0.57276   0.00000  Uiso   1.00
H1089  H     0.72267   0.03726   0.54012   0.00000  Uiso   1.00
H1090  H     0.68461   0.07831   0.52306   0.00000  Uiso   1.00
H1091  H     0.72174   0.08712   0.95004   0.00000  Uiso   1.00
H1092  H     0.70206   0.03129   0.95820   0.00000  Uiso   1.00
H1093  H     0.75686   0.04251   0.96715   0.00000  Uiso   1.00
H1094  H     0.89963   0.26104   0.94679   0.00000  Uiso   1.00
H1095  H     0.93848   0.27374   0.99008   0.00000  Uiso   1.00
H1096  H     0.98187   0.20849   0.96109   0.00000  Uiso   1.00
H1097  H     0.97323   0.25226   0.92084   0.00000  Uiso   1.00
H1098  H     0.94336   0.20101   0.91623   0.00000  Uiso   1.00
H1099  H     0.89876   0.09373   0.50070   0.00000  Uiso   1.00
H1100  H     0.89749   0.10620   0.94195   0.00000  Uiso   1.00
I1101  I     0.90477   0.05901   0.82090   0.00000  Uiso   1.00
I1102  I     0.95596   0.26887   0.71413   0.00000  Uiso   1.00
I1103  I     0.95565   0.06781   0.70588   0.00000  Uiso   1.00
I1104  I     0.71131   0.26816   0.78803   0.00000  Uiso   1.00
I1105  I     0.76617   0.27415   0.67479   0.00000  Uiso   1.00
I1106  I     0.76127   0.05702   0.67991   0.00000  Uiso   1.00
I1107  I     0.90074   0.27603   0.82488   0.00000  Uiso   1.00
I1108  I     0.87939   0.26132   0.61712   0.00000  Uiso   1.00
I1109  I     0.80108   0.06103   0.87566   0.00000  Uiso   1.00
I1110  I     0.79339   0.26746   0.88020   0.00000  Uiso   1.00
I1111  I     0.85360   0.06069   0.61188   0.00000  Uiso   1.00
I1112  I     0.70781   0.06730   0.78939   0.00000  Uiso   1.00
N1113  N     0.83333   0.28573   0.75000   0.00000  Uiso   1.00
N1114  N     0.83333   0.04760   0.75000   0.00000  Uiso   1.00
O1115  O     0.77226   0.20487   0.74999   0.00000  Uiso   1.00
O1116  O     0.84073   0.08449   0.97028   0.00000  Uiso   1.00
O1117  O     0.79082   0.23868   0.97781   0.00000  Uiso   1.00
O1118  O     0.78840   0.09223   0.53348   0.00000  Uiso   1.00
O1119  O     0.89441   0.12846   0.75000   0.00000  Uiso   1.00
O1120  O     0.89441   0.20487   0.75000   0.00000  Uiso   1.00
O1121  O     0.77226   0.12846   0.74999   0.00000  Uiso   1.00
O1122  O     0.83333   0.20489   0.68453   0.00000  Uiso   1.00
O1123  O     0.83334   0.12845   0.81547   0.00000  Uiso   1.00
O1124  O     0.83334   0.20489   0.81547   0.00000  Uiso   1.00
O1125  O     0.83333   0.12845   0.68453   0.00000  Uiso   1.00
O1126  O     0.86871   0.22996   0.51790   0.00000  Uiso   1.00
Zn1127 Zn    0.83333   0.21771   0.75000   0.00000  Uiso   1.00
Zn1128 Zn    0.83333   0.11563   0.75000   0.00000  Uiso   1.00
C1129  C     0.08685   0.50003   0.75503   0.00000  Uiso   1.00
C1130  C     0.31278   0.54141   0.74231   0.00000  Uiso   1.00
C1131  C     0.31250   0.45979   0.73995   0.00000  Uiso   1.00
C1132  C     0.02059   0.54121   0.75751   0.00000  Uiso   1.00
C1133  C     0.18364   0.53087   0.54358   0.00000  Uiso   1.00
C1134  C     0.15889   0.45653   0.95073   0.00000  Uiso   1.00
C1135  C     0.13659   0.53434   0.95420   0.00000  Uiso   1.00
C1136  C     0.14656   0.46007   0.55034   0.00000  Uiso   1.00
C1137  C     0.18629   0.53459   0.59004   0.00000  Uiso   1.00
C1138  C     0.15209   0.45717   0.90509   0.00000  Uiso   1.00
C1139  C     0.14089   0.53744   0.90810   0.00000  Uiso   1.00
C1140  C     0.24631   0.50010   0.74446   0.00000  Uiso   1.00
C1141  C     0.16239   0.45762   0.59343   0.00000  Uiso   1.00
C1142  C     0.17411   0.49757   0.61565   0.00000  Uiso   1.00
C1143  C     0.15141   0.49873   0.88314   0.00000  Uiso   1.00
C1144  C     0.15960   0.49568   0.52391   0.00000  Uiso   1.00
C1145  C     0.15043   0.49513   0.97589   0.00000  Uiso   1.00
C1146  C     0.29096   0.50054   0.73851   0.00000  Uiso   1.00
C1147  C     0.04200   0.50023   0.75982   0.00000  Uiso   1.00
C1148  C     0.23843   0.54515   0.99933   0.00000  Uiso   1.00
C1149  C     0.25771   0.57980   0.96902   0.00000  Uiso   1.00
C1150  C     0.29115   0.55901   0.94012   0.00000  Uiso   1.00
C1151  C     0.17018   0.49963   0.66404   0.00000  Uiso   1.00
C1152  C     0.21813   0.41681   0.96772   0.00000  Uiso   1.00
C1153  C     0.23182   0.36914   0.95657   0.00000  Uiso   1.00
C1154  C     0.27918   0.36639   0.95339   0.00000  Uiso   1.00
C1155  C     0.08662   0.56315   0.99978   0.00000  Uiso   1.00
C1156  C     0.06504   0.60748   0.50976   0.00000  Uiso   1.00
C1157  C     0.02955   0.60143   0.54203   0.00000  Uiso   1.00
C1158  C     0.07959   0.43843   0.53720   0.00000  Uiso   1.00
C1159  C     0.05088   0.40093   0.51963   0.00000  Uiso   1.00
C1160  C     0.05843   0.38993   0.97070   0.00000  Uiso   1.00
C1161  C     0.16169   0.50001   0.83568   0.00000  Uiso   1.00
C1162  C     0.19381   0.35761   0.77767   0.00000  Uiso   1.00
C1163  C     0.14021   0.64237   0.72163   0.00000  Uiso   1.00
C1164  C     0.13951   0.35683   0.72237   0.00000  Uiso   1.00
C1165  C     0.19317   0.64314   0.77833   0.00000  Uiso   1.00
C1166  C     0.02001   0.45954   0.75607   0.00000  Uiso   1.00
H1167  H     0.23111   0.51461   0.97901   0.00000  Uiso   1.00
H1168  H     0.22127   0.34588   0.98269   0.00000  Uiso   1.00
H1169  H     0.21716   0.35844   0.92411   0.00000  Uiso   1.00
H1170  H     0.29096   0.39239   0.93067   0.00000  Uiso   1.00
H1171  H     0.28807   0.66652   0.93987   0.00000  Uiso   1.00
H1172  H     0.29410   0.37095   0.98705   0.00000  Uiso   1.00
H1173  H     0.09372   0.54633   0.53196   0.00000  Uiso   1.00
H1174  H     0.06454   0.54196   0.97905   0.00000  Uiso   1.00
H1175  H     0.08820   0.63152   0.52475   0.00000  Uiso   1.00
H1176  H     0.05236   0.62154   0.97801   0.00000  Uiso   1.00
H1177  H     0.00724   0.57542   0.52943   0.00000  Uiso   1.00
H1178  H     0.26174   0.53641   0.52621   0.00000  Uiso   1.00
H1179  H     0.01247   0.63347   0.54578   0.00000  Uiso   1.00
H1180  H     0.04226   0.59134   0.57529   0.00000  Uiso   1.00
H1181  H     0.07266   0.46900   0.51747   0.00000  Uiso   1.00
H1182  H     0.07220   0.44506   0.57276   0.00000  Uiso   1.00
H1183  H     0.05601   0.37059   0.54012   0.00000  Uiso   1.00
H1184  H     0.01795   0.41164   0.52306   0.00000  Uiso   1.00
H1185  H     0.05507   0.42046   0.95004   0.00000  Uiso   1.00
H1186  H     0.03540   0.36463   0.95820   0.00000  Uiso   1.00
H1187  H     0.09019   0.37584   0.96715   0.00000  Uiso   1.00
H1188  H     0.23297   0.59437   0.94679   0.00000  Uiso   1.00
H1189  H     0.27182   0.60707   0.99008   0.00000  Uiso   1.00
H1190  H     0.31521   0.54182   0.96109   0.00000  Uiso   1.00
H1191  H     0.30657   0.58559   0.92084   0.00000  Uiso   1.00
H1192  H     0.27670   0.53434   0.91623   0.00000  Uiso   1.00
H1193  H     0.23209   0.42707   0.50070   0.00000  Uiso   1.00
H1194  H     0.23083   0.43953   0.94195   0.00000  Uiso   1.00
I1195  I     0.23810   0.39234   0.82090   0.00000  Uiso   1.00
I1196  I     0.28929   0.60221   0.71413   0.00000  Uiso   1.00
I1197  I     0.28898   0.40114   0.70588   0.00000  Uiso   1.00
I1198  I     0.04464   0.60150   0.78803   0.00000  Uiso   1.00
I1199  I     0.09951   0.60749   0.67479   0.00000  Uiso   1.00
I1200  I     0.09460   0.39035   0.67991   0.00000  Uiso   1.00
I1201  I     0.23407   0.60937   0.82488   0.00000  Uiso   1.00
I1202  I     0.21272   0.59465   0.61712   0.00000  Uiso   1.00
I1203  I     0.13441   0.39436   0.87566   0.00000  Uiso   1.00
I1204  I     0.12672   0.60080   0.88020   0.00000  Uiso   1.00
I1205  I     0.18693   0.39403   0.61188   0.00000  Uiso   1.00
I1206  I     0.04115   0.40063   0.78939   0.00000  Uiso   1.00
N1207  N     0.16667   0.61907   0.75000   0.00000  Uiso   1.00
N1208  N     0.16667   0.38093   0.75000   0.00000  Uiso   1.00
O1209  O     0.10559   0.53821   0.74999   0.00000  Uiso   1.00
O1210  O     0.17406   0.41782   0.97028   0.00000  Uiso   1.00
O1211  O     0.12416   0.57201   0.97781   0.00000  Uiso   1.00
O1212  O     0.12173   0.42556   0.53348   0.00000  Uiso   1.00
O1213  O     0.22774   0.46179   0.75000   0.00000  Uiso   1.00
O1214  O     0.22774   0.53821   0.75000   0.00000  Uiso   1.00
O1215  O     0.10559   0.46179   0.74999   0.00000  Uiso   1.00
O1216  O     0.16666   0.53822   0.68453   0.00000  Uiso   1.00
O1217  O     0.16667   0.46178   0.81547   0.00000  Uiso   1.00
O1218  O     0.16667   0.53822   0.81547   0.00000  Uiso   1.00
O1219  O     0.16666   0.46178   0.68453   0.00000  Uiso   1.00
O1220  O     0.20204   0.56329   0.51790   0.00000  Uiso   1.00
Zn1221 Zn    0.16667   0.55104   0.75000   0.00000  Uiso   1.00
Zn1222 Zn    0.16667   0.44896   0.75000   0.00000  Uiso   1.00
C1223  C     0.42019   0.50003   0.75503   0.00000  Uiso   1.00
C1224  C     0.64611   0.54141   0.74231   0.00000  Uiso   1.00
C1225  C     0.64584   0.45979   0.73995   0.00000  Uiso   1.00
C1226  C     0.35392   0.54121   0.75751   0.00000  Uiso   1.00
C1227  C     0.51698   0.53087   0.54358   0.00000  Uiso   1.00
C1228  C     0.49222   0.45653   0.95073   0.00000  Uiso   1.00
C1229  C     0.46992   0.53434   0.95420   0.00000  Uiso   1.00
C1230  C     0.47989   0.46007   0.55034   0.00000  Uiso   1.00
C1231  C     0.51962   0.53459   0.59004   0.00000  Uiso   1.00
C1232  C     0.48543   0.45717   0.90509   0.00000  Uiso   1.00
C1233  C     0.47422   0.53744   0.90810   0.00000  Uiso   1.00
C1234  C     0.57964   0.50010   0.74446   0.00000  Uiso   1.00
C1235  C     0.49572   0.45762   0.59343   0.00000  Uiso   1.00
C1236  C     0.50744   0.49757   0.61565   0.00000  Uiso   1.00
C1237  C     0.48475   0.49873   0.88314   0.00000  Uiso   1.00
C1238  C     0.49293   0.49568   0.52391   0.00000  Uiso   1.00
C1239  C     0.48376   0.49513   0.97589   0.00000  Uiso   1.00
C1240  C     0.62429   0.50054   0.73851   0.00000  Uiso   1.00
C1241  C     0.37533   0.50023   0.75982   0.00000  Uiso   1.00
C1242  C     0.57176   0.54515   0.99933   0.00000  Uiso   1.00
C1243  C     0.59105   0.57980   0.96902   0.00000  Uiso   1.00
C1244  C     0.62448   0.55901   0.94012   0.00000  Uiso   1.00
C1245  C     0.50351   0.49963   0.66404   0.00000  Uiso   1.00
C1246  C     0.55146   0.41681   0.96772   0.00000  Uiso   1.00
C1247  C     0.56515   0.36914   0.95657   0.00000  Uiso   1.00
C1248  C     0.61252   0.36639   0.95339   0.00000  Uiso   1.00
C1249  C     0.41995   0.56315   0.99978   0.00000  Uiso   1.00
C1250  C     0.39837   0.60748   0.50976   0.00000  Uiso   1.00
C1251  C     0.36288   0.60143   0.54203   0.00000  Uiso   1.00
C1252  C     0.41292   0.43843   0.53720   0.00000  Uiso   1.00
C1253  C     0.38421   0.40093   0.51963   0.00000  Uiso   1.00
C1254  C     0.39177   0.38993   0.97070   0.00000  Uiso   1.00
C1255  C     0.49503   0.50001   0.83568   0.00000  Uiso   1.00
C1256  C     0.52714   0.35761   0.77767   0.00000  Uiso   1.00
C1257  C     0.47354   0.64237   0.72163   0.00000  Uiso   1.00
C1258  C     0.47285   0.35683   0.72237   0.00000  Uiso   1.00
C1259  C     0.52650   0.64314   0.77833   0.00000  Uiso   1.00
C1260  C     0.35334   0.45954   0.75607   0.00000  Uiso   1.00
H1261  H     0.56444   0.51461   0.97901   0.00000  Uiso   1.00
H1262  H     0.55461   0.34588   0.98269   0.00000  Uiso   1.00
H1263  H     0.55049   0.35844   0.92411   0.00000  Uiso   1.00
H1264  H     0.62430   0.39239   0.93067   0.00000  Uiso   1.00
H1265  H     0.62140   0.66652   0.93987   0.00000  Uiso   1.00
H1266  H     0.62743   0.37095   0.98705   0.00000  Uiso   1.00
H1267  H     0.42705   0.54633   0.53196   0.00000  Uiso   1.00
H1268  H     0.39788   0.54196   0.97905   0.00000  Uiso   1.00
H1269  H     0.42153   0.63152   0.52475   0.00000  Uiso   1.00
H1270  H     0.38569   0.62154   0.97801   0.00000  Uiso   1.00
H1271  H     0.34057   0.57542   0.52943   0.00000  Uiso   1.00
H1272  H     0.59508   0.53641   0.52621   0.00000  Uiso   1.00
H1273  H     0.34580   0.63347   0.54578   0.00000  Uiso   1.00
H1274  H     0.37559   0.59134   0.57529   0.00000  Uiso   1.00
H1275  H     0.40600   0.46900   0.51747   0.00000  Uiso   1.00
H1276  H     0.40554   0.44506   0.57276   0.00000  Uiso   1.00
H1277  H     0.38934   0.37059   0.54012   0.00000  Uiso   1.00
H1278  H     0.35128   0.41164   0.52306   0.00000  Uiso   1.00
H1279  H     0.38841   0.42046   0.95004   0.00000  Uiso   1.00
H1280  H     0.36873   0.36463   0.95820   0.00000  Uiso   1.00
H1281  H     0.42353   0.37584   0.96715   0.00000  Uiso   1.00
H1282  H     0.56630   0.59437   0.94679   0.00000  Uiso   1.00
H1283  H     0.60515   0.60707   0.99008   0.00000  Uiso   1.00
H1284  H     0.64854   0.54182   0.96109   0.00000  Uiso   1.00
H1285  H     0.63990   0.58559   0.92084   0.00000  Uiso   1.00
H1286  H     0.61003   0.53434   0.91623   0.00000  Uiso   1.00
H1287  H     0.56542   0.42707   0.50070   0.00000  Uiso   1.00
H1288  H     0.56416   0.43953   0.94195   0.00000  Uiso   1.00
I1289  I     0.57144   0.39234   0.82090   0.00000  Uiso   1.00
I1290  I     0.62263   0.60221   0.71413   0.00000  Uiso   1.00
I1291  I     0.62232   0.40114   0.70588   0.00000  Uiso   1.00
I1292  I     0.37798   0.60150   0.78803   0.00000  Uiso   1.00
I1293  I     0.43284   0.60749   0.67479   0.00000  Uiso   1.00
I1294  I     0.42794   0.39035   0.67991   0.00000  Uiso   1.00
I1295  I     0.56741   0.60937   0.82488   0.00000  Uiso   1.00
I1296  I     0.54606   0.59465   0.61712   0.00000  Uiso   1.00
I1297  I     0.46774   0.39436   0.87566   0.00000  Uiso   1.00
I1298  I     0.46005   0.60080   0.88020   0.00000  Uiso   1.00
I1299  I     0.52027   0.39403   0.61188   0.00000  Uiso   1.00
I1300  I     0.37448   0.40063   0.78939   0.00000  Uiso   1.00
N1301  N     0.50000   0.61907   0.75000   0.00000  Uiso   1.00
N1302  N     0.50000   0.38093   0.75000   0.00000  Uiso   1.00
O1303  O     0.43892   0.53821   0.74999   0.00000  Uiso   1.00
O1304  O     0.50740   0.41782   0.97028   0.00000  Uiso   1.00
O1305  O     0.45749   0.57201   0.97781   0.00000  Uiso   1.00
O1306  O     0.45506   0.42556   0.53348   0.00000  Uiso   1.00
O1307  O     0.56108   0.46179   0.75000   0.00000  Uiso   1.00
O1308  O     0.56108   0.53821   0.75000   0.00000  Uiso   1.00
O1309  O     0.43892   0.46179   0.74999   0.00000  Uiso   1.00
O1310  O     0.50000   0.53822   0.68453   0.00000  Uiso   1.00
O1311  O     0.50000   0.46178   0.81547   0.00000  Uiso   1.00
O1312  O     0.50000   0.53822   0.81547   0.00000  Uiso   1.00
O1313  O     0.50000   0.46178   0.68453   0.00000  Uiso   1.00
O1314  O     0.53537   0.56329   0.51790   0.00000  Uiso   1.00
Zn1315 Zn    0.50000   0.55104   0.75000   0.00000  Uiso   1.00
Zn1316 Zn    0.50000   0.44896   0.75000   0.00000  Uiso   1.00
C1317  C     0.75352   0.50003   0.75503   0.00000  Uiso   1.00
C1318  C     0.97945   0.54141   0.74231   0.00000  Uiso   1.00
C1319  C     0.97917   0.45979   0.73995   0.00000  Uiso   1.00
C1320  C     0.68725   0.54121   0.75751   0.00000  Uiso   1.00
C1321  C     0.85031   0.53087   0.54358   0.00000  Uiso   1.00
C1322  C     0.82555   0.45653   0.95073   0.00000  Uiso   1.00
C1323  C     0.80325   0.53434   0.95420   0.00000  Uiso   1.00
C1324  C     0.81323   0.46007   0.55034   0.00000  Uiso   1.00
C1325  C     0.85295   0.53459   0.59004   0.00000  Uiso   1.00
C1326  C     0.81876   0.45717   0.90509   0.00000  Uiso   1.00
C1327  C     0.80756   0.53744   0.90810   0.00000  Uiso   1.00
C1328  C     0.91298   0.50010   0.74446   0.00000  Uiso   1.00
C1329  C     0.82905   0.45762   0.59343   0.00000  Uiso   1.00
C1330  C     0.84077   0.49757   0.61565   0.00000  Uiso   1.00
C1331  C     0.81808   0.49873   0.88314   0.00000  Uiso   1.00
C1332  C     0.82626   0.49568   0.52391   0.00000  Uiso   1.00
C1333  C     0.81709   0.49513   0.97589   0.00000  Uiso   1.00
C1334  C     0.95762   0.50054   0.73851   0.00000  Uiso   1.00
C1335  C     0.70867   0.50023   0.75982   0.00000  Uiso   1.00
C1336  C     0.90509   0.54515   0.99933   0.00000  Uiso   1.00
C1337  C     0.92438   0.57980   0.96902   0.00000  Uiso   1.00
C1338  C     0.95782   0.55901   0.94012   0.00000  Uiso   1.00
C1339  C     0.83685   0.49963   0.66404   0.00000  Uiso   1.00
C1340  C     0.88480   0.41681   0.96772   0.00000  Uiso   1.00
C1341  C     0.89849   0.36914   0.95657   0.00000  Uiso   1.00
C1342  C     0.94585   0.36639   0.95339   0.00000  Uiso   1.00
C1343  C     0.75328   0.56315   0.99978   0.00000  Uiso   1.00
C1344  C     0.73171   0.60748   0.50976   0.00000  Uiso   1.00
C1345  C     0.69621   0.60143   0.54203   0.00000  Uiso   1.00
C1346  C     0.74626   0.43843   0.53720   0.00000  Uiso   1.00
C1347  C     0.71754   0.40093   0.51963   0.00000  Uiso   1.00
C1348  C     0.72510   0.38993   0.97070   0.00000  Uiso   1.00
C1349  C     0.82836   0.50001   0.83568   0.00000  Uiso   1.00
C1350  C     0.86047   0.35761   0.77767   0.00000  Uiso   1.00
C1351  C     0.80688   0.64237   0.72163   0.00000  Uiso   1.00
C1352  C     0.80618   0.35683   0.72237   0.00000  Uiso   1.00
C1353  C     0.85984   0.64314   0.77833   0.00000  Uiso   1.00
C1354  C     0.68667   0.45954   0.75607   0.00000  Uiso   1.00
H1355  H     0.89777   0.51461   0.97901   0.00000  Uiso   1.00
H1356  H     0.88794   0.34588   0.98269   0.00000  Uiso   1.00
H1357  H     0.88383   0.35844   0.92411   0.00000  Uiso   1.00
H1358  H     0.95763   0.39239   0.93067   0.00000  Uiso   1.00
H1359  H     0.95473   0.66652   0.93987   0.00000  Uiso   1.00
H1360  H     0.96077   0.37095   0.98705   0.00000  Uiso   1.00
H1361  H     0.76038   0.54633   0.53196   0.00000  Uiso   1.00
H1362  H     0.73121   0.54196   0.97905   0.00000  Uiso   1.00
H1363  H     0.75487   0.63152   0.52475   0.00000  Uiso   1.00
H1364  H     0.71902   0.62154   0.97801   0.00000  Uiso   1.00
H1365  H     0.67390   0.57542   0.52943   0.00000  Uiso   1.00
H1366  H     0.92841   0.53641   0.52621   0.00000  Uiso   1.00
H1367  H     0.67913   0.63347   0.54578   0.00000  Uiso   1.00
H1368  H     0.70892   0.59134   0.57529   0.00000  Uiso   1.00
H1369  H     0.73933   0.46900   0.51747   0.00000  Uiso   1.00
H1370  H     0.73887   0.44506   0.57276   0.00000  Uiso   1.00
H1371  H     0.72267   0.37059   0.54012   0.00000  Uiso   1.00
H1372  H     0.68461   0.41164   0.52306   0.00000  Uiso   1.00
H1373  H     0.72174   0.42046   0.95004   0.00000  Uiso   1.00
H1374  H     0.70206   0.36463   0.95820   0.00000  Uiso   1.00
H1375  H     0.75686   0.37584   0.96715   0.00000  Uiso   1.00
H1376  H     0.89963   0.59437   0.94679   0.00000  Uiso   1.00
H1377  H     0.93848   0.60707   0.99008   0.00000  Uiso   1.00
H1378  H     0.98187   0.54182   0.96109   0.00000  Uiso   1.00
H1379  H     0.97323   0.58559   0.92084   0.00000  Uiso   1.00
H1380  H     0.94336   0.53434   0.91623   0.00000  Uiso   1.00
H1381  H     0.89876   0.42707   0.50070   0.00000  Uiso   1.00
H1382  H     0.89749   0.43953   0.94195   0.00000  Uiso   1.00
I1383  I     0.90477   0.39234   0.82090   0.00000  Uiso   1.00
I1384  I     0.95596   0.60221   0.71413   0.00000  Uiso   1.00
I1385  I     0.95565   0.40114   0.70588   0.00000  Uiso   1.00
I1386  I     0.71131   0.60150   0.78803   0.00000  Uiso   1.00
I1387  I     0.76617   0.60749   0.67479   0.00000  Uiso   1.00
I1388  I     0.76127   0.39035   0.67991   0.00000  Uiso   1.00
I1389  I     0.90074   0.60937   0.82488   0.00000  Uiso   1.00
I1390  I     0.87939   0.59465   0.61712   0.00000  Uiso   1.00
I1391  I     0.80108   0.39436   0.87566   0.00000  Uiso   1.00
I1392  I     0.79339   0.60080   0.88020   0.00000  Uiso   1.00
I1393  I     0.85360   0.39403   0.61188   0.00000  Uiso   1.00
I1394  I     0.70781   0.40063   0.78939   0.00000  Uiso   1.00
N1395  N     0.83333   0.61907   0.75000   0.00000  Uiso   1.00
N1396  N     0.83333   0.38093   0.75000   0.00000  Uiso   1.00
O1397  O     0.77226   0.53821   0.74999   0.00000  Uiso   1.00
O1398  O     0.84073   0.41782   0.97028   0.00000  Uiso   1.00
O1399  O     0.79082   0.57201   0.97781   0.00000  Uiso   1.00
O1400  O     0.78840   0.42556   0.53348   0.00000  Uiso   1.00
O1401  O     0.89441   0.46179   0.75000   0.00000  Uiso   1.00
O1402  O     0.89441   0.53821   0.75000   0.00000  Uiso   1.00
O1403  O     0.77226   0.46179   0.74999   0.00000  Uiso   1.00
O1404  O     0.83333   0.53822   0.68453   0.00000  Uiso   1.00
O1405  O     0.83334   0.46178   0.81547   0.00000  Uiso   1.00
O1406  O     0.83334   0.53822   0.81547   0.00000  Uiso   1.00
O1407  O     0.83333   0.46178   0.68453   0.00000  Uiso   1.00
O1408  O     0.86871   0.56329   0.51790   0.00000  Uiso   1.00
Zn1409 Zn    0.83333   0.55104   0.75000   0.00000  Uiso   1.00
Zn1410 Zn    0.83333   0.44896   0.75000   0.00000  Uiso   1.00
C1411  C     0.08685   0.83337   0.75503   0.00000  Uiso   1.00
C1412  C     0.31278   0.87474   0.74231   0.00000  Uiso   1.00
C1413  C     0.31250   0.79312   0.73995   0.00000  Uiso   1.00
C1414  C     0.02059   0.87455   0.75751   0.00000  Uiso   1.00
C1415  C     0.18364   0.86420   0.54358   0.00000  Uiso   1.00
C1416  C     0.15889   0.78986   0.95073   0.00000  Uiso   1.00
C1417  C     0.13659   0.86768   0.95420   0.00000  Uiso   1.00
C1418  C     0.14656   0.79341   0.55034   0.00000  Uiso   1.00
C1419  C     0.18629   0.86792   0.59004   0.00000  Uiso   1.00
C1420  C     0.15209   0.79050   0.90509   0.00000  Uiso   1.00
C1421  C     0.14089   0.87077   0.90810   0.00000  Uiso   1.00
C1422  C     0.24631   0.83344   0.74446   0.00000  Uiso   1.00
C1423  C     0.16239   0.79095   0.59343   0.00000  Uiso   1.00
C1424  C     0.17411   0.83090   0.61565   0.00000  Uiso   1.00
C1425  C     0.15141   0.83207   0.88314   0.00000  Uiso   1.00
C1426  C     0.15960   0.82901   0.52391   0.00000  Uiso   1.00
C1427  C     0.15043   0.82846   0.97589   0.00000  Uiso   1.00
C1428  C     0.29096   0.83388   0.73851   0.00000  Uiso   1.00
C1429  C     0.04200   0.83356   0.75982   0.00000  Uiso   1.00
C1430  C     0.23843   0.87848   0.99933   0.00000  Uiso   1.00
C1431  C     0.25771   0.91313   0.96902   0.00000  Uiso   1.00
C1432  C     0.29115   0.89234   0.94012   0.00000  Uiso   1.00
C1433  C     0.17018   0.83296   0.66404   0.00000  Uiso   1.00
C1434  C     0.21813   0.75015   0.96772   0.00000  Uiso   1.00
C1435  C     0.23182   0.70247   0.95657   0.00000  Uiso   1.00
C1436  C     0.27918   0.69972   0.95339   0.00000  Uiso   1.00
C1437  C     0.08662   0.89649   0.99978   0.00000  Uiso   1.00
C1438  C     0.06504   0.94081   0.50976   0.00000  Uiso   1.00
C1439  C     0.02955   0.93476   0.54203   0.00000  Uiso   1.00
C1440  C     0.07959   0.77177   0.53720   0.00000  Uiso   1.00
C1441  C     0.05088   0.73427   0.51963   0.00000  Uiso   1.00
C1442  C     0.05843   0.72327   0.97070   0.00000  Uiso   1.00
C1443  C     0.16169   0.83335   0.83568   0.00000  Uiso   1.00
C1444  C     0.19381   0.69094   0.77767   0.00000  Uiso   1.00
C1445  C     0.14021   0.97570   0.72163   0.00000  Uiso   1.00
C1446  C     0.13951   0.69017   0.72237   0.00000  Uiso   1.00
C1447  C     0.19317   0.97647   0.77833   0.00000  Uiso   1.00
C1448  C     0.02001   0.79287   0.75607   0.00000  Uiso   1.00
H1449  H     0.23111   0.84794   0.97901   0.00000  Uiso   1.00
H1450  H     0.22127   0.67921   0.98269   0.00000  Uiso   1.00
H1451  H     0.21716   0.69178   0.92411   0.00000  Uiso   1.00
H1452  H     0.29096   0.72573   0.93067   0.00000  Uiso   1.00
H1453  H     0.28807   0.99986   0.93987   0.00000  Uiso   1.00
H1454  H     0.29410   0.70428   0.98705   0.00000  Uiso   1.00
H1455  H     0.09372   0.87967   0.53196   0.00000  Uiso   1.00
H1456  H     0.06454   0.87530   0.97905   0.00000  Uiso   1.00
H1457  H     0.08820   0.96485   0.52475   0.00000  Uiso   1.00
H1458  H     0.05236   0.95487   0.97801   0.00000  Uiso   1.00
H1459  H     0.00724   0.90875   0.52943   0.00000  Uiso   1.00
H1460  H     0.26174   0.86975   0.52621   0.00000  Uiso   1.00
H1461  H     0.01247   0.96680   0.54578   0.00000  Uiso   1.00
H1462  H     0.04226   0.92468   0.57529   0.00000  Uiso   1.00
H1463  H     0.07266   0.80234   0.51747   0.00000  Uiso   1.00
H1464  H     0.07220   0.77839   0.57276   0.00000  Uiso   1.00
H1465  H     0.05601   0.70392   0.54012   0.00000  Uiso   1.00
H1466  H     0.01795   0.74498   0.52306   0.00000  Uiso   1.00
H1467  H     0.05507   0.75379   0.95004   0.00000  Uiso   1.00
H1468  H     0.03540   0.69796   0.95820   0.00000  Uiso   1.00
H1469  H     0.09019   0.70917   0.96715   0.00000  Uiso   1.00
H1470  H     0.23297   0.92771   0.94679   0.00000  Uiso   1.00
H1471  H     0.27182   0.94040   0.99008   0.00000  Uiso   1.00
H1472  H     0.31521   0.87516   0.96109   0.00000  Uiso   1.00
H1473  H     0.30657   0.91892   0.92084   0.00000  Uiso   1.00
H1474  H     0.27670   0.86768   0.91623   0.00000  Uiso   1.00
H1475  H     0.23209   0.76040   0.50070   0.00000  Uiso   1.00
H1476  H     0.23083   0.77287   0.94195   0.00000  Uiso   1.00
I1477  I     0.23810   0.72568   0.82090   0.00000  Uiso   1.00
I1478  I     0.28929   0.93554   0.71413   0.00000  Uiso   1.00
I1479  I     0.28898   0.73448   0.70588   0.00000  Uiso   1.00
I1480  I     0.04464   0.93483   0.78803   0.00000  Uiso   1.00
I1481  I     0.09951   0.94082   0.67479   0.00000  Uiso   1.00
I1482  I     0.09460   0.72369   0.67991   0.00000  Uiso   1.00
I1483  I     0.23407   0.94270   0.82488   0.00000  Uiso   1.00
I1484  I     0.21272   0.92799   0.61712   0.00000  Uiso   1.00
I1485  I     0.13441   0.72770   0.87566   0.00000  Uiso   1.00
I1486  I     0.12672   0.93413   0.88020   0.00000  Uiso   1.00
I1487  I     0.18693   0.72736   0.61188   0.00000  Uiso   1.00
I1488  I     0.04115   0.73397   0.78939   0.00000  Uiso   1.00
N1489  N     0.16667   0.95240   0.75000   0.00000  Uiso   1.00
N1490  N     0.16667   0.71427   0.75000   0.00000  Uiso   1.00
O1491  O     0.10559   0.87154   0.74999   0.00000  Uiso   1.00
O1492  O     0.17406   0.75116   0.97028   0.00000  Uiso   1.00
O1493  O     0.12416   0.90534   0.97781   0.00000  Uiso   1.00
O1494  O     0.12173   0.75889   0.53348   0.00000  Uiso   1.00
O1495  O     0.22774   0.79513   0.75000   0.00000  Uiso   1.00
O1496  O     0.22774   0.87154   0.75000   0.00000  Uiso   1.00
O1497  O     0.10559   0.79513   0.74999   0.00000  Uiso   1.00
O1498  O     0.16666   0.87155   0.68453   0.00000  Uiso   1.00
O1499  O     0.16667   0.79511   0.81547   0.00000  Uiso   1.00
O1500  O     0.16667   0.87155   0.81547   0.00000  Uiso   1.00
O1501  O     0.16666   0.79511   0.68453   0.00000  Uiso   1.00
O1502  O     0.20204   0.89662   0.51790   0.00000  Uiso   1.00
Zn1503 Zn    0.16667   0.88437   0.75000   0.00000  Uiso   1.00
Zn1504 Zn    0.16667   0.78229   0.75000   0.00000  Uiso   1.00
C1505  C     0.42019   0.83337   0.75503   0.00000  Uiso   1.00
C1506  C     0.64611   0.87474   0.74231   0.00000  Uiso   1.00
C1507  C     0.64584   0.79312   0.73995   0.00000  Uiso   1.00
C1508  C     0.35392   0.87455   0.75751   0.00000  Uiso   1.00
C1509  C     0.51698   0.86420   0.54358   0.00000  Uiso   1.00
C1510  C     0.49222   0.78986   0.95073   0.00000  Uiso   1.00
C1511  C     0.46992   0.86768   0.95420   0.00000  Uiso   1.00
C1512  C     0.47989   0.79341   0.55034   0.00000  Uiso   1.00
C1513  C     0.51962   0.86792   0.59004   0.00000  Uiso   1.00
C1514  C     0.48543   0.79050   0.90509   0.00000  Uiso   1.00
C1515  C     0.47422   0.87077   0.90810   0.00000  Uiso   1.00
C1516  C     0.57964   0.83344   0.74446   0.00000  Uiso   1.00
C1517  C     0.49572   0.79095   0.59343   0.00000  Uiso   1.00
C1518  C     0.50744   0.83090   0.61565   0.00000  Uiso   1.00
C1519  C     0.48475   0.83207   0.88314   0.00000  Uiso   1.00
C1520  C     0.49293   0.82901   0.52391   0.00000  Uiso   1.00
C1521  C     0.48376   0.82846   0.97589   0.00000  Uiso   1.00
C1522  C     0.62429   0.83388   0.73851   0.00000  Uiso   1.00
C1523  C     0.37533   0.83356   0.75982   0.00000  Uiso   1.00
C1524  C     0.57176   0.87848   0.99933   0.00000  Uiso   1.00
C1525  C     0.59105   0.91313   0.96902   0.00000  Uiso   1.00
C1526  C     0.62448   0.89234   0.94012   0.00000  Uiso   1.00
C1527  C     0.50351   0.83296   0.66404   0.00000  Uiso   1.00
C1528  C     0.55146   0.75015   0.96772   0.00000  Uiso   1.00
C1529  C     0.56515   0.70247   0.95657   0.00000  Uiso   1.00
C1530  C     0.61252   0.69972   0.95339   0.00000  Uiso   1.00
C1531  C     0.41995   0.89649   0.99978   0.00000  Uiso   1.00
C1532  C     0.39837   0.94081   0.50976   0.00000  Uiso   1.00
C1533  C     0.36288   0.93476   0.54203   0.00000  Uiso   1.00
C1534  C     0.41292   0.77177   0.53720   0.00000  Uiso   1.00
C1535  C     0.38421   0.73427   0.51963   0.00000  Uiso   1.00
C1536  C     0.39177   0.72327   0.97070   0.00000  Uiso   1.00
C1537  C     0.49503   0.83335   0.83568   0.00000  Uiso   1.00
C1538  C     0.52714   0.69094   0.77767   0.00000  Uiso   1.00
C1539  C     0.47354   0.97570   0.72163   0.00000  Uiso   1.00
C1540  C     0.47285   0.69017   0.72237   0.00000  Uiso   1.00
C1541  C     0.52650   0.97647   0.77833   0.00000  Uiso   1.00
C1542  C     0.35334   0.79287   0.75607   0.00000  Uiso   1.00
H1543  H     0.56444   0.84794   0.97901   0.00000  Uiso   1.00
H1544  H     0.55461   0.67921   0.98269   0.00000  Uiso   1.00
H1545  H     0.55049   0.69178   0.92411   0.00000  Uiso   1.00
H1546  H     0.62430   0.72573   0.93067   0.00000  Uiso   1.00
H1547  H     0.62140   0.99986   0.93987   0.00000  Uiso   1.00
H1548  H     0.62743   0.70428   0.98705   0.00000  Uiso   1.00
H1549  H     0.42705   0.87967   0.53196   0.00000  Uiso   1.00
H1550  H     0.39788   0.87530   0.97905   0.00000  Uiso   1.00
H1551  H     0.42153   0.96485   0.52475   0.00000  Uiso   1.00
H1552  H     0.38569   0.95487   0.97801   0.00000  Uiso   1.00
H1553  H     0.34057   0.90875   0.52943   0.00000  Uiso   1.00
H1554  H     0.59508   0.86975   0.52621   0.00000  Uiso   1.00
H1555  H     0.34580   0.96680   0.54578   0.00000  Uiso   1.00
H1556  H     0.37559   0.92468   0.57529   0.00000  Uiso   1.00
H1557  H     0.40600   0.80234   0.51747   0.00000  Uiso   1.00
H1558  H     0.40554   0.77839   0.57276   0.00000  Uiso   1.00
H1559  H     0.38934   0.70392   0.54012   0.00000  Uiso   1.00
H1560  H     0.35128   0.74498   0.52306   0.00000  Uiso   1.00
H1561  H     0.38841   0.75379   0.95004   0.00000  Uiso   1.00
H1562  H     0.36873   0.69796   0.95820   0.00000  Uiso   1.00
H1563  H     0.42353   0.70917   0.96715   0.00000  Uiso   1.00
H1564  H     0.56630   0.92771   0.94679   0.00000  Uiso   1.00
H1565  H     0.60515   0.94040   0.99008   0.00000  Uiso   1.00
H1566  H     0.64854   0.87516   0.96109   0.00000  Uiso   1.00
H1567  H     0.63990   0.91892   0.92084   0.00000  Uiso   1.00
H1568  H     0.61003   0.86768   0.91623   0.00000  Uiso   1.00
H1569  H     0.56542   0.76040   0.50070   0.00000  Uiso   1.00
H1570  H     0.56416   0.77287   0.94195   0.00000  Uiso   1.00
I1571  I     0.57144   0.72568   0.82090   0.00000  Uiso   1.00
I1572  I     0.62263   0.93554   0.71413   0.00000  Uiso   1.00
I1573  I     0.62232   0.73448   0.70588   0.00000  Uiso   1.00
I1574  I     0.37798   0.93483   0.78803   0.00000  Uiso   1.00
I1575  I     0.43284   0.94082   0.67479   0.00000  Uiso   1.00
I1576  I     0.42794   0.72369   0.67991   0.00000  Uiso   1.00
I1577  I     0.56741   0.94270   0.82488   0.00000  Uiso   1.00
I1578  I     0.54606   0.92799   0.61712   0.00000  Uiso   1.00
I1579  I     0.46774   0.72770   0.87566   0.00000  Uiso   1.00
I1580  I     0.46005   0.93413   0.88020   0.00000  Uiso   1.00
I1581  I     0.52027   0.72736   0.61188   0.00000  Uiso   1.00
I1582  I     0.37448   0.73397   0.78939   0.00000  Uiso   1.00
N1583  N     0.50000   0.95240   0.75000   0.00000  Uiso   1.00
N1584  N     0.50000   0.71427   0.75000   0.00000  Uiso   1.00
O1585  O     0.43892   0.87154   0.74999   0.00000  Uiso   1.00
O1586  O     0.50740   0.75116   0.97028   0.00000  Uiso   1.00
O1587  O     0.45749   0.90534   0.97781   0.00000  Uiso   1.00
O1588  O     0.45506   0.75889   0.53348   0.00000  Uiso   1.00
O1589  O     0.56108   0.79513   0.75000   0.00000  Uiso   1.00
O1590  O     0.56108   0.87154   0.75000   0.00000  Uiso   1.00
O1591  O     0.43892   0.79513   0.74999   0.00000  Uiso   1.00
O1592  O     0.50000   0.87155   0.68453   0.00000  Uiso   1.00
O1593  O     0.50000   0.79511   0.81547   0.00000  Uiso   1.00
O1594  O     0.50000   0.87155   0.81547   0.00000  Uiso   1.00
O1595  O     0.50000   0.79511   0.68453   0.00000  Uiso   1.00
O1596  O     0.53537   0.89662   0.51790   0.00000  Uiso   1.00
Zn1597 Zn    0.50000   0.88437   0.75000   0.00000  Uiso   1.00
Zn1598 Zn    0.50000   0.78229   0.75000   0.00000  Uiso   1.00
C1599  C     0.75352   0.83337   0.75503   0.00000  Uiso   1.00
C1600  C     0.97945   0.87474   0.74231   0.00000  Uiso   1.00
C1601  C     0.97917   0.79312   0.73995   0.00000  Uiso   1.00
C1602  C     0.68725   0.87455   0.75751   0.00000  Uiso   1.00
C1603  C     0.85031   0.86420   0.54358   0.00000  Uiso   1.00
C1604  C     0.82555   0.78986   0.95073   0.00000  Uiso   1.00
C1605  C     0.80325   0.86768   0.95420   0.00000  Uiso   1.00
C1606  C     0.81323   0.79341   0.55034   0.00000  Uiso   1.00
C1607  C     0.85295   0.86792   0.59004   0.00000  Uiso   1.00
C1608  C     0.81876   0.79050   0.90509   0.00000  Uiso   1.00
C1609  C     0.80756   0.87077   0.90810   0.00000  Uiso   1.00
C1610  C     0.91298   0.83344   0.74446   0.00000  Uiso   1.00
C1611  C     0.82905   0.79095   0.59343   0.00000  Uiso   1.00
C1612  C     0.84077   0.83090   0.61565   0.00000  Uiso   1.00
C1613  C     0.81808   0.83207   0.88314   0.00000  Uiso   1.00
C1614  C     0.82626   0.82901   0.52391   0.00000  Uiso   1.00
C1615  C     0.81709   0.82846   0.97589   0.00000  Uiso   1.00
C1616  C     0.95762   0.83388   0.73851   0.00000  Uiso   1.00
C1617  C     0.70867   0.83356   0.75982   0.00000  Uiso   1.00
C1618  C     0.90509   0.87848   0.99933   0.00000  Uiso   1.00
C1619  C     0.92438   0.91313   0.96902   0.00000  Uiso   1.00
C1620  C     0.95782   0.89234   0.94012   0.00000  Uiso   1.00
C1621  C     0.83685   0.83296   0.66404   0.00000  Uiso   1.00
C1622  C     0.88480   0.75015   0.96772   0.00000  Uiso   1.00
C1623  C     0.89849   0.70247   0.95657   0.00000  Uiso   1.00
C1624  C     0.94585   0.69972   0.95339   0.00000  Uiso   1.00
C1625  C     0.75328   0.89649   0.99978   0.00000  Uiso   1.00
C1626  C     0.73171   0.94081   0.50976   0.00000  Uiso   1.00
C1627  C     0.69621   0.93476   0.54203   0.00000  Uiso   1.00
C1628  C     0.74626   0.77177   0.53720   0.00000  Uiso   1.00
C1629  C     0.71754   0.73427   0.51963   0.00000  Uiso   1.00
C1630  C     0.72510   0.72327   0.97070   0.00000  Uiso   1.00
C1631  C     0.82836   0.83335   0.83568   0.00000  Uiso   1.00
C1632  C     0.86047   0.69094   0.77767   0.00000  Uiso   1.00
C1633  C     0.80688   0.97570   0.72163   0.00000  Uiso   1.00
C1634  C     0.80618   0.69017   0.72237   0.00000  Uiso   1.00
C1635  C     0.85984   0.97647   0.77833   0.00000  Uiso   1.00
C1636  C     0.68667   0.79287   0.75607   0.00000  Uiso   1.00
H1637  H     0.89777   0.84794   0.97901   0.00000  Uiso   1.00
H1638  H     0.88794   0.67921   0.98269   0.00000  Uiso   1.00
H1639  H     0.88383   0.69178   0.92411   0.00000  Uiso   1.00
H1640  H     0.95763   0.72573   0.93067   0.00000  Uiso   1.00
H1641  H     0.95473   0.99986   0.93987   0.00000  Uiso   1.00
H1642  H     0.96077   0.70428   0.98705   0.00000  Uiso   1.00
H1643  H     0.76038   0.87967   0.53196   0.00000  Uiso   1.00
H1644  H     0.73121   0.87530   0.97905   0.00000  Uiso   1.00
H1645  H     0.75487   0.96485   0.52475   0.00000  Uiso   1.00
H1646  H     0.71902   0.95487   0.97801   0.00000  Uiso   1.00
H1647  H     0.67390   0.90875   0.52943   0.00000  Uiso   1.00
H1648  H     0.92841   0.86975   0.52621   0.00000  Uiso   1.00
H1649  H     0.67913   0.96680   0.54578   0.00000  Uiso   1.00
H1650  H     0.70892   0.92468   0.57529   0.00000  Uiso   1.00
H1651  H     0.73933   0.80234   0.51747   0.00000  Uiso   1.00
H1652  H     0.73887   0.77839   0.57276   0.00000  Uiso   1.00
H1653  H     0.72267   0.70392   0.54012   0.00000  Uiso   1.00
H1654  H     0.68461   0.74498   0.52306   0.00000  Uiso   1.00
H1655  H     0.72174   0.75379   0.95004   0.00000  Uiso   1.00
H1656  H     0.70206   0.69796   0.95820   0.00000  Uiso   1.00
H1657  H     0.75686   0.70917   0.96715   0.00000  Uiso   1.00
H1658  H     0.89963   0.92771   0.94679   0.00000  Uiso   1.00
H1659  H     0.93848   0.94040   0.99008   0.00000  Uiso   1.00
H1660  H     0.98187   0.87516   0.96109   0.00000  Uiso   1.00
H1661  H     0.97323   0.91892   0.92084   0.00000  Uiso   1.00
H1662  H     0.94336   0.86768   0.91623   0.00000  Uiso   1.00
H1663  H     0.89876   0.76040   0.50070   0.00000  Uiso   1.00
H1664  H     0.89749   0.77287   0.94195   0.00000  Uiso   1.00
I1665  I     0.90477   0.72568   0.82090   0.00000  Uiso   1.00
I1666  I     0.95596   0.93554   0.71413   0.00000  Uiso   1.00
I1667  I     0.95565   0.73448   0.70588   0.00000  Uiso   1.00
I1668  I     0.71131   0.93483   0.78803   0.00000  Uiso   1.00
I1669  I     0.76617   0.94082   0.67479   0.00000  Uiso   1.00
I1670  I     0.76127   0.72369   0.67991   0.00000  Uiso   1.00
I1671  I     0.90074   0.94270   0.82488   0.00000  Uiso   1.00
I1672  I     0.87939   0.92799   0.61712   0.00000  Uiso   1.00
I1673  I     0.80108   0.72770   0.87566   0.00000  Uiso   1.00
I1674  I     0.79339   0.93413   0.88020   0.00000  Uiso   1.00
I1675  I     0.85360   0.72736   0.61188   0.00000  Uiso   1.00
I1676  I     0.70781   0.73397   0.78939   0.00000  Uiso   1.00
N1677  N     0.83333   0.95240   0.75000   0.00000  Uiso   1.00
N1678  N     0.83333   0.71427   0.75000   0.00000  Uiso   1.00
O1679  O     0.77226   0.87154   0.74999   0.00000  Uiso   1.00
O1680  O     0.84073   0.75116   0.97028   0.00000  Uiso   1.00
O1681  O     0.79082   0.90534   0.97781   0.00000  Uiso   1.00
O1682  O     0.78840   0.75889   0.53348   0.00000  Uiso   1.00
O1683  O     0.89441   0.79513   0.75000   0.00000  Uiso   1.00
O1684  O     0.89441   0.87154   0.75000   0.00000  Uiso   1.00
O1685  O     0.77226   0.79513   0.74999   0.00000  Uiso   1.00
O1686  O     0.83333   0.87155   0.68453   0.00000  Uiso   1.00
O1687  O     0.83334   0.79511   0.81547   0.00000  Uiso   1.00
O1688  O     0.83334   0.87155   0.81547   0.00000  Uiso   1.00
O1689  O     0.83333   0.79511   0.68453   0.00000  Uiso   1.00
O1690  O     0.86871   0.89662   0.51790   0.00000  Uiso   1.00
Zn1691 Zn    0.83333   0.88437   0.75000   0.00000  Uiso   1.00
Zn1692 Zn    0.83333   0.78229   0.75000   0.00000  Uiso   1.00
loop_
_geom_bond_atom_site_label_1
_geom_bond_atom_site_label_2
_geom_bond_distance
_geom_bond_site_symmetry_2
_ccdc_geom_bond_type
C1     O87     1.301   .     A
C1     O81     1.299   .     A
C1     C19     1.448   .     S
C2     C18     1.406   .     A
C2     I68     2.139   .     S
C2     C98     1.381   .     S
C3     C18     1.401   .     A
C3     I69     2.140   .     S
C3     C132    1.380   .     S
C4     I70     2.140   .     S
C4     C19     1.406   .     A
C4     C190    1.381   1_455 S
C5     C16     1.413   .     A
C5     C9      1.396   .     A
C5     O92     1.385   .     S
C6     O82     1.384   .     S
C6     C17     1.402   .     A
C6     C10     1.379   .     A
C7     O83     1.388   .     S
C7     C11     1.398   .     A
C7     C17     1.411   .     A
C8     C13     1.376   .     A
C8     C16     1.403   .     A
C8     O84     1.381   .     S
C9     C14     1.413   .     A
C9     I74     2.123   .     S
C10    C15     1.411   .     A
C10    I75     2.131   .     S
C11    C15     1.417   .     A
C11    I76     2.121   .     S
C12    O85     1.302   .     A
C12    O86     1.297   .     A
C12    C18     1.447   .     S
C13    C14     1.404   .     A
C13    I77     2.129   .     S
C14    C23     1.461   .     S
C15    C33     1.472   .     S
C16    C863    1.460   1_554 S
C17    C862    1.460   .     S
C19    C38     1.404   .     A
C20    H39     1.111   .     S
C20    C21     1.526   .     S
C20    H896    1.115   .     S
C20    O938    1.414   .     S
C21    H61     1.111   .     S
C21    H60     1.112   .     S
C21    C22     1.528   .     S
C22    H63     1.110   .     S
C22    H62     1.110   .     S
C22    H64     1.111   .     S
C23    O88     1.307   .     A
C23    O91     1.298   .     A
C24    O82     1.416   .     S
C24    H66     1.119   .     S
C24    C25     1.527   .     S
C24    H911    1.112   .     S
C25    H40     1.112   .     S
C25    H41     1.111   .     S
C25    C26     1.525   .     S
C26    H44     1.110   .     S
C26    H42     1.111   .     S
C26    H607    1.108   1_545 S
C27    H46     1.117   .     S
C27    O83     1.415   .     S
C27    C874    1.526   .     S
C27    H891    1.110   .     S
C28    H47     1.112   .     S
C28    C29     1.527   .     S
C28    C873    1.526   1_554 S
C28    H894    1.110   1_554 S
C29    H49     1.109   .     S
C29    H51     1.110   .     S
C29    H52     1.110   .     S
C30    C31     1.525   .     S
C30    H53     1.112   .     S
C30    H54     1.115   .     S
C30    O84     1.412   .     S
C31    H56     1.111   .     S
C31    H55     1.110   .     S
C31    C878    1.527   1_554 S
C32    H58     1.108   .     S
C32    H57     1.111   .     S
C32    H59     1.110   .     S
C32    C877    1.527   .     S
C33    O89     1.299   .     A
C33    O90     1.309   .     A
C34    N80     1.378   .     A
C34    I67     2.148   .     S
C34    C601    1.427   1_545 S
C35    I71     2.145   .     S
C35    N79     1.377   .     A
C35    C318    1.427   .     S
C36    N80     1.378   .     A
C36    I72     2.148   .     S
C36    C599    1.427   1_545 S
C37    N79     1.377   .     A
C37    I73     2.146   .     S
C37    C316    1.427   .     S
C38    I78     2.134   .     S
C38    C191    1.380   1_455 S
H43    C308    1.108   .     S
H45    C873    1.110   1_554 S
H48    C874    1.110   .     S
H50    C866    1.115   1_554 S
H65    C870    1.112   1_554 S
N79    Zn93    2.031   .     S
N80    Zn94    2.031   .     S
O81    Zn93    1.992   .     S
O85    Zn94    1.992   .     S
O86    Zn93    1.995   .     S
O87    Zn94    1.995   .     S
O88    Zn93    1.996   .     S
O89    Zn94    1.996   .     S
O90    Zn93    2.004   .     S
O91    Zn94    2.004   .     S
O92    C866    1.414   1_554 S
C95    O181    1.301   .     A
C95    O175    1.299   .     A
C95    C113    1.448   .     S
C96    C112    1.406   .     A
C96    I162    2.139   .     S
C96    C192    1.381   .     S
C97    C112    1.401   .     A
C97    I163    2.140   .     S
C97    C226    1.380   .     S
C98    I164    2.140   .     S
C98    C113    1.406   .     A
C99    C110    1.413   .     A
C99    C103    1.396   .     A
C99    O186    1.385   .     S
C100   O176    1.384   .     S
C100   C111    1.402   .     A
C100   C104    1.379   .     A
C101   O177    1.388   .     S
C101   C105    1.398   .     A
C101   C111    1.411   .     A
C102   C107    1.376   .     A
C102   C110    1.403   .     A
C102   O178    1.381   .     S
C103   C108    1.413   .     A
C103   I168    2.123   .     S
C104   C109    1.411   .     A
C104   I169    2.131   .     S
C105   C109    1.417   .     A
C105   I170    2.121   .     S
C106   O179    1.302   .     A
C106   O180    1.297   .     A
C106   C112    1.447   .     S
C107   C108    1.404   .     A
C107   I171    2.129   .     S
C108   C117    1.461   .     S
C109   C127    1.472   .     S
C110   C957    1.460   1_554 S
C111   C956    1.460   .     S
C113   C132    1.404   .     A
C114   H133    1.111   .     S
C114   C115    1.526   .     S
C114   H990    1.115   .     S
C114   O1032   1.414   .     S
C115   H155    1.111   .     S
C115   H154    1.112   .     S
C115   C116    1.528   .     S
C116   H157    1.110   .     S
C116   H156    1.110   .     S
C116   H158    1.111   .     S
C117   O182    1.307   .     A
C117   O185    1.298   .     A
C118   O176    1.416   .     S
C118   H160    1.119   .     S
C118   C119    1.527   .     S
C118   H1005   1.112   .     S
C119   H134    1.112   .     S
C119   H135    1.111   .     S
C119   C120    1.525   .     S
C120   H138    1.110   .     S
C120   H136    1.111   .     S
C120   H701    1.108   1_545 S
C121   H140    1.117   .     S
C121   O177    1.415   .     S
C121   C968    1.526   .     S
C121   H985    1.110   .     S
C122   H141    1.112   .     S
C122   C123    1.527   .     S
C122   C967    1.526   1_554 S
C122   H988    1.110   1_554 S
C123   H143    1.109   .     S
C123   H145    1.110   .     S
C123   H146    1.110   .     S
C124   C125    1.525   .     S
C124   H147    1.112   .     S
C124   H148    1.115   .     S
C124   O178    1.412   .     S
C125   H150    1.111   .     S
C125   H149    1.110   .     S
C125   C972    1.527   1_554 S
C126   H152    1.108   .     S
C126   H151    1.111   .     S
C126   H153    1.110   .     S
C126   C971    1.527   .     S
C127   O183    1.299   .     A
C127   O184    1.309   .     A
C128   N174    1.378   .     A
C128   I161    2.148   .     S
C128   C695    1.427   1_545 S
C129   I165    2.145   .     S
C129   N173    1.377   .     A
C129   C412    1.427   .     S
C130   N174    1.378   .     A
C130   I166    2.148   .     S
C130   C693    1.427   1_545 S
C131   N173    1.377   .     A
C131   I167    2.146   .     S
C131   C410    1.427   .     S
C132   I172    2.134   .     S
H137   C402    1.108   .     S
H139   C967    1.110   1_554 S
H142   C968    1.110   .     S
H144   C960    1.115   1_554 S
H159   C964    1.112   1_554 S
N173   Zn187   2.031   .     S
N174   Zn188   2.031   .     S
O175   Zn187   1.992   .     S
O179   Zn188   1.992   .     S
O180   Zn187   1.995   .     S
O181   Zn188   1.995   .     S
O182   Zn187   1.996   .     S
O183   Zn188   1.996   .     S
O184   Zn187   2.004   .     S
O185   Zn188   2.004   .     S
O186   C960    1.414   1_554 S
C189   O275    1.301   .     A
C189   O269    1.299   .     A
C189   C207    1.448   .     S
C190   C206    1.406   .     A
C190   I256    2.139   .     S
C190   C4      1.381   1_655 S
C191   C206    1.401   .     A
C191   I257    2.140   .     S
C191   C38     1.380   1_655 S
C192   I258    2.140   .     S
C192   C207    1.406   .     A
C193   C204    1.413   .     A
C193   C197    1.396   .     A
C193   O280    1.385   .     S
C194   O270    1.384   .     S
C194   C205    1.402   .     A
C194   C198    1.379   .     A
C195   O271    1.388   .     S
C195   C199    1.398   .     A
C195   C205    1.411   .     A
C196   C201    1.376   .     A
C196   C204    1.403   .     A
C196   O272    1.381   .     S
C197   C202    1.413   .     A
C197   I262    2.123   .     S
C198   C203    1.411   .     A
C198   I263    2.131   .     S
C199   C203    1.417   .     A
C199   I264    2.121   .     S
C200   O273    1.302   .     A
C200   O274    1.297   .     A
C200   C206    1.447   .     S
C201   C202    1.404   .     A
C201   I265    2.129   .     S
C202   C211    1.461   .     S
C203   C221    1.472   .     S
C204   C1051   1.460   1_554 S
C205   C1050   1.460   .     S
C207   C226    1.404   .     A
C208   H227    1.111   .     S
C208   C209    1.526   .     S
C208   H1084   1.115   .     S
C208   O1126   1.414   .     S
C209   H249    1.111   .     S
C209   H248    1.112   .     S
C209   C210    1.528   .     S
C210   H251    1.110   .     S
C210   H250    1.110   .     S
C210   H252    1.111   .     S
C211   O276    1.307   .     A
C211   O279    1.298   .     A
C212   O270    1.416   .     S
C212   H254    1.119   .     S
C212   C213    1.527   .     S
C212   H1099   1.112   .     S
C213   H228    1.112   .     S
C213   H229    1.111   .     S
C213   C214    1.525   .     S
C214   H232    1.110   .     S
C214   H230    1.111   .     S
C214   H795    1.108   1_545 S
C215   H234    1.117   .     S
C215   O271    1.415   .     S
C215   C1062   1.526   .     S
C215   H1079   1.110   .     S
C216   H235    1.112   .     S
C216   C217    1.527   .     S
C216   C1061   1.526   1_554 S
C216   H1082   1.110   1_554 S
C217   H237    1.109   .     S
C217   H239    1.110   .     S
C217   H240    1.110   .     S
C218   C219    1.525   .     S
C218   H241    1.112   .     S
C218   H242    1.115   .     S
C218   O272    1.412   .     S
C219   H244    1.111   .     S
C219   H243    1.110   .     S
C219   C1066   1.527   1_554 S
C220   H246    1.108   .     S
C220   H245    1.111   .     S
C220   H247    1.110   .     S
C220   C1065   1.527   .     S
C221   O277    1.299   .     A
C221   O278    1.309   .     A
C222   N268    1.378   .     A
C222   I255    2.148   .     S
C222   C789    1.427   1_545 S
C223   I259    2.145   .     S
C223   N267    1.377   .     A
C223   C506    1.427   .     S
C224   N268    1.378   .     A
C224   I260    2.148   .     S
C224   C787    1.427   1_545 S
C225   N267    1.377   .     A
C225   I261    2.146   .     S
C225   C504    1.427   .     S
C226   I266    2.134   .     S
H231   C496    1.108   .     S
H233   C1061   1.110   1_554 S
H236   C1062   1.110   .     S
H238   C1054   1.115   1_554 S
H253   C1058   1.112   1_554 S
N267   Zn281   2.031   .     S
N268   Zn282   2.031   .     S
O269   Zn281   1.992   .     S
O273   Zn282   1.992   .     S
O274   Zn281   1.995   .     S
O275   Zn282   1.995   .     S
O276   Zn281   1.996   .     S
O277   Zn282   1.996   .     S
O278   Zn281   2.004   .     S
O279   Zn282   2.004   .     S
O280   C1054   1.414   1_554 S
C283   O369    1.301   .     A
C283   O363    1.299   .     A
C283   C301    1.448   .     S
C284   C300    1.406   .     A
C284   I350    2.139   .     S
C284   C380    1.381   .     S
C285   C300    1.401   .     A
C285   I351    2.140   .     S
C285   C414    1.380   .     S
C286   I352    2.140   .     S
C286   C301    1.406   .     A
C286   C472    1.381   1_455 S
C287   C298    1.413   .     A
C287   C291    1.396   .     A
C287   O374    1.385   .     S
C288   O364    1.384   .     S
C288   C299    1.402   .     A
C288   C292    1.379   .     A
C289   O365    1.388   .     S
C289   C293    1.398   .     A
C289   C299    1.411   .     A
C290   C295    1.376   .     A
C290   C298    1.403   .     A
C290   O366    1.381   .     S
C291   C296    1.413   .     A
C291   I356    2.123   .     S
C292   C297    1.411   .     A
C292   I357    2.131   .     S
C293   C297    1.417   .     A
C293   I358    2.121   .     S
C294   O367    1.302   .     A
C294   O368    1.297   .     A
C294   C300    1.447   .     S
C295   C296    1.404   .     A
C295   I359    2.129   .     S
C296   C305    1.461   .     S
C297   C315    1.472   .     S
C298   C1145   1.460   1_554 S
C299   C1144   1.460   .     S
C301   C320    1.404   .     A
C302   H321    1.111   .     S
C302   C303    1.526   .     S
C302   H1178   1.115   .     S
C302   O1220   1.414   .     S
C303   H343    1.111   .     S
C303   H342    1.112   .     S
C303   C304    1.528   .     S
C304   H345    1.110   .     S
C304   H344    1.110   .     S
C304   H346    1.111   .     S
C305   O370    1.307   .     A
C305   O373    1.298   .     A
C306   O364    1.416   .     S
C306   H348    1.119   .     S
C306   C307    1.527   .     S
C306   H1193   1.112   .     S
C307   H322    1.112   .     S
C307   H323    1.111   .     S
C307   C308    1.525   .     S
C308   H326    1.110   .     S
C308   H324    1.111   .     S
C309   H328    1.117   .     S
C309   O365    1.415   .     S
C309   C1156   1.526   .     S
C309   H1173   1.110   .     S
C310   H329    1.112   .     S
C310   C311    1.527   .     S
C310   C1155   1.526   1_554 S
C310   H1176   1.110   1_554 S
C311   H331    1.109   .     S
C311   H333    1.110   .     S
C311   H334    1.110   .     S
C312   C313    1.525   .     S
C312   H335    1.112   .     S
C312   H336    1.115   .     S
C312   O366    1.412   .     S
C313   H338    1.111   .     S
C313   H337    1.110   .     S
C313   C1160   1.527   1_554 S
C314   H340    1.108   .     S
C314   H339    1.111   .     S
C314   H341    1.110   .     S
C314   C1159   1.527   .     S
C315   O371    1.299   .     A
C315   O372    1.309   .     A
C316   N362    1.378   .     A
C316   I349    2.148   .     S
C317   I353    2.145   .     S
C317   N361    1.377   .     A
C317   C600    1.427   .     S
C318   N362    1.378   .     A
C318   I354    2.148   .     S
C319   N361    1.377   .     A
C319   I355    2.146   .     S
C319   C598    1.427   .     S
C320   I360    2.134   .     S
C320   C473    1.380   1_455 S
H325   C590    1.108   .     S
H327   C1155   1.110   1_554 S
H330   C1156   1.110   .     S
H332   C1148   1.115   1_554 S
H347   C1152   1.112   1_554 S
N361   Zn375   2.031   .     S
N362   Zn376   2.031   .     S
O363   Zn375   1.992   .     S
O367   Zn376   1.992   .     S
O368   Zn375   1.995   .     S
O369   Zn376   1.995   .     S
O370   Zn375   1.996   .     S
O371   Zn376   1.996   .     S
O372   Zn375   2.004   .     S
O373   Zn376   2.004   .     S
O374   C1148   1.414   1_554 S
C377   O463    1.301   .     A
C377   O457    1.299   .     A
C377   C395    1.448   .     S
C378   C394    1.406   .     A
C378   I444    2.139   .     S
C378   C474    1.381   .     S
C379   C394    1.401   .     A
C379   I445    2.140   .     S
C379   C508    1.380   .     S
C380   I446    2.140   .     S
C380   C395    1.406   .     A
C381   C392    1.413   .     A
C381   C385    1.396   .     A
C381   O468    1.385   .     S
C382   O458    1.384   .     S
C382   C393    1.402   .     A
C382   C386    1.379   .     A
C383   O459    1.388   .     S
C383   C387    1.398   .     A
C383   C393    1.411   .     A
C384   C389    1.376   .     A
C384   C392    1.403   .     A
C384   O460    1.381   .     S
C385   C390    1.413   .     A
C385   I450    2.123   .     S
C386   C391    1.411   .     A
C386   I451    2.131   .     S
C387   C391    1.417   .     A
C387   I452    2.121   .     S
C388   O461    1.302   .     A
C388   O462    1.297   .     A
C388   C394    1.447   .     S
C389   C390    1.404   .     A
C389   I453    2.129   .     S
C390   C399    1.461   .     S
C391   C409    1.472   .     S
C392   C1239   1.460   1_554 S
C393   C1238   1.460   .     S
C395   C414    1.404   .     A
C396   H415    1.111   .     S
C396   C397    1.526   .     S
C396   H1272   1.115   .     S
C396   O1314   1.414   .     S
C397   H437    1.111   .     S
C397   H436    1.112   .     S
C397   C398    1.528   .     S
C398   H439    1.110   .     S
C398   H438    1.110   .     S
C398   H440    1.111   .     S
C399   O464    1.307   .     A
C399   O467    1.298   .     A
C400   O458    1.416   .     S
C400   H442    1.119   .     S
C400   C401    1.527   .     S
C400   H1287   1.112   .     S
C401   H416    1.112   .     S
C401   H417    1.111   .     S
C401   C402    1.525   .     S
C402   H420    1.110   .     S
C402   H418    1.111   .     S
C403   H422    1.117   .     S
C403   O459    1.415   .     S
C403   C1250   1.526   .     S
C403   H1267   1.110   .     S
C404   H423    1.112   .     S
C404   C405    1.527   .     S
C404   C1249   1.526   1_554 S
C404   H1270   1.110   1_554 S
C405   H425    1.109   .     S
C405   H427    1.110   .     S
C405   H428    1.110   .     S
C406   C407    1.525   .     S
C406   H429    1.112   .     S
C406   H430    1.115   .     S
C406   O460    1.412   .     S
C407   H432    1.111   .     S
C407   H431    1.110   .     S
C407   C1254   1.527   1_554 S
C408   H434    1.108   .     S
C408   H433    1.111   .     S
C408   H435    1.110   .     S
C408   C1253   1.527   .     S
C409   O465    1.299   .     A
C409   O466    1.309   .     A
C410   N456    1.378   .     A
C410   I443    2.148   .     S
C411   I447    2.145   .     S
C411   N455    1.377   .     A
C411   C694    1.427   .     S
C412   N456    1.378   .     A
C412   I448    2.148   .     S
C413   N455    1.377   .     A
C413   I449    2.146   .     S
C413   C692    1.427   .     S
C414   I454    2.134   .     S
H419   C684    1.108   .     S
H421   C1249   1.110   1_554 S
H424   C1250   1.110   .     S
H426   C1242   1.115   1_554 S
H441   C1246   1.112   1_554 S
N455   Zn469   2.031   .     S
N456   Zn470   2.031   .     S
O457   Zn469   1.992   .     S
O461   Zn470   1.992   .     S
O462   Zn469   1.995   .     S
O463   Zn470   1.995   .     S
O464   Zn469   1.996   .     S
O465   Zn470   1.996   .     S
O466   Zn469   2.004   .     S
O467   Zn470   2.004   .     S
O468   C1242   1.414   1_554 S
C471   O557    1.301   .     A
C471   O551    1.299   .     A
C471   C489    1.448   .     S
C472   C488    1.406   .     A
C472   I538    2.139   .     S
C472   C286    1.381   1_655 S
C473   C488    1.401   .     A
C473   I539    2.140   .     S
C473   C320    1.380   1_655 S
C474   I540    2.140   .     S
C474   C489    1.406   .     A
C475   C486    1.413   .     A
C475   C479    1.396   .     A
C475   O562    1.385   .     S
C476   O552    1.384   .     S
C476   C487    1.402   .     A
C476   C480    1.379   .     A
C477   O553    1.388   .     S
C477   C481    1.398   .     A
C477   C487    1.411   .     A
C478   C483    1.376   .     A
C478   C486    1.403   .     A
C478   O554    1.381   .     S
C479   C484    1.413   .     A
C479   I544    2.123   .     S
C480   C485    1.411   .     A
C480   I545    2.131   .     S
C481   C485    1.417   .     A
C481   I546    2.121   .     S
C482   O555    1.302   .     A
C482   O556    1.297   .     A
C482   C488    1.447   .     S
C483   C484    1.404   .     A
C483   I547    2.129   .     S
C484   C493    1.461   .     S
C485   C503    1.472   .     S
C486   C1333   1.460   1_554 S
C487   C1332   1.460   .     S
C489   C508    1.404   .     A
C490   H509    1.111   .     S
C490   C491    1.526   .     S
C490   H1366   1.115   .     S
C490   O1408   1.414   .     S
C491   H531    1.111   .     S
C491   H530    1.112   .     S
C491   C492    1.528   .     S
C492   H533    1.110   .     S
C492   H532    1.110   .     S
C492   H534    1.111   .     S
C493   O558    1.307   .     A
C493   O561    1.298   .     A
C494   O552    1.416   .     S
C494   H536    1.119   .     S
C494   C495    1.527   .     S
C494   H1381   1.112   .     S
C495   H510    1.112   .     S
C495   H511    1.111   .     S
C495   C496    1.525   .     S
C496   H514    1.110   .     S
C496   H512    1.111   .     S
C497   H516    1.117   .     S
C497   O553    1.415   .     S
C497   C1344   1.526   .     S
C497   H1361   1.110   .     S
C498   H517    1.112   .     S
C498   C499    1.527   .     S
C498   C1343   1.526   1_554 S
C498   H1364   1.110   1_554 S
C499   H519    1.109   .     S
C499   H521    1.110   .     S
C499   H522    1.110   .     S
C500   C501    1.525   .     S
C500   H523    1.112   .     S
C500   H524    1.115   .     S
C500   O554    1.412   .     S
C501   H526    1.111   .     S
C501   H525    1.110   .     S
C501   C1348   1.527   1_554 S
C502   H528    1.108   .     S
C502   H527    1.111   .     S
C502   H529    1.110   .     S
C502   C1347   1.527   .     S
C503   O559    1.299   .     A
C503   O560    1.309   .     A
C504   N550    1.378   .     A
C504   I537    2.148   .     S
C505   I541    2.145   .     S
C505   N549    1.377   .     A
C505   C788    1.427   .     S
C506   N550    1.378   .     A
C506   I542    2.148   .     S
C507   N549    1.377   .     A
C507   I543    2.146   .     S
C507   C786    1.427   .     S
C508   I548    2.134   .     S
H513   C778    1.108   .     S
H515   C1343   1.110   1_554 S
H518   C1344   1.110   .     S
H520   C1336   1.115   1_554 S
H535   C1340   1.112   1_554 S
N549   Zn563   2.031   .     S
N550   Zn564   2.031   .     S
O551   Zn563   1.992   .     S
O555   Zn564   1.992   .     S
O556   Zn563   1.995   .     S
O557   Zn564   1.995   .     S
O558   Zn563   1.996   .     S
O559   Zn564   1.996   .     S
O560   Zn563   2.004   .     S
O561   Zn564   2.004   .     S
O562   C1336   1.414   1_554 S
C565   O651    1.301   .     A
C565   O645    1.299   .     A
C565   C583    1.448   .     S
C566   C582    1.406   .     A
C566   I632    2.139   .     S
C566   C662    1.381   .     S
C567   C582    1.401   .     A
C567   I633    2.140   .     S
C567   C696    1.380   .     S
C568   I634    2.140   .     S
C568   C583    1.406   .     A
C568   C754    1.381   1_455 S
C569   C580    1.413   .     A
C569   C573    1.396   .     A
C569   O656    1.385   .     S
C570   O646    1.384   .     S
C570   C581    1.402   .     A
C570   C574    1.379   .     A
C571   O647    1.388   .     S
C571   C575    1.398   .     A
C571   C581    1.411   .     A
C572   C577    1.376   .     A
C572   C580    1.403   .     A
C572   O648    1.381   .     S
C573   C578    1.413   .     A
C573   I638    2.123   .     S
C574   C579    1.411   .     A
C574   I639    2.131   .     S
C575   C579    1.417   .     A
C575   I640    2.121   .     S
C576   O649    1.302   .     A
C576   O650    1.297   .     A
C576   C582    1.447   .     S
C577   C578    1.404   .     A
C577   I641    2.129   .     S
C578   C587    1.461   .     S
C579   C597    1.472   .     S
C580   C1427   1.460   1_554 S
C581   C1426   1.460   .     S
C583   C602    1.404   .     A
C584   H603    1.111   .     S
C584   C585    1.526   .     S
C584   H1460   1.115   .     S
C584   O1502   1.414   .     S
C585   H625    1.111   .     S
C585   H624    1.112   .     S
C585   C586    1.528   .     S
C586   H627    1.110   .     S
C586   H626    1.110   .     S
C586   H628    1.111   .     S
C587   O652    1.307   .     A
C587   O655    1.298   .     A
C588   O646    1.416   .     S
C588   H630    1.119   .     S
C588   C589    1.527   .     S
C588   H1475   1.112   .     S
C589   H604    1.112   .     S
C589   H605    1.111   .     S
C589   C590    1.525   .     S
C590   H608    1.110   .     S
C590   H606    1.111   .     S
C591   H610    1.117   .     S
C591   O647    1.415   .     S
C591   C1438   1.526   .     S
C591   H1455   1.110   .     S
C592   H611    1.112   .     S
C592   C593    1.527   .     S
C592   C1437   1.526   1_554 S
C592   H1458   1.110   1_554 S
C593   H613    1.109   .     S
C593   H615    1.110   .     S
C593   H616    1.110   .     S
C594   C595    1.525   .     S
C594   H617    1.112   .     S
C594   H618    1.115   .     S
C594   O648    1.412   .     S
C595   H620    1.111   .     S
C595   H619    1.110   .     S
C595   C1442   1.527   1_554 S
C596   H622    1.108   .     S
C596   H621    1.111   .     S
C596   H623    1.110   .     S
C596   C1441   1.527   .     S
C597   O653    1.299   .     A
C597   O654    1.309   .     A
C598   N644    1.378   .     A
C598   I631    2.148   .     S
C599   I635    2.145   .     S
C599   N643    1.377   .     A
C599   C36     1.427   1_565 S
C600   N644    1.378   .     A
C600   I636    2.148   .     S
C601   N643    1.377   .     A
C601   I637    2.146   .     S
C601   C34     1.427   1_565 S
C602   I642    2.134   .     S
C602   C755    1.380   1_455 S
H607   C26     1.108   1_565 S
H609   C1437   1.110   1_554 S
H612   C1438   1.110   .     S
H614   C1430   1.115   1_554 S
H629   C1434   1.112   1_554 S
N643   Zn657   2.031   .     S
N644   Zn658   2.031   .     S
O645   Zn657   1.992   .     S
O649   Zn658   1.992   .     S
O650   Zn657   1.995   .     S
O651   Zn658   1.995   .     S
O652   Zn657   1.996   .     S
O653   Zn658   1.996   .     S
O654   Zn657   2.004   .     S
O655   Zn658   2.004   .     S
O656   C1430   1.414   1_554 S
C659   O745    1.301   .     A
C659   O739    1.299   .     A
C659   C677    1.448   .     S
C660   C676    1.406   .     A
C660   I726    2.139   .     S
C660   C756    1.381   .     S
C661   C676    1.401   .     A
C661   I727    2.140   .     S
C661   C790    1.380   .     S
C662   I728    2.140   .     S
C662   C677    1.406   .     A
C663   C674    1.413   .     A
C663   C667    1.396   .     A
C663   O750    1.385   .     S
C664   O740    1.384   .     S
C664   C675    1.402   .     A
C664   C668    1.379   .     A
C665   O741    1.388   .     S
C665   C669    1.398   .     A
C665   C675    1.411   .     A
C666   C671    1.376   .     A
C666   C674    1.403   .     A
C666   O742    1.381   .     S
C667   C672    1.413   .     A
C667   I732    2.123   .     S
C668   C673    1.411   .     A
C668   I733    2.131   .     S
C669   C673    1.417   .     A
C669   I734    2.121   .     S
C670   O743    1.302   .     A
C670   O744    1.297   .     A
C670   C676    1.447   .     S
C671   C672    1.404   .     A
C671   I735    2.129   .     S
C672   C681    1.461   .     S
C673   C691    1.472   .     S
C674   C1521   1.460   1_554 S
C675   C1520   1.460   .     S
C677   C696    1.404   .     A
C678   H697    1.111   .     S
C678   C679    1.526   .     S
C678   H1554   1.115   .     S
C678   O1596   1.414   .     S
C679   H719    1.111   .     S
C679   H718    1.112   .     S
C679   C680    1.528   .     S
C680   H721    1.110   .     S
C680   H720    1.110   .     S
C680   H722    1.111   .     S
C681   O746    1.307   .     A
C681   O749    1.298   .     A
C682   O740    1.416   .     S
C682   H724    1.119   .     S
C682   C683    1.527   .     S
C682   H1569   1.112   .     S
C683   H698    1.112   .     S
C683   H699    1.111   .     S
C683   C684    1.525   .     S
C684   H702    1.110   .     S
C684   H700    1.111   .     S
C685   H704    1.117   .     S
C685   O741    1.415   .     S
C685   C1532   1.526   .     S
C685   H1549   1.110   .     S
C686   H705    1.112   .     S
C686   C687    1.527   .     S
C686   C1531   1.526   1_554 S
C686   H1552   1.110   1_554 S
C687   H707    1.109   .     S
C687   H709    1.110   .     S
C687   H710    1.110   .     S
C688   C689    1.525   .     S
C688   H711    1.112   .     S
C688   H712    1.115   .     S
C688   O742    1.412   .     S
C689   H714    1.111   .     S
C689   H713    1.110   .     S
C689   C1536   1.527   1_554 S
C690   H716    1.108   .     S
C690   H715    1.111   .     S
C690   H717    1.110   .     S
C690   C1535   1.527   .     S
C691   O747    1.299   .     A
C691   O748    1.309   .     A
C692   N738    1.378   .     A
C692   I725    2.148   .     S
C693   I729    2.145   .     S
C693   N737    1.377   .     A
C693   C130    1.427   1_565 S
C694   N738    1.378   .     A
C694   I730    2.148   .     S
C695   N737    1.377   .     A
C695   I731    2.146   .     S
C695   C128    1.427   1_565 S
C696   I736    2.134   .     S
H701   C120    1.108   1_565 S
H703   C1531   1.110   1_554 S
H706   C1532   1.110   .     S
H708   C1524   1.115   1_554 S
H723   C1528   1.112   1_554 S
N737   Zn751   2.031   .     S
N738   Zn752   2.031   .     S
O739   Zn751   1.992   .     S
O743   Zn752   1.992   .     S
O744   Zn751   1.995   .     S
O745   Zn752   1.995   .     S
O746   Zn751   1.996   .     S
O747   Zn752   1.996   .     S
O748   Zn751   2.004   .     S
O749   Zn752   2.004   .     S
O750   C1524   1.414   1_554 S
C753   O839    1.301   .     A
C753   O833    1.299   .     A
C753   C771    1.448   .     S
C754   C770    1.406   .     A
C754   I820    2.139   .     S
C754   C568    1.381   1_655 S
C755   C770    1.401   .     A
C755   I821    2.140   .     S
C755   C602    1.380   1_655 S
C756   I822    2.140   .     S
C756   C771    1.406   .     A
C757   C768    1.413   .     A
C757   C761    1.396   .     A
C757   O844    1.385   .     S
C758   O834    1.384   .     S
C758   C769    1.402   .     A
C758   C762    1.379   .     A
C759   O835    1.388   .     S
C759   C763    1.398   .     A
C759   C769    1.411   .     A
C760   C765    1.376   .     A
C760   C768    1.403   .     A
C760   O836    1.381   .     S
C761   C766    1.413   .     A
C761   I826    2.123   .     S
C762   C767    1.411   .     A
C762   I827    2.131   .     S
C763   C767    1.417   .     A
C763   I828    2.121   .     S
C764   O837    1.302   .     A
C764   O838    1.297   .     A
C764   C770    1.447   .     S
C765   C766    1.404   .     A
C765   I829    2.129   .     S
C766   C775    1.461   .     S
C767   C785    1.472   .     S
C768   C1615   1.460   1_554 S
C769   C1614   1.460   .     S
C771   C790    1.404   .     A
C772   H791    1.111   .     S
C772   C773    1.526   .     S
C772   H1648   1.115   .     S
C772   O1690   1.414   .     S
C773   H813    1.111   .     S
C773   H812    1.112   .     S
C773   C774    1.528   .     S
C774   H815    1.110   .     S
C774   H814    1.110   .     S
C774   H816    1.111   .     S
C775   O840    1.307   .     A
C775   O843    1.298   .     A
C776   O834    1.416   .     S
C776   H818    1.119   .     S
C776   C777    1.527   .     S
C776   H1663   1.112   .     S
C777   H792    1.112   .     S
C777   H793    1.111   .     S
C777   C778    1.525   .     S
C778   H796    1.110   .     S
C778   H794    1.111   .     S
C779   H798    1.117   .     S
C779   O835    1.415   .     S
C779   C1626   1.526   .     S
C779   H1643   1.110   .     S
C780   H799    1.112   .     S
C780   C781    1.527   .     S
C780   C1625   1.526   1_554 S
C780   H1646   1.110   1_554 S
C781   H801    1.109   .     S
C781   H803    1.110   .     S
C781   H804    1.110   .     S
C782   C783    1.525   .     S
C782   H805    1.112   .     S
C782   H806    1.115   .     S
C782   O836    1.412   .     S
C783   H808    1.111   .     S
C783   H807    1.110   .     S
C783   C1630   1.527   1_554 S
C784   H810    1.108   .     S
C784   H809    1.111   .     S
C784   H811    1.110   .     S
C784   C1629   1.527   .     S
C785   O841    1.299   .     A
C785   O842    1.309   .     A
C786   N832    1.378   .     A
C786   I819    2.148   .     S
C787   I823    2.145   .     S
C787   N831    1.377   .     A
C787   C224    1.427   1_565 S
C788   N832    1.378   .     A
C788   I824    2.148   .     S
C789   N831    1.377   .     A
C789   I825    2.146   .     S
C789   C222    1.427   1_565 S
C790   I830    2.134   .     S
H795   C214    1.108   1_565 S
H797   C1625   1.110   1_554 S
H800   C1626   1.110   .     S
H802   C1618   1.115   1_554 S
H817   C1622   1.112   1_554 S
N831   Zn845   2.031   .     S
N832   Zn846   2.031   .     S
O833   Zn845   1.992   .     S
O837   Zn846   1.992   .     S
O838   Zn845   1.995   .     S
O839   Zn846   1.995   .     S
O840   Zn845   1.996   .     S
O841   Zn846   1.996   .     S
O842   Zn845   2.004   .     S
O843   Zn846   2.004   .     S
O844   C1618   1.414   1_554 S
C847   O933    1.301   .     A
C847   O927    1.299   .     A
C847   C865    1.448   .     S
C848   C864    1.406   .     A
C848   I914    2.139   .     S
C848   C944    1.381   .     S
C849   C864    1.401   .     A
C849   I915    2.140   .     S
C849   C978    1.380   .     S
C850   I916    2.140   .     S
C850   C865    1.406   .     A
C850   C1036   1.381   1_455 S
C851   C862    1.413   .     A
C851   C855    1.396   .     A
C851   O938    1.385   .     S
C852   O928    1.384   .     S
C852   C863    1.402   .     A
C852   C856    1.379   .     A
C853   O929    1.388   .     S
C853   C857    1.398   .     A
C853   C863    1.411   .     A
C854   C859    1.376   .     A
C854   C862    1.403   .     A
C854   O930    1.381   .     S
C855   C860    1.413   .     A
C855   I920    2.123   .     S
C856   C861    1.411   .     A
C856   I921    2.131   .     S
C857   C861    1.417   .     A
C857   I922    2.121   .     S
C858   O931    1.302   .     A
C858   O932    1.297   .     A
C858   C864    1.447   .     S
C859   C860    1.404   .     A
C859   I923    2.129   .     S
C860   C869    1.461   .     S
C861   C879    1.472   .     S
C863   C16     1.460   1_556 S
C865   C884    1.404   .     A
C866   H885    1.111   .     S
C866   C867    1.526   .     S
C866   H50     1.115   1_556 S
C866   O92     1.414   1_556 S
C867   H907    1.111   .     S
C867   H906    1.112   .     S
C867   C868    1.528   .     S
C868   H909    1.110   .     S
C868   H908    1.110   .     S
C868   H910    1.111   .     S
C869   O934    1.307   .     A
C869   O937    1.298   .     A
C870   O928    1.416   .     S
C870   H912    1.119   .     S
C870   C871    1.527   .     S
C870   H65     1.112   1_556 S
C871   H886    1.112   .     S
C871   H887    1.111   .     S
C871   C872    1.525   .     S
C872   H890    1.110   .     S
C872   H888    1.111   .     S
C872   H1453   1.108   1_545 S
C873   H892    1.117   .     S
C873   O929    1.415   .     S
C873   C28     1.526   1_556 S
C873   H45     1.110   1_556 S
C874   H893    1.112   .     S
C874   C875    1.527   .     S
C875   H895    1.109   .     S
C875   H897    1.110   .     S
C875   H898    1.110   .     S
C876   C877    1.525   .     S
C876   H899    1.112   .     S
C876   H900    1.115   .     S
C876   O930    1.412   .     S
C877   H902    1.111   .     S
C877   H901    1.110   .     S
C878   H904    1.108   .     S
C878   H903    1.111   .     S
C878   H905    1.110   .     S
C878   C31     1.527   1_556 S
C879   O935    1.299   .     A
C879   O936    1.309   .     A
C880   N926    1.378   .     A
C880   I913    2.148   .     S
C880   C1447   1.427   1_545 S
C881   I917    2.145   .     S
C881   N925    1.377   .     A
C881   C1164   1.427   .     S
C882   N926    1.378   .     A
C882   I918    2.148   .     S
C882   C1445   1.427   1_545 S
C883   N925    1.377   .     A
C883   I919    2.146   .     S
C883   C1162   1.427   .     S
C884   I924    2.134   .     S
C884   C1037   1.380   1_455 S
H889   C1154   1.108   .     S
H894   C28     1.110   1_556 S
N925   Zn939   2.031   .     S
N926   Zn940   2.031   .     S
O927   Zn939   1.992   .     S
O931   Zn940   1.992   .     S
O932   Zn939   1.995   .     S
O933   Zn940   1.995   .     S
O934   Zn939   1.996   .     S
O935   Zn940   1.996   .     S
O936   Zn939   2.004   .     S
O937   Zn940   2.004   .     S
C941   O1027   1.301   .     A
C941   O1021   1.299   .     A
C941   C959    1.448   .     S
C942   C958    1.406   .     A
C942   I1008   2.139   .     S
C942   C1038   1.381   .     S
C943   C958    1.401   .     A
C943   I1009   2.140   .     S
C943   C1072   1.380   .     S
C944   I1010   2.140   .     S
C944   C959    1.406   .     A
C945   C956    1.413   .     A
C945   C949    1.396   .     A
C945   O1032   1.385   .     S
C946   O1022   1.384   .     S
C946   C957    1.402   .     A
C946   C950    1.379   .     A
C947   O1023   1.388   .     S
C947   C951    1.398   .     A
C947   C957    1.411   .     A
C948   C953    1.376   .     A
C948   C956    1.403   .     A
C948   O1024   1.381   .     S
C949   C954    1.413   .     A
C949   I1014   2.123   .     S
C950   C955    1.411   .     A
C950   I1015   2.131   .     S
C951   C955    1.417   .     A
C951   I1016   2.121   .     S
C952   O1025   1.302   .     A
C952   O1026   1.297   .     A
C952   C958    1.447   .     S
C953   C954    1.404   .     A
C953   I1017   2.129   .     S
C954   C963    1.461   .     S
C955   C973    1.472   .     S
C957   C110    1.460   1_556 S
C959   C978    1.404   .     A
C960   H979    1.111   .     S
C960   C961    1.526   .     S
C960   H144    1.115   1_556 S
C960   O186    1.414   1_556 S
C961   H1001   1.111   .     S
C961   H1000   1.112   .     S
C961   C962    1.528   .     S
C962   H1003   1.110   .     S
C962   H1002   1.110   .     S
C962   H1004   1.111   .     S
C963   O1028   1.307   .     A
C963   O1031   1.298   .     A
C964   O1022   1.416   .     S
C964   H1006   1.119   .     S
C964   C965    1.527   .     S
C964   H159    1.112   1_556 S
C965   H980    1.112   .     S
C965   H981    1.111   .     S
C965   C966    1.525   .     S
C966   H984    1.110   .     S
C966   H982    1.111   .     S
C966   H1547   1.108   1_545 S
C967   H986    1.117   .     S
C967   O1023   1.415   .     S
C967   C122    1.526   1_556 S
C967   H139    1.110   1_556 S
C968   H987    1.112   .     S
C968   C969    1.527   .     S
C969   H989    1.109   .     S
C969   H991    1.110   .     S
C969   H992    1.110   .     S
C970   C971    1.525   .     S
C970   H993    1.112   .     S
C970   H994    1.115   .     S
C970   O1024   1.412   .     S
C971   H996    1.111   .     S
C971   H995    1.110   .     S
C972   H998    1.108   .     S
C972   H997    1.111   .     S
C972   H999    1.110   .     S
C972   C125    1.527   1_556 S
C973   O1029   1.299   .     A
C973   O1030   1.309   .     A
C974   N1020   1.378   .     A
C974   I1007   2.148   .     S
C974   C1541   1.427   1_545 S
C975   I1011   2.145   .     S
C975   N1019   1.377   .     A
C975   C1258   1.427   .     S
C976   N1020   1.378   .     A
C976   I1012   2.148   .     S
C976   C1539   1.427   1_545 S
C977   N1019   1.377   .     A
C977   I1013   2.146   .     S
C977   C1256   1.427   .     S
C978   I1018   2.134   .     S
H983   C1248   1.108   .     S
H988   C122    1.110   1_556 S
N1019  Zn1033  2.031   .     S
N1020  Zn1034  2.031   .     S
O1021  Zn1033  1.992   .     S
O1025  Zn1034  1.992   .     S
O1026  Zn1033  1.995   .     S
O1027  Zn1034  1.995   .     S
O1028  Zn1033  1.996   .     S
O1029  Zn1034  1.996   .     S
O1030  Zn1033  2.004   .     S
O1031  Zn1034  2.004   .     S
C1035  O1121   1.301   .     A
C1035  O1115   1.299   .     A
C1035  C1053   1.448   .     S
C1036  C1052   1.406   .     A
C1036  I1102   2.139   .     S
C1036  C850    1.381   1_655 S
C1037  C1052   1.401   .     A
C1037  I1103   2.140   .     S
C1037  C884    1.380   1_655 S
C1038  I1104   2.140   .     S
C1038  C1053   1.406   .     A
C1039  C1050   1.413   .     A
C1039  C1043   1.396   .     A
C1039  O1126   1.385   .     S
C1040  O1116   1.384   .     S
C1040  C1051   1.402   .     A
C1040  C1044   1.379   .     A
C1041  O1117   1.388   .     S
C1041  C1045   1.398   .     A
C1041  C1051   1.411   .     A
C1042  C1047   1.376   .     A
C1042  C1050   1.403   .     A
C1042  O1118   1.381   .     S
C1043  C1048   1.413   .     A
C1043  I1108   2.123   .     S
C1044  C1049   1.411   .     A
C1044  I1109   2.131   .     S
C1045  C1049   1.417   .     A
C1045  I1110   2.121   .     S
C1046  O1119   1.302   .     A
C1046  O1120   1.297   .     A
C1046  C1052   1.447   .     S
C1047  C1048   1.404   .     A
C1047  I1111   2.129   .     S
C1048  C1057   1.461   .     S
C1049  C1067   1.472   .     S
C1051  C204    1.460   1_556 S
C1053  C1072   1.404   .     A
C1054  H1073   1.111   .     S
C1054  C1055   1.526   .     S
C1054  H238    1.115   1_556 S
C1054  O280    1.414   1_556 S
C1055  H1095   1.111   .     S
C1055  H1094   1.112   .     S
C1055  C1056   1.528   .     S
C1056  H1097   1.110   .     S
C1056  H1096   1.110   .     S
C1056  H1098   1.111   .     S
C1057  O1122   1.307   .     A
C1057  O1125   1.298   .     A
C1058  O1116   1.416   .     S
C1058  H1100   1.119   .     S
C1058  C1059   1.527   .     S
C1058  H253    1.112   1_556 S
C1059  H1074   1.112   .     S
C1059  H1075   1.111   .     S
C1059  C1060   1.525   .     S
C1060  H1078   1.110   .     S
C1060  H1076   1.111   .     S
C1060  H1641   1.108   1_545 S
C1061  H1080   1.117   .     S
C1061  O1117   1.415   .     S
C1061  C216    1.526   1_556 S
C1061  H233    1.110   1_556 S
C1062  H1081   1.112   .     S
C1062  C1063   1.527   .     S
C1063  H1083   1.109   .     S
C1063  H1085   1.110   .     S
C1063  H1086   1.110   .     S
C1064  C1065   1.525   .     S
C1064  H1087   1.112   .     S
C1064  H1088   1.115   .     S
C1064  O1118   1.412   .     S
C1065  H1090   1.111   .     S
C1065  H1089   1.110   .     S
C1066  H1092   1.108   .     S
C1066  H1091   1.111   .     S
C1066  H1093   1.110   .     S
C1066  C219    1.527   1_556 S
C1067  O1123   1.299   .     A
C1067  O1124   1.309   .     A
C1068  N1114   1.378   .     A
C1068  I1101   2.148   .     S
C1068  C1635   1.427   1_545 S
C1069  I1105   2.145   .     S
C1069  N1113   1.377   .     A
C1069  C1352   1.427   .     S
C1070  N1114   1.378   .     A
C1070  I1106   2.148   .     S
C1070  C1633   1.427   1_545 S
C1071  N1113   1.377   .     A
C1071  I1107   2.146   .     S
C1071  C1350   1.427   .     S
C1072  I1112   2.134   .     S
H1077  C1342   1.108   .     S
H1082  C216    1.110   1_556 S
N1113  Zn1127  2.031   .     S
N1114  Zn1128  2.031   .     S
O1115  Zn1127  1.992   .     S
O1119  Zn1128  1.992   .     S
O1120  Zn1127  1.995   .     S
O1121  Zn1128  1.995   .     S
O1122  Zn1127  1.996   .     S
O1123  Zn1128  1.996   .     S
O1124  Zn1127  2.004   .     S
O1125  Zn1128  2.004   .     S
C1129  O1215   1.301   .     A
C1129  O1209   1.299   .     A
C1129  C1147   1.448   .     S
C1130  C1146   1.406   .     A
C1130  I1196   2.139   .     S
C1130  C1226   1.381   .     S
C1131  C1146   1.401   .     A
C1131  I1197   2.140   .     S
C1131  C1260   1.380   .     S
C1132  I1198   2.140   .     S
C1132  C1147   1.406   .     A
C1132  C1318   1.381   1_455 S
C1133  C1144   1.413   .     A
C1133  C1137   1.396   .     A
C1133  O1220   1.385   .     S
C1134  O1210   1.384   .     S
C1134  C1145   1.402   .     A
C1134  C1138   1.379   .     A
C1135  O1211   1.388   .     S
C1135  C1139   1.398   .     A
C1135  C1145   1.411   .     A
C1136  C1141   1.376   .     A
C1136  C1144   1.403   .     A
C1136  O1212   1.381   .     S
C1137  C1142   1.413   .     A
C1137  I1202   2.123   .     S
C1138  C1143   1.411   .     A
C1138  I1203   2.131   .     S
C1139  C1143   1.417   .     A
C1139  I1204   2.121   .     S
C1140  O1213   1.302   .     A
C1140  O1214   1.297   .     A
C1140  C1146   1.447   .     S
C1141  C1142   1.404   .     A
C1141  I1205   2.129   .     S
C1142  C1151   1.461   .     S
C1143  C1161   1.472   .     S
C1145  C298    1.460   1_556 S
C1147  C1166   1.404   .     A
C1148  H1167   1.111   .     S
C1148  C1149   1.526   .     S
C1148  H332    1.115   1_556 S
C1148  O374    1.414   1_556 S
C1149  H1189   1.111   .     S
C1149  H1188   1.112   .     S
C1149  C1150   1.528   .     S
C1150  H1191   1.110   .     S
C1150  H1190   1.110   .     S
C1150  H1192   1.111   .     S
C1151  O1216   1.307   .     A
C1151  O1219   1.298   .     A
C1152  O1210   1.416   .     S
C1152  H1194   1.119   .     S
C1152  C1153   1.527   .     S
C1152  H347    1.112   1_556 S
C1153  H1168   1.112   .     S
C1153  H1169   1.111   .     S
C1153  C1154   1.525   .     S
C1154  H1172   1.110   .     S
C1154  H1170   1.111   .     S
C1155  H1174   1.117   .     S
C1155  O1211   1.415   .     S
C1155  C310    1.526   1_556 S
C1155  H327    1.110   1_556 S
C1156  H1175   1.112   .     S
C1156  C1157   1.527   .     S
C1157  H1177   1.109   .     S
C1157  H1179   1.110   .     S
C1157  H1180   1.110   .     S
C1158  C1159   1.525   .     S
C1158  H1181   1.112   .     S
C1158  H1182   1.115   .     S
C1158  O1212   1.412   .     S
C1159  H1184   1.111   .     S
C1159  H1183   1.110   .     S
C1160  H1186   1.108   .     S
C1160  H1185   1.111   .     S
C1160  H1187   1.110   .     S
C1160  C313    1.527   1_556 S
C1161  O1217   1.299   .     A
C1161  O1218   1.309   .     A
C1162  N1208   1.378   .     A
C1162  I1195   2.148   .     S
C1163  I1199   2.145   .     S
C1163  N1207   1.377   .     A
C1163  C1446   1.427   .     S
C1164  N1208   1.378   .     A
C1164  I1200   2.148   .     S
C1165  N1207   1.377   .     A
C1165  I1201   2.146   .     S
C1165  C1444   1.427   .     S
C1166  I1206   2.134   .     S
C1166  C1319   1.380   1_455 S
H1171  C1436   1.108   .     S
H1176  C310    1.110   1_556 S
N1207  Zn1221  2.031   .     S
N1208  Zn1222  2.031   .     S
O1209  Zn1221  1.992   .     S
O1213  Zn1222  1.992   .     S
O1214  Zn1221  1.995   .     S
O1215  Zn1222  1.995   .     S
O1216  Zn1221  1.996   .     S
O1217  Zn1222  1.996   .     S
O1218  Zn1221  2.004   .     S
O1219  Zn1222  2.004   .     S
C1223  O1309   1.301   .     A
C1223  O1303   1.299   .     A
C1223  C1241   1.448   .     S
C1224  C1240   1.406   .     A
C1224  I1290   2.139   .     S
C1224  C1320   1.381   .     S
C1225  C1240   1.401   .     A
C1225  I1291   2.140   .     S
C1225  C1354   1.380   .     S
C1226  I1292   2.140   .     S
C1226  C1241   1.406   .     A
C1227  C1238   1.413   .     A
C1227  C1231   1.396   .     A
C1227  O1314   1.385   .     S
C1228  O1304   1.384   .     S
C1228  C1239   1.402   .     A
C1228  C1232   1.379   .     A
C1229  O1305   1.388   .     S
C1229  C1233   1.398   .     A
C1229  C1239   1.411   .     A
C1230  C1235   1.376   .     A
C1230  C1238   1.403   .     A
C1230  O1306   1.381   .     S
C1231  C1236   1.413   .     A
C1231  I1296   2.123   .     S
C1232  C1237   1.411   .     A
C1232  I1297   2.131   .     S
C1233  C1237   1.417   .     A
C1233  I1298   2.121   .     S
C1234  O1307   1.302   .     A
C1234  O1308   1.297   .     A
C1234  C1240   1.447   .     S
C1235  C1236   1.404   .     A
C1235  I1299   2.129   .     S
C1236  C1245   1.461   .     S
C1237  C1255   1.472   .     S
C1239  C392    1.460   1_556 S
C1241  C1260   1.404   .     A
C1242  H1261   1.111   .     S
C1242  C1243   1.526   .     S
C1242  H426    1.115   1_556 S
C1242  O468    1.414   1_556 S
C1243  H1283   1.111   .     S
C1243  H1282   1.112   .     S
C1243  C1244   1.528   .     S
C1244  H1285   1.110   .     S
C1244  H1284   1.110   .     S
C1244  H1286   1.111   .     S
C1245  O1310   1.307   .     A
C1245  O1313   1.298   .     A
C1246  O1304   1.416   .     S
C1246  H1288   1.119   .     S
C1246  C1247   1.527   .     S
C1246  H441    1.112   1_556 S
C1247  H1262   1.112   .     S
C1247  H1263   1.111   .     S
C1247  C1248   1.525   .     S
C1248  H1266   1.110   .     S
C1248  H1264   1.111   .     S
C1249  H1268   1.117   .     S
C1249  O1305   1.415   .     S
C1249  C404    1.526   1_556 S
C1249  H421    1.110   1_556 S
C1250  H1269   1.112   .     S
C1250  C1251   1.527   .     S
C1251  H1271   1.109   .     S
C1251  H1273   1.110   .     S
C1251  H1274   1.110   .     S
C1252  C1253   1.525   .     S
C1252  H1275   1.112   .     S
C1252  H1276   1.115   .     S
C1252  O1306   1.412   .     S
C1253  H1278   1.111   .     S
C1253  H1277   1.110   .     S
C1254  H1280   1.108   .     S
C1254  H1279   1.111   .     S
C1254  H1281   1.110   .     S
C1254  C407    1.527   1_556 S
C1255  O1311   1.299   .     A
C1255  O1312   1.309   .     A
C1256  N1302   1.378   .     A
C1256  I1289   2.148   .     S
C1257  I1293   2.145   .     S
C1257  N1301   1.377   .     A
C1257  C1540   1.427   .     S
C1258  N1302   1.378   .     A
C1258  I1294   2.148   .     S
C1259  N1301   1.377   .     A
C1259  I1295   2.146   .     S
C1259  C1538   1.427   .     S
C1260  I1300   2.134   .     S
H1265  C1530   1.108   .     S
H1270  C404    1.110   1_556 S
N1301  Zn1315  2.031   .     S
N1302  Zn1316  2.031   .     S
O1303  Zn1315  1.992   .     S
O1307  Zn1316  1.992   .     S
O1308  Zn1315  1.995   .     S
O1309  Zn1316  1.995   .     S
O1310  Zn1315  1.996   .     S
O1311  Zn1316  1.996   .     S
O1312  Zn1315  2.004   .     S
O1313  Zn1316  2.004   .     S
C1317  O1403   1.301   .     A
C1317  O1397   1.299   .     A
C1317  C1335   1.448   .     S
C1318  C1334   1.406   .     A
C1318  I1384   2.139   .     S
C1318  C1132   1.381   1_655 S
C1319  C1334   1.401   .     A
C1319  I1385   2.140   .     S
C1319  C1166   1.380   1_655 S
C1320  I1386   2.140   .     S
C1320  C1335   1.406   .     A
C1321  C1332   1.413   .     A
C1321  C1325   1.396   .     A
C1321  O1408   1.385   .     S
C1322  O1398   1.384   .     S
C1322  C1333   1.402   .     A
C1322  C1326   1.379   .     A
C1323  O1399   1.388   .     S
C1323  C1327   1.398   .     A
C1323  C1333   1.411   .     A
C1324  C1329   1.376   .     A
C1324  C1332   1.403   .     A
C1324  O1400   1.381   .     S
C1325  C1330   1.413   .     A
C1325  I1390   2.123   .     S
C1326  C1331   1.411   .     A
C1326  I1391   2.131   .     S
C1327  C1331   1.417   .     A
C1327  I1392   2.121   .     S
C1328  O1401   1.302   .     A
C1328  O1402   1.297   .     A
C1328  C1334   1.447   .     S
C1329  C1330   1.404   .     A
C1329  I1393   2.129   .     S
C1330  C1339   1.461   .     S
C1331  C1349   1.472   .     S
C1333  C486    1.460   1_556 S
C1335  C1354   1.404   .     A
C1336  H1355   1.111   .     S
C1336  C1337   1.526   .     S
C1336  H520    1.115   1_556 S
C1336  O562    1.414   1_556 S
C1337  H1377   1.111   .     S
C1337  H1376   1.112   .     S
C1337  C1338   1.528   .     S
C1338  H1379   1.110   .     S
C1338  H1378   1.110   .     S
C1338  H1380   1.111   .     S
C1339  O1404   1.307   .     A
C1339  O1407   1.298   .     A
C1340  O1398   1.416   .     S
C1340  H1382   1.119   .     S
C1340  C1341   1.527   .     S
C1340  H535    1.112   1_556 S
C1341  H1356   1.112   .     S
C1341  H1357   1.111   .     S
C1341  C1342   1.525   .     S
C1342  H1360   1.110   .     S
C1342  H1358   1.111   .     S
C1343  H1362   1.117   .     S
C1343  O1399   1.415   .     S
C1343  C498    1.526   1_556 S
C1343  H515    1.110   1_556 S
C1344  H1363   1.112   .     S
C1344  C1345   1.527   .     S
C1345  H1365   1.109   .     S
C1345  H1367   1.110   .     S
C1345  H1368   1.110   .     S
C1346  C1347   1.525   .     S
C1346  H1369   1.112   .     S
C1346  H1370   1.115   .     S
C1346  O1400   1.412   .     S
C1347  H1372   1.111   .     S
C1347  H1371   1.110   .     S
C1348  H1374   1.108   .     S
C1348  H1373   1.111   .     S
C1348  H1375   1.110   .     S
C1348  C501    1.527   1_556 S
C1349  O1405   1.299   .     A
C1349  O1406   1.309   .     A
C1350  N1396   1.378   .     A
C1350  I1383   2.148   .     S
C1351  I1387   2.145   .     S
C1351  N1395   1.377   .     A
C1351  C1634   1.427   .     S
C1352  N1396   1.378   .     A
C1352  I1388   2.148   .     S
C1353  N1395   1.377   .     A
C1353  I1389   2.146   .     S
C1353  C1632   1.427   .     S
C1354  I1394   2.134   .     S
H1359  C1624   1.108   .     S
H1364  C498    1.110   1_556 S
N1395  Zn1409  2.031   .     S
N1396  Zn1410  2.031   .     S
O1397  Zn1409  1.992   .     S
O1401  Zn1410  1.992   .     S
O1402  Zn1409  1.995   .     S
O1403  Zn1410  1.995   .     S
O1404  Zn1409  1.996   .     S
O1405  Zn1410  1.996   .     S
O1406  Zn1409  2.004   .     S
O1407  Zn1410  2.004   .     S
C1411  O1497   1.301   .     A
C1411  O1491   1.299   .     A
C1411  C1429   1.448   .     S
C1412  C1428   1.406   .     A
C1412  I1478   2.139   .     S
C1412  C1508   1.381   .     S
C1413  C1428   1.401   .     A
C1413  I1479   2.140   .     S
C1413  C1542   1.380   .     S
C1414  I1480   2.140   .     S
C1414  C1429   1.406   .     A
C1414  C1600   1.381   1_455 S
C1415  C1426   1.413   .     A
C1415  C1419   1.396   .     A
C1415  O1502   1.385   .     S
C1416  O1492   1.384   .     S
C1416  C1427   1.402   .     A
C1416  C1420   1.379   .     A
C1417  O1493   1.388   .     S
C1417  C1421   1.398   .     A
C1417  C1427   1.411   .     A
C1418  C1423   1.376   .     A
C1418  C1426   1.403   .     A
C1418  O1494   1.381   .     S
C1419  C1424   1.413   .     A
C1419  I1484   2.123   .     S
C1420  C1425   1.411   .     A
C1420  I1485   2.131   .     S
C1421  C1425   1.417   .     A
C1421  I1486   2.121   .     S
C1422  O1495   1.302   .     A
C1422  O1496   1.297   .     A
C1422  C1428   1.447   .     S
C1423  C1424   1.404   .     A
C1423  I1487   2.129   .     S
C1424  C1433   1.461   .     S
C1425  C1443   1.472   .     S
C1427  C580    1.460   1_556 S
C1429  C1448   1.404   .     A
C1430  H1449   1.111   .     S
C1430  C1431   1.526   .     S
C1430  H614    1.115   1_556 S
C1430  O656    1.414   1_556 S
C1431  H1471   1.111   .     S
C1431  H1470   1.112   .     S
C1431  C1432   1.528   .     S
C1432  H1473   1.110   .     S
C1432  H1472   1.110   .     S
C1432  H1474   1.111   .     S
C1433  O1498   1.307   .     A
C1433  O1501   1.298   .     A
C1434  O1492   1.416   .     S
C1434  H1476   1.119   .     S
C1434  C1435   1.527   .     S
C1434  H629    1.112   1_556 S
C1435  H1450   1.112   .     S
C1435  H1451   1.111   .     S
C1435  C1436   1.525   .     S
C1436  H1454   1.110   .     S
C1436  H1452   1.111   .     S
C1437  H1456   1.117   .     S
C1437  O1493   1.415   .     S
C1437  C592    1.526   1_556 S
C1437  H609    1.110   1_556 S
C1438  H1457   1.112   .     S
C1438  C1439   1.527   .     S
C1439  H1459   1.109   .     S
C1439  H1461   1.110   .     S
C1439  H1462   1.110   .     S
C1440  C1441   1.525   .     S
C1440  H1463   1.112   .     S
C1440  H1464   1.115   .     S
C1440  O1494   1.412   .     S
C1441  H1466   1.111   .     S
C1441  H1465   1.110   .     S
C1442  H1468   1.108   .     S
C1442  H1467   1.111   .     S
C1442  H1469   1.110   .     S
C1442  C595    1.527   1_556 S
C1443  O1499   1.299   .     A
C1443  O1500   1.309   .     A
C1444  N1490   1.378   .     A
C1444  I1477   2.148   .     S
C1445  I1481   2.145   .     S
C1445  N1489   1.377   .     A
C1445  C882    1.427   1_565 S
C1446  N1490   1.378   .     A
C1446  I1482   2.148   .     S
C1447  N1489   1.377   .     A
C1447  I1483   2.146   .     S
C1447  C880    1.427   1_565 S
C1448  I1488   2.134   .     S
C1448  C1601   1.380   1_455 S
H1453  C872    1.108   1_565 S
H1458  C592    1.110   1_556 S
N1489  Zn1503  2.031   .     S
N1490  Zn1504  2.031   .     S
O1491  Zn1503  1.992   .     S
O1495  Zn1504  1.992   .     S
O1496  Zn1503  1.995   .     S
O1497  Zn1504  1.995   .     S
O1498  Zn1503  1.996   .     S
O1499  Zn1504  1.996   .     S
O1500  Zn1503  2.004   .     S
O1501  Zn1504  2.004   .     S
C1505  O1591   1.301   .     A
C1505  O1585   1.299   .     A
C1505  C1523   1.448   .     S
C1506  C1522   1.406   .     A
C1506  I1572   2.139   .     S
C1506  C1602   1.381   .     S
C1507  C1522   1.401   .     A
C1507  I1573   2.140   .     S
C1507  C1636   1.380   .     S
C1508  I1574   2.140   .     S
C1508  C1523   1.406   .     A
C1509  C1520   1.413   .     A
C1509  C1513   1.396   .     A
C1509  O1596   1.385   .     S
C1510  O1586   1.384   .     S
C1510  C1521   1.402   .     A
C1510  C1514   1.379   .     A
C1511  O1587   1.388   .     S
C1511  C1515   1.398   .     A
C1511  C1521   1.411   .     A
C1512  C1517   1.376   .     A
C1512  C1520   1.403   .     A
C1512  O1588   1.381   .     S
C1513  C1518   1.413   .     A
C1513  I1578   2.123   .     S
C1514  C1519   1.411   .     A
C1514  I1579   2.131   .     S
C1515  C1519   1.417   .     A
C1515  I1580   2.121   .     S
C1516  O1589   1.302   .     A
C1516  O1590   1.297   .     A
C1516  C1522   1.447   .     S
C1517  C1518   1.404   .     A
C1517  I1581   2.129   .     S
C1518  C1527   1.461   .     S
C1519  C1537   1.472   .     S
C1521  C674    1.460   1_556 S
C1523  C1542   1.404   .     A
C1524  H1543   1.111   .     S
C1524  C1525   1.526   .     S
C1524  H708    1.115   1_556 S
C1524  O750    1.414   1_556 S
C1525  H1565   1.111   .     S
C1525  H1564   1.112   .     S
C1525  C1526   1.528   .     S
C1526  H1567   1.110   .     S
C1526  H1566   1.110   .     S
C1526  H1568   1.111   .     S
C1527  O1592   1.307   .     A
C1527  O1595   1.298   .     A
C1528  O1586   1.416   .     S
C1528  H1570   1.119   .     S
C1528  C1529   1.527   .     S
C1528  H723    1.112   1_556 S
C1529  H1544   1.112   .     S
C1529  H1545   1.111   .     S
C1529  C1530   1.525   .     S
C1530  H1548   1.110   .     S
C1530  H1546   1.111   .     S
C1531  H1550   1.117   .     S
C1531  O1587   1.415   .     S
C1531  C686    1.526   1_556 S
C1531  H703    1.110   1_556 S
C1532  H1551   1.112   .     S
C1532  C1533   1.527   .     S
C1533  H1553   1.109   .     S
C1533  H1555   1.110   .     S
C1533  H1556   1.110   .     S
C1534  C1535   1.525   .     S
C1534  H1557   1.112   .     S
C1534  H1558   1.115   .     S
C1534  O1588   1.412   .     S
C1535  H1560   1.111   .     S
C1535  H1559   1.110   .     S
C1536  H1562   1.108   .     S
C1536  H1561   1.111   .     S
C1536  H1563   1.110   .     S
C1536  C689    1.527   1_556 S
C1537  O1593   1.299   .     A
C1537  O1594   1.309   .     A
C1538  N1584   1.378   .     A
C1538  I1571   2.148   .     S
C1539  I1575   2.145   .     S
C1539  N1583   1.377   .     A
C1539  C976    1.427   1_565 S
C1540  N1584   1.378   .     A
C1540  I1576   2.148   .     S
C1541  N1583   1.377   .     A
C1541  I1577   2.146   .     S
C1541  C974    1.427   1_565 S
C1542  I1582   2.134   .     S
H1547  C966    1.108   1_565 S
H1552  C686    1.110   1_556 S
N1583  Zn1597  2.031   .     S
N1584  Zn1598  2.031   .     S
O1585  Zn1597  1.992   .     S
O1589  Zn1598  1.992   .     S
O1590  Zn1597  1.995   .     S
O1591  Zn1598  1.995   .     S
O1592  Zn1597  1.996   .     S
O1593  Zn1598  1.996   .     S
O1594  Zn1597  2.004   .     S
O1595  Zn1598  2.004   .     S
C1599  O1685   1.301   .     A
C1599  O1679   1.299   .     A
C1599  C1617   1.448   .     S
C1600  C1616   1.406   .     A
C1600  I1666   2.139   .     S
C1600  C1414   1.381   1_655 S
C1601  C1616   1.401   .     A
C1601  I1667   2.140   .     S
C1601  C1448   1.380   1_655 S
C1602  I1668   2.140   .     S
C1602  C1617   1.406   .     A
C1603  C1614   1.413   .     A
C1603  C1607   1.396   .     A
C1603  O1690   1.385   .     S
C1604  O1680   1.384   .     S
C1604  C1615   1.402   .     A
C1604  C1608   1.379   .     A
C1605  O1681   1.388   .     S
C1605  C1609   1.398   .     A
C1605  C1615   1.411   .     A
C1606  C1611   1.376   .     A
C1606  C1614   1.403   .     A
C1606  O1682   1.381   .     S
C1607  C1612   1.413   .     A
C1607  I1672   2.123   .     S
C1608  C1613   1.411   .     A
C1608  I1673   2.131   .     S
C1609  C1613   1.417   .     A
C1609  I1674   2.121   .     S
C1610  O1683   1.302   .     A
C1610  O1684   1.297   .     A
C1610  C1616   1.447   .     S
C1611  C1612   1.404   .     A
C1611  I1675   2.129   .     S
C1612  C1621   1.461   .     S
C1613  C1631   1.472   .     S
C1615  C768    1.460   1_556 S
C1617  C1636   1.404   .     A
C1618  H1637   1.111   .     S
C1618  C1619   1.526   .     S
C1618  H802    1.115   1_556 S
C1618  O844    1.414   1_556 S
C1619  H1659   1.111   .     S
C1619  H1658   1.112   .     S
C1619  C1620   1.528   .     S
C1620  H1661   1.110   .     S
C1620  H1660   1.110   .     S
C1620  H1662   1.111   .     S
C1621  O1686   1.307   .     A
C1621  O1689   1.298   .     A
C1622  O1680   1.416   .     S
C1622  H1664   1.119   .     S
C1622  C1623   1.527   .     S
C1622  H817    1.112   1_556 S
C1623  H1638   1.112   .     S
C1623  H1639   1.111   .     S
C1623  C1624   1.525   .     S
C1624  H1642   1.110   .     S
C1624  H1640   1.111   .     S
C1625  H1644   1.117   .     S
C1625  O1681   1.415   .     S
C1625  C780    1.526   1_556 S
C1625  H797    1.110   1_556 S
C1626  H1645   1.112   .     S
C1626  C1627   1.527   .     S
C1627  H1647   1.109   .     S
C1627  H1649   1.110   .     S
C1627  H1650   1.110   .     S
C1628  C1629   1.525   .     S
C1628  H1651   1.112   .     S
C1628  H1652   1.115   .     S
C1628  O1682   1.412   .     S
C1629  H1654   1.111   .     S
C1629  H1653   1.110   .     S
C1630  H1656   1.108   .     S
C1630  H1655   1.111   .     S
C1630  H1657   1.110   .     S
C1630  C783    1.527   1_556 S
C1631  O1687   1.299   .     A
C1631  O1688   1.309   .     A
C1632  N1678   1.378   .     A
C1632  I1665   2.148   .     S
C1633  I1669   2.145   .     S
C1633  N1677   1.377   .     A
C1633  C1070   1.427   1_565 S
C1634  N1678   1.378   .     A
C1634  I1670   2.148   .     S
C1635  N1677   1.377   .     A
C1635  I1671   2.146   .     S
C1635  C1068   1.427   1_565 S
C1636  I1676   2.134   .     S
H1641  C1060   1.108   1_565 S
H1646  C780    1.110   1_556 S
N1677  Zn1691  2.031   .     S
N1678  Zn1692  2.031   .     S
O1679  Zn1691  1.992   .     S
O1683  Zn1692  1.992   .     S
O1684  Zn1691  1.995   .     S
O1685  Zn1692  1.995   .     S
O1686  Zn1691  1.996   .     S
O1687  Zn1692  1.996   .     S
O1688  Zn1691  2.004   .     S
O1689  Zn1692  2.004   .     S
