data_str_m2_o2_o10_pcu_sym.78
_audit_creation_date              2020-01-03
_audit_creation_method            'Materials Studio'
_symmetry_space_group_name_H-M    'P1'
_symmetry_Int_Tables_number       1
_symmetry_cell_setting            triclinic
loop_
_symmetry_equiv_pos_as_xyz
  x,y,z
_cell_length_a                    26.1825
_cell_length_b                    30.2407
_cell_length_c                    28.0433
_cell_angle_alpha                 89.7446
_cell_angle_beta                  98.0319
_cell_angle_gamma                 92.6790
loop_
_atom_site_label
_atom_site_type_symbol
_atom_site_fract_x
_atom_site_fract_y
_atom_site_fract_z
_atom_site_U_iso_or_equiv
_atom_site_adp_type
_atom_site_occupancy
C1     C     0.16661   0.16525   0.25012   0.00000  Uiso   1.00
C2     C     0.19766   0.27985   0.44989   0.00000  Uiso   1.00
C3     C     0.16899   0.24865   0.02761   0.00000  Uiso   1.00
C4     C     0.16406   0.25182   0.47234   0.00000  Uiso   1.00
C5     C     0.06801   0.24980   0.23761   0.00000  Uiso   1.00
C6     C     0.26533   0.25012   0.26239   0.00000  Uiso   1.00
C7     C     0.01262   0.24919   0.23090   0.00000  Uiso   1.00
C8     C     0.32071   0.25056   0.26911   0.00000  Uiso   1.00
C9     C     0.20431   0.04854   0.27604   0.00000  Uiso   1.00
C10    C     0.14134   0.45255   0.20786   0.00000  Uiso   1.00
C11    C     0.20615   0.09461   0.27661   0.00000  Uiso   1.00
C12    C     0.16451   0.33491   0.24952   0.00000  Uiso   1.00
C13    C     0.14077   0.40644   0.20694   0.00000  Uiso   1.00
C14    C     0.16575   0.11725   0.25050   0.00000  Uiso   1.00
C15    C     0.16119   0.38326   0.24877   0.00000  Uiso   1.00
C16    C     0.12338   0.09368   0.22513   0.00000  Uiso   1.00
C17    C     0.17862   0.40702   0.29125   0.00000  Uiso   1.00
C18    C     0.12125   0.04769   0.22531   0.00000  Uiso   1.00
C19    C     0.17814   0.45285   0.29198   0.00000  Uiso   1.00
C20    C     0.16190   0.02473   0.25050   0.00000  Uiso   1.00
C21    C     0.16038   0.47605   0.25009   0.00000  Uiso   1.00
C22    C     0.20905   0.27038   0.05975   0.00000  Uiso   1.00
C23    C     0.12420   0.22983   0.44022   0.00000  Uiso   1.00
C24    C     0.20348   0.27513   0.10907   0.00000  Uiso   1.00
C25    C     0.12999   0.22488   0.39100   0.00000  Uiso   1.00
C26    C     0.13399   0.22172   0.09978   0.00000  Uiso   1.00
C27    C     0.19940   0.27832   0.40017   0.00000  Uiso   1.00
C28    C     0.13546   0.22052   0.05001   0.00000  Uiso   1.00
Cu29   Cu    0.16667   0.24999   0.29821   0.00000  Uiso   1.00
Cu30   Cu    0.16667   0.25000   0.20178   0.00000  Uiso   1.00
H31    H     0.08755   0.03013   0.20628   0.00000  Uiso   1.00
H32    H     0.22138   0.30511   0.47019   0.00000  Uiso   1.00
H33    H     0.19159   0.47013   0.32545   0.00000  Uiso   1.00
H34    H     0.32588   0.24745   0.19428   0.00000  Uiso   1.00
H35    H     0.00745   0.25221   0.30574   0.00000  Uiso   1.00
H36    H     0.23641   0.03142   0.29507   0.00000  Uiso   1.00
H37    H     0.12704   0.47003   0.17530   0.00000  Uiso   1.00
H38    H     0.09139   0.11088   0.20610   0.00000  Uiso   1.00
H39    H     0.19302   0.39028   0.32414   0.00000  Uiso   1.00
H40    H     0.11177   0.19528   0.02967   0.00000  Uiso   1.00
I41    I     0.27154   0.12780   0.31616   0.00000  Uiso   1.00
I42    I     0.10406   0.37600   0.14187   0.00000  Uiso   1.00
I43    I     0.28734   0.27488   0.04431   0.00000  Uiso   1.00
I44    I     0.04581   0.22502   0.45530   0.00000  Uiso   1.00
I45    I     0.25268   0.32504   0.14835   0.00000  Uiso   1.00
I46    I     0.08234   0.17409   0.35219   0.00000  Uiso   1.00
I47    I     0.07733   0.17772   0.12341   0.00000  Uiso   1.00
I48    I     0.25735   0.32119   0.37675   0.00000  Uiso   1.00
N49    N     0.16667   0.25001   0.12934   0.00000  Uiso   1.00
N50    N     0.16667   0.24999   0.37065   0.00000  Uiso   1.00
O51    O     0.16667   0.18573   0.29071   0.00000  Uiso   1.00
O52    O     0.16666   0.31427   0.20928   0.00000  Uiso   1.00
O53    O     0.16667   0.18573   0.20928   0.00000  Uiso   1.00
O54    O     0.16666   0.31427   0.29072   0.00000  Uiso   1.00
O55    O     0.09161   0.24999   0.28132   0.00000  Uiso   1.00
O56    O     0.24172   0.25001   0.21868   0.00000  Uiso   1.00
O57    O     0.09161   0.25000   0.19988   0.00000  Uiso   1.00
O58    O     0.24172   0.25000   0.30011   0.00000  Uiso   1.00
C59    C     0.49994   0.16525   0.25012   0.00000  Uiso   1.00
C60    C     0.53099   0.27985   0.44989   0.00000  Uiso   1.00
C61    C     0.50232   0.24865   0.02761   0.00000  Uiso   1.00
C62    C     0.49740   0.25182   0.47234   0.00000  Uiso   1.00
C63    C     0.40134   0.24980   0.23761   0.00000  Uiso   1.00
C64    C     0.59866   0.25012   0.26239   0.00000  Uiso   1.00
C65    C     0.34595   0.24919   0.23090   0.00000  Uiso   1.00
C66    C     0.65405   0.25056   0.26911   0.00000  Uiso   1.00
C67    C     0.53764   0.04854   0.27604   0.00000  Uiso   1.00
C68    C     0.47468   0.45255   0.20786   0.00000  Uiso   1.00
C69    C     0.53948   0.09461   0.27661   0.00000  Uiso   1.00
C70    C     0.49785   0.33491   0.24952   0.00000  Uiso   1.00
C71    C     0.47411   0.40644   0.20694   0.00000  Uiso   1.00
C72    C     0.49908   0.11725   0.25050   0.00000  Uiso   1.00
C73    C     0.49453   0.38326   0.24877   0.00000  Uiso   1.00
C74    C     0.45671   0.09368   0.22513   0.00000  Uiso   1.00
C75    C     0.51195   0.40702   0.29125   0.00000  Uiso   1.00
C76    C     0.45458   0.04769   0.22531   0.00000  Uiso   1.00
C77    C     0.51147   0.45285   0.29198   0.00000  Uiso   1.00
C78    C     0.49524   0.02473   0.25050   0.00000  Uiso   1.00
C79    C     0.49371   0.47605   0.25009   0.00000  Uiso   1.00
C80    C     0.54238   0.27038   0.05975   0.00000  Uiso   1.00
C81    C     0.45753   0.22983   0.44022   0.00000  Uiso   1.00
C82    C     0.53681   0.27513   0.10907   0.00000  Uiso   1.00
C83    C     0.46333   0.22488   0.39100   0.00000  Uiso   1.00
C84    C     0.46732   0.22172   0.09978   0.00000  Uiso   1.00
C85    C     0.53273   0.27832   0.40017   0.00000  Uiso   1.00
C86    C     0.46879   0.22052   0.05001   0.00000  Uiso   1.00
Cu87   Cu    0.50000   0.24999   0.29821   0.00000  Uiso   1.00
Cu88   Cu    0.50000   0.25000   0.20178   0.00000  Uiso   1.00
H89    H     0.42088   0.03013   0.20628   0.00000  Uiso   1.00
H90    H     0.55471   0.30511   0.47019   0.00000  Uiso   1.00
H91    H     0.52492   0.47013   0.32545   0.00000  Uiso   1.00
H92    H     0.65922   0.24745   0.19428   0.00000  Uiso   1.00
H93    H     0.34078   0.25221   0.30574   0.00000  Uiso   1.00
H94    H     0.56974   0.03142   0.29507   0.00000  Uiso   1.00
H95    H     0.46037   0.47003   0.17530   0.00000  Uiso   1.00
H96    H     0.42472   0.11088   0.20610   0.00000  Uiso   1.00
H97    H     0.52636   0.39028   0.32414   0.00000  Uiso   1.00
H98    H     0.44511   0.19528   0.02967   0.00000  Uiso   1.00
I99    I     0.60488   0.12780   0.31616   0.00000  Uiso   1.00
I100   I     0.43739   0.37600   0.14187   0.00000  Uiso   1.00
I101   I     0.62068   0.27488   0.04431   0.00000  Uiso   1.00
I102   I     0.37914   0.22502   0.45530   0.00000  Uiso   1.00
I103   I     0.58602   0.32504   0.14835   0.00000  Uiso   1.00
I104   I     0.41567   0.17409   0.35219   0.00000  Uiso   1.00
I105   I     0.41067   0.17772   0.12341   0.00000  Uiso   1.00
I106   I     0.59068   0.32119   0.37675   0.00000  Uiso   1.00
N107   N     0.50000   0.25001   0.12934   0.00000  Uiso   1.00
N108   N     0.50000   0.24999   0.37065   0.00000  Uiso   1.00
O109   O     0.50000   0.18573   0.29071   0.00000  Uiso   1.00
O110   O     0.50000   0.31427   0.20928   0.00000  Uiso   1.00
O111   O     0.50000   0.18573   0.20928   0.00000  Uiso   1.00
O112   O     0.50000   0.31427   0.29072   0.00000  Uiso   1.00
O113   O     0.42495   0.24999   0.28132   0.00000  Uiso   1.00
O114   O     0.57505   0.25001   0.21868   0.00000  Uiso   1.00
O115   O     0.42495   0.25000   0.19988   0.00000  Uiso   1.00
O116   O     0.57505   0.25000   0.30011   0.00000  Uiso   1.00
C117   C     0.83327   0.16525   0.25012   0.00000  Uiso   1.00
C118   C     0.86433   0.27985   0.44989   0.00000  Uiso   1.00
C119   C     0.83565   0.24865   0.02761   0.00000  Uiso   1.00
C120   C     0.83073   0.25182   0.47234   0.00000  Uiso   1.00
C121   C     0.73467   0.24980   0.23761   0.00000  Uiso   1.00
C122   C     0.93199   0.25012   0.26239   0.00000  Uiso   1.00
C123   C     0.67928   0.24919   0.23090   0.00000  Uiso   1.00
C124   C     0.98738   0.25056   0.26911   0.00000  Uiso   1.00
C125   C     0.87098   0.04854   0.27604   0.00000  Uiso   1.00
C126   C     0.80801   0.45255   0.20786   0.00000  Uiso   1.00
C127   C     0.87282   0.09461   0.27661   0.00000  Uiso   1.00
C128   C     0.83118   0.33491   0.24952   0.00000  Uiso   1.00
C129   C     0.80744   0.40644   0.20694   0.00000  Uiso   1.00
C130   C     0.83242   0.11725   0.25050   0.00000  Uiso   1.00
C131   C     0.82786   0.38326   0.24877   0.00000  Uiso   1.00
C132   C     0.79004   0.09368   0.22513   0.00000  Uiso   1.00
C133   C     0.84528   0.40702   0.29125   0.00000  Uiso   1.00
C134   C     0.78792   0.04769   0.22531   0.00000  Uiso   1.00
C135   C     0.84480   0.45285   0.29198   0.00000  Uiso   1.00
C136   C     0.82857   0.02473   0.25050   0.00000  Uiso   1.00
C137   C     0.82704   0.47605   0.25009   0.00000  Uiso   1.00
C138   C     0.87572   0.27038   0.05975   0.00000  Uiso   1.00
C139   C     0.79087   0.22983   0.44022   0.00000  Uiso   1.00
C140   C     0.87015   0.27513   0.10907   0.00000  Uiso   1.00
C141   C     0.79666   0.22488   0.39100   0.00000  Uiso   1.00
C142   C     0.80066   0.22172   0.09978   0.00000  Uiso   1.00
C143   C     0.86607   0.27832   0.40017   0.00000  Uiso   1.00
C144   C     0.80213   0.22052   0.05001   0.00000  Uiso   1.00
Cu145  Cu    0.83333   0.24999   0.29821   0.00000  Uiso   1.00
Cu146  Cu    0.83333   0.25000   0.20178   0.00000  Uiso   1.00
H147   H     0.75422   0.03013   0.20628   0.00000  Uiso   1.00
H148   H     0.88805   0.30511   0.47019   0.00000  Uiso   1.00
H149   H     0.85826   0.47013   0.32545   0.00000  Uiso   1.00
H150   H     0.99255   0.24745   0.19428   0.00000  Uiso   1.00
H151   H     0.67412   0.25221   0.30574   0.00000  Uiso   1.00
H152   H     0.90308   0.03142   0.29507   0.00000  Uiso   1.00
H153   H     0.79371   0.47003   0.17530   0.00000  Uiso   1.00
H154   H     0.75805   0.11088   0.20610   0.00000  Uiso   1.00
H155   H     0.85969   0.39028   0.32414   0.00000  Uiso   1.00
H156   H     0.77844   0.19528   0.02967   0.00000  Uiso   1.00
I157   I     0.93821   0.12780   0.31616   0.00000  Uiso   1.00
I158   I     0.77073   0.37600   0.14187   0.00000  Uiso   1.00
I159   I     0.95401   0.27488   0.04431   0.00000  Uiso   1.00
I160   I     0.71248   0.22502   0.45530   0.00000  Uiso   1.00
I161   I     0.91935   0.32504   0.14835   0.00000  Uiso   1.00
I162   I     0.74901   0.17409   0.35219   0.00000  Uiso   1.00
I163   I     0.74400   0.17772   0.12341   0.00000  Uiso   1.00
I164   I     0.92402   0.32119   0.37675   0.00000  Uiso   1.00
N165   N     0.83333   0.25001   0.12934   0.00000  Uiso   1.00
N166   N     0.83333   0.24999   0.37065   0.00000  Uiso   1.00
O167   O     0.83334   0.18573   0.29071   0.00000  Uiso   1.00
O168   O     0.83333   0.31427   0.20928   0.00000  Uiso   1.00
O169   O     0.83334   0.18573   0.20928   0.00000  Uiso   1.00
O170   O     0.83333   0.31427   0.29072   0.00000  Uiso   1.00
O171   O     0.75828   0.24999   0.28132   0.00000  Uiso   1.00
O172   O     0.90839   0.25001   0.21868   0.00000  Uiso   1.00
O173   O     0.75828   0.25000   0.19988   0.00000  Uiso   1.00
O174   O     0.90839   0.25000   0.30011   0.00000  Uiso   1.00
C175   C     0.16661   0.66525   0.25012   0.00000  Uiso   1.00
C176   C     0.19766   0.77985   0.44989   0.00000  Uiso   1.00
C177   C     0.16899   0.74865   0.02761   0.00000  Uiso   1.00
C178   C     0.16406   0.75182   0.47234   0.00000  Uiso   1.00
C179   C     0.06801   0.74980   0.23761   0.00000  Uiso   1.00
C180   C     0.26533   0.75012   0.26239   0.00000  Uiso   1.00
C181   C     0.01262   0.74919   0.23090   0.00000  Uiso   1.00
C182   C     0.32071   0.75056   0.26911   0.00000  Uiso   1.00
C183   C     0.20431   0.54854   0.27604   0.00000  Uiso   1.00
C184   C     0.14134   0.95255   0.20786   0.00000  Uiso   1.00
C185   C     0.20615   0.59461   0.27661   0.00000  Uiso   1.00
C186   C     0.16451   0.83491   0.24952   0.00000  Uiso   1.00
C187   C     0.14077   0.90644   0.20694   0.00000  Uiso   1.00
C188   C     0.16575   0.61725   0.25050   0.00000  Uiso   1.00
C189   C     0.16119   0.88326   0.24877   0.00000  Uiso   1.00
C190   C     0.12338   0.59368   0.22513   0.00000  Uiso   1.00
C191   C     0.17862   0.90702   0.29125   0.00000  Uiso   1.00
C192   C     0.12125   0.54769   0.22531   0.00000  Uiso   1.00
C193   C     0.17814   0.95285   0.29198   0.00000  Uiso   1.00
C194   C     0.16190   0.52473   0.25050   0.00000  Uiso   1.00
C195   C     0.16038   0.97605   0.25009   0.00000  Uiso   1.00
C196   C     0.20905   0.77038   0.05975   0.00000  Uiso   1.00
C197   C     0.12420   0.72983   0.44022   0.00000  Uiso   1.00
C198   C     0.20348   0.77513   0.10907   0.00000  Uiso   1.00
C199   C     0.12999   0.72488   0.39100   0.00000  Uiso   1.00
C200   C     0.13399   0.72172   0.09978   0.00000  Uiso   1.00
C201   C     0.19940   0.77832   0.40017   0.00000  Uiso   1.00
C202   C     0.13546   0.72052   0.05001   0.00000  Uiso   1.00
Cu203  Cu    0.16667   0.74999   0.29821   0.00000  Uiso   1.00
Cu204  Cu    0.16667   0.75000   0.20178   0.00000  Uiso   1.00
H205   H     0.08755   0.53013   0.20628   0.00000  Uiso   1.00
H206   H     0.22138   0.80511   0.47019   0.00000  Uiso   1.00
H207   H     0.19159   0.97013   0.32545   0.00000  Uiso   1.00
H208   H     0.32588   0.74745   0.19428   0.00000  Uiso   1.00
H209   H     0.00745   0.75221   0.30574   0.00000  Uiso   1.00
H210   H     0.23641   0.53142   0.29507   0.00000  Uiso   1.00
H211   H     0.12704   0.97003   0.17530   0.00000  Uiso   1.00
H212   H     0.09139   0.61088   0.20610   0.00000  Uiso   1.00
H213   H     0.19302   0.89028   0.32414   0.00000  Uiso   1.00
H214   H     0.11177   0.69528   0.02967   0.00000  Uiso   1.00
I215   I     0.27154   0.62780   0.31616   0.00000  Uiso   1.00
I216   I     0.10406   0.87600   0.14187   0.00000  Uiso   1.00
I217   I     0.28734   0.77488   0.04431   0.00000  Uiso   1.00
I218   I     0.04581   0.72502   0.45530   0.00000  Uiso   1.00
I219   I     0.25268   0.82504   0.14835   0.00000  Uiso   1.00
I220   I     0.08234   0.67409   0.35219   0.00000  Uiso   1.00
I221   I     0.07733   0.67772   0.12341   0.00000  Uiso   1.00
I222   I     0.25735   0.82119   0.37675   0.00000  Uiso   1.00
N223   N     0.16667   0.75001   0.12934   0.00000  Uiso   1.00
N224   N     0.16667   0.74999   0.37065   0.00000  Uiso   1.00
O225   O     0.16667   0.68573   0.29071   0.00000  Uiso   1.00
O226   O     0.16666   0.81427   0.20928   0.00000  Uiso   1.00
O227   O     0.16667   0.68573   0.20928   0.00000  Uiso   1.00
O228   O     0.16666   0.81427   0.29072   0.00000  Uiso   1.00
O229   O     0.09161   0.74999   0.28132   0.00000  Uiso   1.00
O230   O     0.24172   0.75001   0.21868   0.00000  Uiso   1.00
O231   O     0.09161   0.75000   0.19988   0.00000  Uiso   1.00
O232   O     0.24172   0.75000   0.30011   0.00000  Uiso   1.00
C233   C     0.49994   0.66525   0.25012   0.00000  Uiso   1.00
C234   C     0.53099   0.77985   0.44989   0.00000  Uiso   1.00
C235   C     0.50232   0.74865   0.02761   0.00000  Uiso   1.00
C236   C     0.49740   0.75182   0.47234   0.00000  Uiso   1.00
C237   C     0.40134   0.74980   0.23761   0.00000  Uiso   1.00
C238   C     0.59866   0.75012   0.26239   0.00000  Uiso   1.00
C239   C     0.34595   0.74919   0.23090   0.00000  Uiso   1.00
C240   C     0.65405   0.75056   0.26911   0.00000  Uiso   1.00
C241   C     0.53764   0.54854   0.27604   0.00000  Uiso   1.00
C242   C     0.47468   0.95255   0.20786   0.00000  Uiso   1.00
C243   C     0.53948   0.59461   0.27661   0.00000  Uiso   1.00
C244   C     0.49785   0.83491   0.24952   0.00000  Uiso   1.00
C245   C     0.47411   0.90644   0.20694   0.00000  Uiso   1.00
C246   C     0.49908   0.61725   0.25050   0.00000  Uiso   1.00
C247   C     0.49453   0.88326   0.24877   0.00000  Uiso   1.00
C248   C     0.45671   0.59368   0.22513   0.00000  Uiso   1.00
C249   C     0.51195   0.90702   0.29125   0.00000  Uiso   1.00
C250   C     0.45458   0.54769   0.22531   0.00000  Uiso   1.00
C251   C     0.51147   0.95285   0.29198   0.00000  Uiso   1.00
C252   C     0.49524   0.52473   0.25050   0.00000  Uiso   1.00
C253   C     0.49371   0.97605   0.25009   0.00000  Uiso   1.00
C254   C     0.54238   0.77038   0.05975   0.00000  Uiso   1.00
C255   C     0.45753   0.72983   0.44022   0.00000  Uiso   1.00
C256   C     0.53681   0.77513   0.10907   0.00000  Uiso   1.00
C257   C     0.46333   0.72488   0.39100   0.00000  Uiso   1.00
C258   C     0.46732   0.72172   0.09978   0.00000  Uiso   1.00
C259   C     0.53273   0.77832   0.40017   0.00000  Uiso   1.00
C260   C     0.46879   0.72052   0.05001   0.00000  Uiso   1.00
Cu261  Cu    0.50000   0.74999   0.29821   0.00000  Uiso   1.00
Cu262  Cu    0.50000   0.75000   0.20178   0.00000  Uiso   1.00
H263   H     0.42088   0.53013   0.20628   0.00000  Uiso   1.00
H264   H     0.55471   0.80511   0.47019   0.00000  Uiso   1.00
H265   H     0.52492   0.97013   0.32545   0.00000  Uiso   1.00
H266   H     0.65922   0.74745   0.19428   0.00000  Uiso   1.00
H267   H     0.34078   0.75221   0.30574   0.00000  Uiso   1.00
H268   H     0.56974   0.53142   0.29507   0.00000  Uiso   1.00
H269   H     0.46037   0.97003   0.17530   0.00000  Uiso   1.00
H270   H     0.42472   0.61088   0.20610   0.00000  Uiso   1.00
H271   H     0.52636   0.89028   0.32414   0.00000  Uiso   1.00
H272   H     0.44511   0.69528   0.02967   0.00000  Uiso   1.00
I273   I     0.60488   0.62780   0.31616   0.00000  Uiso   1.00
I274   I     0.43739   0.87600   0.14187   0.00000  Uiso   1.00
I275   I     0.62068   0.77488   0.04431   0.00000  Uiso   1.00
I276   I     0.37914   0.72502   0.45530   0.00000  Uiso   1.00
I277   I     0.58602   0.82504   0.14835   0.00000  Uiso   1.00
I278   I     0.41567   0.67409   0.35219   0.00000  Uiso   1.00
I279   I     0.41067   0.67772   0.12341   0.00000  Uiso   1.00
I280   I     0.59068   0.82119   0.37675   0.00000  Uiso   1.00
N281   N     0.50000   0.75001   0.12934   0.00000  Uiso   1.00
N282   N     0.50000   0.74999   0.37065   0.00000  Uiso   1.00
O283   O     0.50000   0.68573   0.29071   0.00000  Uiso   1.00
O284   O     0.50000   0.81427   0.20928   0.00000  Uiso   1.00
O285   O     0.50000   0.68573   0.20928   0.00000  Uiso   1.00
O286   O     0.50000   0.81427   0.29072   0.00000  Uiso   1.00
O287   O     0.42495   0.74999   0.28132   0.00000  Uiso   1.00
O288   O     0.57505   0.75001   0.21868   0.00000  Uiso   1.00
O289   O     0.42495   0.75000   0.19988   0.00000  Uiso   1.00
O290   O     0.57505   0.75000   0.30011   0.00000  Uiso   1.00
C291   C     0.83327   0.66525   0.25012   0.00000  Uiso   1.00
C292   C     0.86433   0.77985   0.44989   0.00000  Uiso   1.00
C293   C     0.83565   0.74865   0.02761   0.00000  Uiso   1.00
C294   C     0.83073   0.75182   0.47234   0.00000  Uiso   1.00
C295   C     0.73467   0.74980   0.23761   0.00000  Uiso   1.00
C296   C     0.93199   0.75012   0.26239   0.00000  Uiso   1.00
C297   C     0.67928   0.74919   0.23090   0.00000  Uiso   1.00
C298   C     0.98738   0.75056   0.26911   0.00000  Uiso   1.00
C299   C     0.87098   0.54854   0.27604   0.00000  Uiso   1.00
C300   C     0.80801   0.95255   0.20786   0.00000  Uiso   1.00
C301   C     0.87282   0.59461   0.27661   0.00000  Uiso   1.00
C302   C     0.83118   0.83491   0.24952   0.00000  Uiso   1.00
C303   C     0.80744   0.90644   0.20694   0.00000  Uiso   1.00
C304   C     0.83242   0.61725   0.25050   0.00000  Uiso   1.00
C305   C     0.82786   0.88326   0.24877   0.00000  Uiso   1.00
C306   C     0.79004   0.59368   0.22513   0.00000  Uiso   1.00
C307   C     0.84528   0.90702   0.29125   0.00000  Uiso   1.00
C308   C     0.78792   0.54769   0.22531   0.00000  Uiso   1.00
C309   C     0.84480   0.95285   0.29198   0.00000  Uiso   1.00
C310   C     0.82857   0.52473   0.25050   0.00000  Uiso   1.00
C311   C     0.82704   0.97605   0.25009   0.00000  Uiso   1.00
C312   C     0.87572   0.77038   0.05975   0.00000  Uiso   1.00
C313   C     0.79087   0.72983   0.44022   0.00000  Uiso   1.00
C314   C     0.87015   0.77513   0.10907   0.00000  Uiso   1.00
C315   C     0.79666   0.72488   0.39100   0.00000  Uiso   1.00
C316   C     0.80066   0.72172   0.09978   0.00000  Uiso   1.00
C317   C     0.86607   0.77832   0.40017   0.00000  Uiso   1.00
C318   C     0.80213   0.72052   0.05001   0.00000  Uiso   1.00
Cu319  Cu    0.83333   0.74999   0.29821   0.00000  Uiso   1.00
Cu320  Cu    0.83333   0.75000   0.20178   0.00000  Uiso   1.00
H321   H     0.75422   0.53013   0.20628   0.00000  Uiso   1.00
H322   H     0.88805   0.80511   0.47019   0.00000  Uiso   1.00
H323   H     0.85826   0.97013   0.32545   0.00000  Uiso   1.00
H324   H     0.99255   0.74745   0.19428   0.00000  Uiso   1.00
H325   H     0.67412   0.75221   0.30574   0.00000  Uiso   1.00
H326   H     0.90308   0.53142   0.29507   0.00000  Uiso   1.00
H327   H     0.79371   0.97003   0.17530   0.00000  Uiso   1.00
H328   H     0.75805   0.61088   0.20610   0.00000  Uiso   1.00
H329   H     0.85969   0.89028   0.32414   0.00000  Uiso   1.00
H330   H     0.77844   0.69528   0.02967   0.00000  Uiso   1.00
I331   I     0.93821   0.62780   0.31616   0.00000  Uiso   1.00
I332   I     0.77073   0.87600   0.14187   0.00000  Uiso   1.00
I333   I     0.95401   0.77488   0.04431   0.00000  Uiso   1.00
I334   I     0.71248   0.72502   0.45530   0.00000  Uiso   1.00
I335   I     0.91935   0.82504   0.14835   0.00000  Uiso   1.00
I336   I     0.74901   0.67409   0.35219   0.00000  Uiso   1.00
I337   I     0.74400   0.67772   0.12341   0.00000  Uiso   1.00
I338   I     0.92402   0.82119   0.37675   0.00000  Uiso   1.00
N339   N     0.83333   0.75001   0.12934   0.00000  Uiso   1.00
N340   N     0.83333   0.74999   0.37065   0.00000  Uiso   1.00
O341   O     0.83334   0.68573   0.29071   0.00000  Uiso   1.00
O342   O     0.83333   0.81427   0.20928   0.00000  Uiso   1.00
O343   O     0.83334   0.68573   0.20928   0.00000  Uiso   1.00
O344   O     0.83333   0.81427   0.29072   0.00000  Uiso   1.00
O345   O     0.75828   0.74999   0.28132   0.00000  Uiso   1.00
O346   O     0.90839   0.75001   0.21868   0.00000  Uiso   1.00
O347   O     0.75828   0.75000   0.19988   0.00000  Uiso   1.00
O348   O     0.90839   0.75000   0.30011   0.00000  Uiso   1.00
C349   C     0.16661   0.16525   0.75012   0.00000  Uiso   1.00
C350   C     0.19766   0.27985   0.94989   0.00000  Uiso   1.00
C351   C     0.16899   0.24865   0.52761   0.00000  Uiso   1.00
C352   C     0.16406   0.25182   0.97234   0.00000  Uiso   1.00
C353   C     0.06801   0.24980   0.73761   0.00000  Uiso   1.00
C354   C     0.26533   0.25012   0.76239   0.00000  Uiso   1.00
C355   C     0.01262   0.24919   0.73090   0.00000  Uiso   1.00
C356   C     0.32071   0.25056   0.76911   0.00000  Uiso   1.00
C357   C     0.20431   0.04854   0.77604   0.00000  Uiso   1.00
C358   C     0.14134   0.45255   0.70786   0.00000  Uiso   1.00
C359   C     0.20615   0.09461   0.77661   0.00000  Uiso   1.00
C360   C     0.16451   0.33491   0.74952   0.00000  Uiso   1.00
C361   C     0.14077   0.40644   0.70694   0.00000  Uiso   1.00
C362   C     0.16575   0.11725   0.75050   0.00000  Uiso   1.00
C363   C     0.16119   0.38326   0.74877   0.00000  Uiso   1.00
C364   C     0.12338   0.09368   0.72513   0.00000  Uiso   1.00
C365   C     0.17862   0.40702   0.79125   0.00000  Uiso   1.00
C366   C     0.12125   0.04769   0.72531   0.00000  Uiso   1.00
C367   C     0.17814   0.45285   0.79198   0.00000  Uiso   1.00
C368   C     0.16190   0.02473   0.75050   0.00000  Uiso   1.00
C369   C     0.16038   0.47605   0.75009   0.00000  Uiso   1.00
C370   C     0.20905   0.27038   0.55975   0.00000  Uiso   1.00
C371   C     0.12420   0.22983   0.94022   0.00000  Uiso   1.00
C372   C     0.20348   0.27513   0.60907   0.00000  Uiso   1.00
C373   C     0.12999   0.22488   0.89100   0.00000  Uiso   1.00
C374   C     0.13399   0.22172   0.59978   0.00000  Uiso   1.00
C375   C     0.19940   0.27832   0.90017   0.00000  Uiso   1.00
C376   C     0.13546   0.22052   0.55001   0.00000  Uiso   1.00
Cu377  Cu    0.16667   0.24999   0.79821   0.00000  Uiso   1.00
Cu378  Cu    0.16667   0.25000   0.70178   0.00000  Uiso   1.00
H379   H     0.08755   0.03013   0.70628   0.00000  Uiso   1.00
H380   H     0.22138   0.30511   0.97019   0.00000  Uiso   1.00
H381   H     0.19159   0.47013   0.82545   0.00000  Uiso   1.00
H382   H     0.32588   0.24745   0.69428   0.00000  Uiso   1.00
H383   H     0.00745   0.25221   0.80574   0.00000  Uiso   1.00
H384   H     0.23641   0.03142   0.79507   0.00000  Uiso   1.00
H385   H     0.12704   0.47003   0.67530   0.00000  Uiso   1.00
H386   H     0.09139   0.11088   0.70610   0.00000  Uiso   1.00
H387   H     0.19302   0.39028   0.82414   0.00000  Uiso   1.00
H388   H     0.11177   0.19528   0.52967   0.00000  Uiso   1.00
I389   I     0.27154   0.12780   0.81616   0.00000  Uiso   1.00
I390   I     0.10406   0.37600   0.64187   0.00000  Uiso   1.00
I391   I     0.28734   0.27488   0.54431   0.00000  Uiso   1.00
I392   I     0.04581   0.22502   0.95530   0.00000  Uiso   1.00
I393   I     0.25268   0.32504   0.64835   0.00000  Uiso   1.00
I394   I     0.08234   0.17409   0.85219   0.00000  Uiso   1.00
I395   I     0.07733   0.17772   0.62341   0.00000  Uiso   1.00
I396   I     0.25735   0.32119   0.87675   0.00000  Uiso   1.00
N397   N     0.16667   0.25001   0.62934   0.00000  Uiso   1.00
N398   N     0.16667   0.24999   0.87065   0.00000  Uiso   1.00
O399   O     0.16667   0.18573   0.79071   0.00000  Uiso   1.00
O400   O     0.16666   0.31427   0.70928   0.00000  Uiso   1.00
O401   O     0.16667   0.18573   0.70928   0.00000  Uiso   1.00
O402   O     0.16666   0.31427   0.79072   0.00000  Uiso   1.00
O403   O     0.09161   0.24999   0.78132   0.00000  Uiso   1.00
O404   O     0.24172   0.25001   0.71868   0.00000  Uiso   1.00
O405   O     0.09161   0.25000   0.69988   0.00000  Uiso   1.00
O406   O     0.24172   0.25000   0.80011   0.00000  Uiso   1.00
C407   C     0.49994   0.16525   0.75012   0.00000  Uiso   1.00
C408   C     0.53099   0.27985   0.94989   0.00000  Uiso   1.00
C409   C     0.50232   0.24865   0.52761   0.00000  Uiso   1.00
C410   C     0.49740   0.25182   0.97234   0.00000  Uiso   1.00
C411   C     0.40134   0.24980   0.73761   0.00000  Uiso   1.00
C412   C     0.59866   0.25012   0.76239   0.00000  Uiso   1.00
C413   C     0.34595   0.24919   0.73090   0.00000  Uiso   1.00
C414   C     0.65405   0.25056   0.76911   0.00000  Uiso   1.00
C415   C     0.53764   0.04854   0.77604   0.00000  Uiso   1.00
C416   C     0.47468   0.45255   0.70786   0.00000  Uiso   1.00
C417   C     0.53948   0.09461   0.77661   0.00000  Uiso   1.00
C418   C     0.49785   0.33491   0.74952   0.00000  Uiso   1.00
C419   C     0.47411   0.40644   0.70694   0.00000  Uiso   1.00
C420   C     0.49908   0.11725   0.75050   0.00000  Uiso   1.00
C421   C     0.49453   0.38326   0.74877   0.00000  Uiso   1.00
C422   C     0.45671   0.09368   0.72513   0.00000  Uiso   1.00
C423   C     0.51195   0.40702   0.79125   0.00000  Uiso   1.00
C424   C     0.45458   0.04769   0.72531   0.00000  Uiso   1.00
C425   C     0.51147   0.45285   0.79198   0.00000  Uiso   1.00
C426   C     0.49524   0.02473   0.75050   0.00000  Uiso   1.00
C427   C     0.49371   0.47605   0.75009   0.00000  Uiso   1.00
C428   C     0.54238   0.27038   0.55975   0.00000  Uiso   1.00
C429   C     0.45753   0.22983   0.94022   0.00000  Uiso   1.00
C430   C     0.53681   0.27513   0.60907   0.00000  Uiso   1.00
C431   C     0.46333   0.22488   0.89100   0.00000  Uiso   1.00
C432   C     0.46732   0.22172   0.59978   0.00000  Uiso   1.00
C433   C     0.53273   0.27832   0.90017   0.00000  Uiso   1.00
C434   C     0.46879   0.22052   0.55001   0.00000  Uiso   1.00
Cu435  Cu    0.50000   0.24999   0.79821   0.00000  Uiso   1.00
Cu436  Cu    0.50000   0.25000   0.70178   0.00000  Uiso   1.00
H437   H     0.42088   0.03013   0.70628   0.00000  Uiso   1.00
H438   H     0.55471   0.30511   0.97019   0.00000  Uiso   1.00
H439   H     0.52492   0.47013   0.82545   0.00000  Uiso   1.00
H440   H     0.65922   0.24745   0.69428   0.00000  Uiso   1.00
H441   H     0.34078   0.25221   0.80574   0.00000  Uiso   1.00
H442   H     0.56974   0.03142   0.79507   0.00000  Uiso   1.00
H443   H     0.46037   0.47003   0.67530   0.00000  Uiso   1.00
H444   H     0.42472   0.11088   0.70610   0.00000  Uiso   1.00
H445   H     0.52636   0.39028   0.82414   0.00000  Uiso   1.00
H446   H     0.44511   0.19528   0.52967   0.00000  Uiso   1.00
I447   I     0.60488   0.12780   0.81616   0.00000  Uiso   1.00
I448   I     0.43739   0.37600   0.64187   0.00000  Uiso   1.00
I449   I     0.62068   0.27488   0.54431   0.00000  Uiso   1.00
I450   I     0.37914   0.22502   0.95530   0.00000  Uiso   1.00
I451   I     0.58602   0.32504   0.64835   0.00000  Uiso   1.00
I452   I     0.41567   0.17409   0.85219   0.00000  Uiso   1.00
I453   I     0.41067   0.17772   0.62341   0.00000  Uiso   1.00
I454   I     0.59068   0.32119   0.87675   0.00000  Uiso   1.00
N455   N     0.50000   0.25001   0.62934   0.00000  Uiso   1.00
N456   N     0.50000   0.24999   0.87065   0.00000  Uiso   1.00
O457   O     0.50000   0.18573   0.79071   0.00000  Uiso   1.00
O458   O     0.50000   0.31427   0.70928   0.00000  Uiso   1.00
O459   O     0.50000   0.18573   0.70928   0.00000  Uiso   1.00
O460   O     0.50000   0.31427   0.79072   0.00000  Uiso   1.00
O461   O     0.42495   0.24999   0.78132   0.00000  Uiso   1.00
O462   O     0.57505   0.25001   0.71868   0.00000  Uiso   1.00
O463   O     0.42495   0.25000   0.69988   0.00000  Uiso   1.00
O464   O     0.57505   0.25000   0.80011   0.00000  Uiso   1.00
C465   C     0.83327   0.16525   0.75012   0.00000  Uiso   1.00
C466   C     0.86433   0.27985   0.94989   0.00000  Uiso   1.00
C467   C     0.83565   0.24865   0.52761   0.00000  Uiso   1.00
C468   C     0.83073   0.25182   0.97234   0.00000  Uiso   1.00
C469   C     0.73467   0.24980   0.73761   0.00000  Uiso   1.00
C470   C     0.93199   0.25012   0.76239   0.00000  Uiso   1.00
C471   C     0.67928   0.24919   0.73090   0.00000  Uiso   1.00
C472   C     0.98738   0.25056   0.76911   0.00000  Uiso   1.00
C473   C     0.87098   0.04854   0.77604   0.00000  Uiso   1.00
C474   C     0.80801   0.45255   0.70786   0.00000  Uiso   1.00
C475   C     0.87282   0.09461   0.77661   0.00000  Uiso   1.00
C476   C     0.83118   0.33491   0.74952   0.00000  Uiso   1.00
C477   C     0.80744   0.40644   0.70694   0.00000  Uiso   1.00
C478   C     0.83242   0.11725   0.75050   0.00000  Uiso   1.00
C479   C     0.82786   0.38326   0.74877   0.00000  Uiso   1.00
C480   C     0.79004   0.09368   0.72513   0.00000  Uiso   1.00
C481   C     0.84528   0.40702   0.79125   0.00000  Uiso   1.00
C482   C     0.78792   0.04769   0.72531   0.00000  Uiso   1.00
C483   C     0.84480   0.45285   0.79198   0.00000  Uiso   1.00
C484   C     0.82857   0.02473   0.75050   0.00000  Uiso   1.00
C485   C     0.82704   0.47605   0.75009   0.00000  Uiso   1.00
C486   C     0.87572   0.27038   0.55975   0.00000  Uiso   1.00
C487   C     0.79087   0.22983   0.94022   0.00000  Uiso   1.00
C488   C     0.87015   0.27513   0.60907   0.00000  Uiso   1.00
C489   C     0.79666   0.22488   0.89100   0.00000  Uiso   1.00
C490   C     0.80066   0.22172   0.59978   0.00000  Uiso   1.00
C491   C     0.86607   0.27832   0.90017   0.00000  Uiso   1.00
C492   C     0.80213   0.22052   0.55001   0.00000  Uiso   1.00
Cu493  Cu    0.83333   0.24999   0.79821   0.00000  Uiso   1.00
Cu494  Cu    0.83333   0.25000   0.70178   0.00000  Uiso   1.00
H495   H     0.75422   0.03013   0.70628   0.00000  Uiso   1.00
H496   H     0.88805   0.30511   0.97019   0.00000  Uiso   1.00
H497   H     0.85826   0.47013   0.82545   0.00000  Uiso   1.00
H498   H     0.99255   0.24745   0.69428   0.00000  Uiso   1.00
H499   H     0.67412   0.25221   0.80574   0.00000  Uiso   1.00
H500   H     0.90308   0.03142   0.79507   0.00000  Uiso   1.00
H501   H     0.79371   0.47003   0.67530   0.00000  Uiso   1.00
H502   H     0.75805   0.11088   0.70610   0.00000  Uiso   1.00
H503   H     0.85969   0.39028   0.82414   0.00000  Uiso   1.00
H504   H     0.77844   0.19528   0.52967   0.00000  Uiso   1.00
I505   I     0.93821   0.12780   0.81616   0.00000  Uiso   1.00
I506   I     0.77073   0.37600   0.64187   0.00000  Uiso   1.00
I507   I     0.95401   0.27488   0.54431   0.00000  Uiso   1.00
I508   I     0.71248   0.22502   0.95530   0.00000  Uiso   1.00
I509   I     0.91935   0.32504   0.64835   0.00000  Uiso   1.00
I510   I     0.74901   0.17409   0.85219   0.00000  Uiso   1.00
I511   I     0.74400   0.17772   0.62341   0.00000  Uiso   1.00
I512   I     0.92402   0.32119   0.87675   0.00000  Uiso   1.00
N513   N     0.83333   0.25001   0.62934   0.00000  Uiso   1.00
N514   N     0.83333   0.24999   0.87065   0.00000  Uiso   1.00
O515   O     0.83334   0.18573   0.79071   0.00000  Uiso   1.00
O516   O     0.83333   0.31427   0.70928   0.00000  Uiso   1.00
O517   O     0.83334   0.18573   0.70928   0.00000  Uiso   1.00
O518   O     0.83333   0.31427   0.79072   0.00000  Uiso   1.00
O519   O     0.75828   0.24999   0.78132   0.00000  Uiso   1.00
O520   O     0.90839   0.25001   0.71868   0.00000  Uiso   1.00
O521   O     0.75828   0.25000   0.69988   0.00000  Uiso   1.00
O522   O     0.90839   0.25000   0.80011   0.00000  Uiso   1.00
C523   C     0.16661   0.66525   0.75012   0.00000  Uiso   1.00
C524   C     0.19766   0.77985   0.94989   0.00000  Uiso   1.00
C525   C     0.16899   0.74865   0.52761   0.00000  Uiso   1.00
C526   C     0.16406   0.75182   0.97234   0.00000  Uiso   1.00
C527   C     0.06801   0.74980   0.73761   0.00000  Uiso   1.00
C528   C     0.26533   0.75012   0.76239   0.00000  Uiso   1.00
C529   C     0.01262   0.74919   0.73090   0.00000  Uiso   1.00
C530   C     0.32071   0.75056   0.76911   0.00000  Uiso   1.00
C531   C     0.20431   0.54854   0.77604   0.00000  Uiso   1.00
C532   C     0.14134   0.95255   0.70786   0.00000  Uiso   1.00
C533   C     0.20615   0.59461   0.77661   0.00000  Uiso   1.00
C534   C     0.16451   0.83491   0.74952   0.00000  Uiso   1.00
C535   C     0.14077   0.90644   0.70694   0.00000  Uiso   1.00
C536   C     0.16575   0.61725   0.75050   0.00000  Uiso   1.00
C537   C     0.16119   0.88326   0.74877   0.00000  Uiso   1.00
C538   C     0.12338   0.59368   0.72513   0.00000  Uiso   1.00
C539   C     0.17862   0.90702   0.79125   0.00000  Uiso   1.00
C540   C     0.12125   0.54769   0.72531   0.00000  Uiso   1.00
C541   C     0.17814   0.95285   0.79198   0.00000  Uiso   1.00
C542   C     0.16190   0.52473   0.75050   0.00000  Uiso   1.00
C543   C     0.16038   0.97605   0.75009   0.00000  Uiso   1.00
C544   C     0.20905   0.77038   0.55975   0.00000  Uiso   1.00
C545   C     0.12420   0.72983   0.94022   0.00000  Uiso   1.00
C546   C     0.20348   0.77513   0.60907   0.00000  Uiso   1.00
C547   C     0.12999   0.72488   0.89100   0.00000  Uiso   1.00
C548   C     0.13399   0.72172   0.59978   0.00000  Uiso   1.00
C549   C     0.19940   0.77832   0.90017   0.00000  Uiso   1.00
C550   C     0.13546   0.72052   0.55001   0.00000  Uiso   1.00
Cu551  Cu    0.16667   0.74999   0.79821   0.00000  Uiso   1.00
Cu552  Cu    0.16667   0.75000   0.70178   0.00000  Uiso   1.00
H553   H     0.08755   0.53013   0.70628   0.00000  Uiso   1.00
H554   H     0.22138   0.80511   0.97019   0.00000  Uiso   1.00
H555   H     0.19159   0.97013   0.82545   0.00000  Uiso   1.00
H556   H     0.32588   0.74745   0.69428   0.00000  Uiso   1.00
H557   H     0.00745   0.75221   0.80574   0.00000  Uiso   1.00
H558   H     0.23641   0.53142   0.79507   0.00000  Uiso   1.00
H559   H     0.12704   0.97003   0.67530   0.00000  Uiso   1.00
H560   H     0.09139   0.61088   0.70610   0.00000  Uiso   1.00
H561   H     0.19302   0.89028   0.82414   0.00000  Uiso   1.00
H562   H     0.11177   0.69528   0.52967   0.00000  Uiso   1.00
I563   I     0.27154   0.62780   0.81616   0.00000  Uiso   1.00
I564   I     0.10406   0.87600   0.64187   0.00000  Uiso   1.00
I565   I     0.28734   0.77488   0.54431   0.00000  Uiso   1.00
I566   I     0.04581   0.72502   0.95530   0.00000  Uiso   1.00
I567   I     0.25268   0.82504   0.64835   0.00000  Uiso   1.00
I568   I     0.08234   0.67409   0.85219   0.00000  Uiso   1.00
I569   I     0.07733   0.67772   0.62341   0.00000  Uiso   1.00
I570   I     0.25735   0.82119   0.87675   0.00000  Uiso   1.00
N571   N     0.16667   0.75001   0.62934   0.00000  Uiso   1.00
N572   N     0.16667   0.74999   0.87065   0.00000  Uiso   1.00
O573   O     0.16667   0.68573   0.79071   0.00000  Uiso   1.00
O574   O     0.16666   0.81427   0.70928   0.00000  Uiso   1.00
O575   O     0.16667   0.68573   0.70928   0.00000  Uiso   1.00
O576   O     0.16666   0.81427   0.79072   0.00000  Uiso   1.00
O577   O     0.09161   0.74999   0.78132   0.00000  Uiso   1.00
O578   O     0.24172   0.75001   0.71868   0.00000  Uiso   1.00
O579   O     0.09161   0.75000   0.69988   0.00000  Uiso   1.00
O580   O     0.24172   0.75000   0.80011   0.00000  Uiso   1.00
C581   C     0.49994   0.66525   0.75012   0.00000  Uiso   1.00
C582   C     0.53099   0.77985   0.94989   0.00000  Uiso   1.00
C583   C     0.50232   0.74865   0.52761   0.00000  Uiso   1.00
C584   C     0.49740   0.75182   0.97234   0.00000  Uiso   1.00
C585   C     0.40134   0.74980   0.73761   0.00000  Uiso   1.00
C586   C     0.59866   0.75012   0.76239   0.00000  Uiso   1.00
C587   C     0.34595   0.74919   0.73090   0.00000  Uiso   1.00
C588   C     0.65405   0.75056   0.76911   0.00000  Uiso   1.00
C589   C     0.53764   0.54854   0.77604   0.00000  Uiso   1.00
C590   C     0.47468   0.95255   0.70786   0.00000  Uiso   1.00
C591   C     0.53948   0.59461   0.77661   0.00000  Uiso   1.00
C592   C     0.49785   0.83491   0.74952   0.00000  Uiso   1.00
C593   C     0.47411   0.90644   0.70694   0.00000  Uiso   1.00
C594   C     0.49908   0.61725   0.75050   0.00000  Uiso   1.00
C595   C     0.49453   0.88326   0.74877   0.00000  Uiso   1.00
C596   C     0.45671   0.59368   0.72513   0.00000  Uiso   1.00
C597   C     0.51195   0.90702   0.79125   0.00000  Uiso   1.00
C598   C     0.45458   0.54769   0.72531   0.00000  Uiso   1.00
C599   C     0.51147   0.95285   0.79198   0.00000  Uiso   1.00
C600   C     0.49524   0.52473   0.75050   0.00000  Uiso   1.00
C601   C     0.49371   0.97605   0.75009   0.00000  Uiso   1.00
C602   C     0.54238   0.77038   0.55975   0.00000  Uiso   1.00
C603   C     0.45753   0.72983   0.94022   0.00000  Uiso   1.00
C604   C     0.53681   0.77513   0.60907   0.00000  Uiso   1.00
C605   C     0.46333   0.72488   0.89100   0.00000  Uiso   1.00
C606   C     0.46732   0.72172   0.59978   0.00000  Uiso   1.00
C607   C     0.53273   0.77832   0.90017   0.00000  Uiso   1.00
C608   C     0.46879   0.72052   0.55001   0.00000  Uiso   1.00
Cu609  Cu    0.50000   0.74999   0.79821   0.00000  Uiso   1.00
Cu610  Cu    0.50000   0.75000   0.70178   0.00000  Uiso   1.00
H611   H     0.42088   0.53013   0.70628   0.00000  Uiso   1.00
H612   H     0.55471   0.80511   0.97019   0.00000  Uiso   1.00
H613   H     0.52492   0.97013   0.82545   0.00000  Uiso   1.00
H614   H     0.65922   0.74745   0.69428   0.00000  Uiso   1.00
H615   H     0.34078   0.75221   0.80574   0.00000  Uiso   1.00
H616   H     0.56974   0.53142   0.79507   0.00000  Uiso   1.00
H617   H     0.46037   0.97003   0.67530   0.00000  Uiso   1.00
H618   H     0.42472   0.61088   0.70610   0.00000  Uiso   1.00
H619   H     0.52636   0.89028   0.82414   0.00000  Uiso   1.00
H620   H     0.44511   0.69528   0.52967   0.00000  Uiso   1.00
I621   I     0.60488   0.62780   0.81616   0.00000  Uiso   1.00
I622   I     0.43739   0.87600   0.64187   0.00000  Uiso   1.00
I623   I     0.62068   0.77488   0.54431   0.00000  Uiso   1.00
I624   I     0.37914   0.72502   0.95530   0.00000  Uiso   1.00
I625   I     0.58602   0.82504   0.64835   0.00000  Uiso   1.00
I626   I     0.41567   0.67409   0.85219   0.00000  Uiso   1.00
I627   I     0.41067   0.67772   0.62341   0.00000  Uiso   1.00
I628   I     0.59068   0.82119   0.87675   0.00000  Uiso   1.00
N629   N     0.50000   0.75001   0.62934   0.00000  Uiso   1.00
N630   N     0.50000   0.74999   0.87065   0.00000  Uiso   1.00
O631   O     0.50000   0.68573   0.79071   0.00000  Uiso   1.00
O632   O     0.50000   0.81427   0.70928   0.00000  Uiso   1.00
O633   O     0.50000   0.68573   0.70928   0.00000  Uiso   1.00
O634   O     0.50000   0.81427   0.79072   0.00000  Uiso   1.00
O635   O     0.42495   0.74999   0.78132   0.00000  Uiso   1.00
O636   O     0.57505   0.75001   0.71868   0.00000  Uiso   1.00
O637   O     0.42495   0.75000   0.69988   0.00000  Uiso   1.00
O638   O     0.57505   0.75000   0.80011   0.00000  Uiso   1.00
C639   C     0.83327   0.66525   0.75012   0.00000  Uiso   1.00
C640   C     0.86433   0.77985   0.94989   0.00000  Uiso   1.00
C641   C     0.83565   0.74865   0.52761   0.00000  Uiso   1.00
C642   C     0.83073   0.75182   0.97234   0.00000  Uiso   1.00
C643   C     0.73467   0.74980   0.73761   0.00000  Uiso   1.00
C644   C     0.93199   0.75012   0.76239   0.00000  Uiso   1.00
C645   C     0.67928   0.74919   0.73090   0.00000  Uiso   1.00
C646   C     0.98738   0.75056   0.76911   0.00000  Uiso   1.00
C647   C     0.87098   0.54854   0.77604   0.00000  Uiso   1.00
C648   C     0.80801   0.95255   0.70786   0.00000  Uiso   1.00
C649   C     0.87282   0.59461   0.77661   0.00000  Uiso   1.00
C650   C     0.83118   0.83491   0.74952   0.00000  Uiso   1.00
C651   C     0.80744   0.90644   0.70694   0.00000  Uiso   1.00
C652   C     0.83242   0.61725   0.75050   0.00000  Uiso   1.00
C653   C     0.82786   0.88326   0.74877   0.00000  Uiso   1.00
C654   C     0.79004   0.59368   0.72513   0.00000  Uiso   1.00
C655   C     0.84528   0.90702   0.79125   0.00000  Uiso   1.00
C656   C     0.78792   0.54769   0.72531   0.00000  Uiso   1.00
C657   C     0.84480   0.95285   0.79198   0.00000  Uiso   1.00
C658   C     0.82857   0.52473   0.75050   0.00000  Uiso   1.00
C659   C     0.82704   0.97605   0.75009   0.00000  Uiso   1.00
C660   C     0.87572   0.77038   0.55975   0.00000  Uiso   1.00
C661   C     0.79087   0.72983   0.94022   0.00000  Uiso   1.00
C662   C     0.87015   0.77513   0.60907   0.00000  Uiso   1.00
C663   C     0.79666   0.72488   0.89100   0.00000  Uiso   1.00
C664   C     0.80066   0.72172   0.59978   0.00000  Uiso   1.00
C665   C     0.86607   0.77832   0.90017   0.00000  Uiso   1.00
C666   C     0.80213   0.72052   0.55001   0.00000  Uiso   1.00
Cu667  Cu    0.83333   0.74999   0.79821   0.00000  Uiso   1.00
Cu668  Cu    0.83333   0.75000   0.70178   0.00000  Uiso   1.00
H669   H     0.75422   0.53013   0.70628   0.00000  Uiso   1.00
H670   H     0.88805   0.80511   0.97019   0.00000  Uiso   1.00
H671   H     0.85826   0.97013   0.82545   0.00000  Uiso   1.00
H672   H     0.99255   0.74745   0.69428   0.00000  Uiso   1.00
H673   H     0.67412   0.75221   0.80574   0.00000  Uiso   1.00
H674   H     0.90308   0.53142   0.79507   0.00000  Uiso   1.00
H675   H     0.79371   0.97003   0.67530   0.00000  Uiso   1.00
H676   H     0.75805   0.61088   0.70610   0.00000  Uiso   1.00
H677   H     0.85969   0.89028   0.82414   0.00000  Uiso   1.00
H678   H     0.77844   0.69528   0.52967   0.00000  Uiso   1.00
I679   I     0.93821   0.62780   0.81616   0.00000  Uiso   1.00
I680   I     0.77073   0.87600   0.64187   0.00000  Uiso   1.00
I681   I     0.95401   0.77488   0.54431   0.00000  Uiso   1.00
I682   I     0.71248   0.72502   0.95530   0.00000  Uiso   1.00
I683   I     0.91935   0.82504   0.64835   0.00000  Uiso   1.00
I684   I     0.74901   0.67409   0.85219   0.00000  Uiso   1.00
I685   I     0.74400   0.67772   0.62341   0.00000  Uiso   1.00
I686   I     0.92402   0.82119   0.87675   0.00000  Uiso   1.00
N687   N     0.83333   0.75001   0.62934   0.00000  Uiso   1.00
N688   N     0.83333   0.74999   0.87065   0.00000  Uiso   1.00
O689   O     0.83334   0.68573   0.79071   0.00000  Uiso   1.00
O690   O     0.83333   0.81427   0.70928   0.00000  Uiso   1.00
O691   O     0.83334   0.68573   0.70928   0.00000  Uiso   1.00
O692   O     0.83333   0.81427   0.79072   0.00000  Uiso   1.00
O693   O     0.75828   0.74999   0.78132   0.00000  Uiso   1.00
O694   O     0.90839   0.75001   0.71868   0.00000  Uiso   1.00
O695   O     0.75828   0.75000   0.69988   0.00000  Uiso   1.00
O696   O     0.90839   0.75000   0.80011   0.00000  Uiso   1.00
loop_
_geom_bond_atom_site_label_1
_geom_bond_atom_site_label_2
_geom_bond_distance
_geom_bond_site_symmetry_2
_ccdc_geom_bond_type
C1     C14     1.451   .     S
C1     O51     1.298   .     A
C1     O53     1.300   .     A
C2     C4      1.403   .     A
C2     C27     1.403   .     A
C2     H32     1.074   .     S
C3     C28     1.403   .     A
C3     C22     1.422   .     A
C3     C352    1.540   1_554 S
C4     C23     1.421   .     A
C4     C351    1.540   .     S
C5     O57     1.298   .     A
C5     C7      1.435   .     S
C5     O55     1.293   .     A
C6     O58     1.298   .     A
C6     C8      1.435   .     S
C6     O56     1.293   .     A
C7     C124    1.337   1_455 S
C7     H150    1.087   1_455 S
C8     C65     1.337   .     S
C8     H93     1.087   .     S
C9     H36     1.083   .     S
C9     C11     1.392   .     A
C9     C20     1.404   .     A
C10    H37     1.083   .     S
C10    C21     1.402   .     A
C10    C13     1.394   .     A
C11    I41     2.118   .     S
C11    C14     1.404   .     A
C12    C15     1.469   .     S
C12    O52     1.301   .     A
C12    O54     1.306   .     A
C13    I42     2.131   .     S
C13    C15     1.416   .     A
C14    C16     1.398   .     A
C15    C17     1.403   .     A
C16    C18     1.389   .     A
C16    H38     1.082   .     S
C17    H39     1.080   .     S
C17    C19     1.387   .     A
C18    C20     1.403   .     A
C18    H31     1.083   .     S
C19    H33     1.083   .     S
C19    C21     1.399   .     A
C20    C195    1.471   1_545 S
C21    C194    1.471   .     S
C22    I43     2.152   .     S
C22    C24     1.420   .     A
C23    C25     1.419   .     A
C23    I44     2.151   .     S
C24    I45     2.142   .     S
C24    N49     1.382   .     A
C25    N50     1.380   .     A
C25    I46     2.135   .     S
C26    C28     1.402   .     A
C26    I47     2.119   .     S
C26    N49     1.375   .     A
C27    I48     2.122   .     S
C27    N50     1.376   .     A
C28    H40     1.074   .     S
Cu29   O58     1.958   .     S
Cu29   Cu30    2.704   .     S
Cu29   N50     2.031   .     S
Cu29   O51     1.956   .     S
Cu29   O54     1.954   .     S
Cu29   O55     1.956   .     S
Cu30   N49     2.031   .     S
Cu30   O53     1.954   .     S
Cu30   O57     1.958   .     S
Cu30   O52     1.956   .     S
Cu30   O56     1.956   .     S
H34    C65     1.087   .     S
H35    C124    1.087   1_455 S
C59    C72     1.451   .     S
C59    O109    1.298   .     A
C59    O111    1.300   .     A
C60    C62     1.403   .     A
C60    C85     1.403   .     A
C60    H90     1.074   .     S
C61    C86     1.403   .     A
C61    C80     1.422   .     A
C61    C410    1.540   1_554 S
C62    C81     1.421   .     A
C62    C409    1.540   .     S
C63    O115    1.298   .     A
C63    C65     1.435   .     S
C63    O113    1.293   .     A
C64    O116    1.298   .     A
C64    C66     1.435   .     S
C64    O114    1.293   .     A
C66    C123    1.337   .     S
C66    H151    1.087   .     S
C67    H94     1.083   .     S
C67    C69     1.392   .     A
C67    C78     1.404   .     A
C68    H95     1.083   .     S
C68    C79     1.402   .     A
C68    C71     1.394   .     A
C69    I99     2.118   .     S
C69    C72     1.404   .     A
C70    C73     1.469   .     S
C70    O110    1.301   .     A
C70    O112    1.306   .     A
C71    I100    2.131   .     S
C71    C73     1.416   .     A
C72    C74     1.398   .     A
C73    C75     1.403   .     A
C74    C76     1.389   .     A
C74    H96     1.082   .     S
C75    H97     1.080   .     S
C75    C77     1.387   .     A
C76    C78     1.403   .     A
C76    H89     1.083   .     S
C77    H91     1.083   .     S
C77    C79     1.399   .     A
C78    C253    1.471   1_545 S
C79    C252    1.471   .     S
C80    I101    2.152   .     S
C80    C82     1.420   .     A
C81    C83     1.419   .     A
C81    I102    2.151   .     S
C82    I103    2.142   .     S
C82    N107    1.382   .     A
C83    N108    1.380   .     A
C83    I104    2.135   .     S
C84    C86     1.402   .     A
C84    I105    2.119   .     S
C84    N107    1.375   .     A
C85    I106    2.122   .     S
C85    N108    1.376   .     A
C86    H98     1.074   .     S
Cu87   O116    1.958   .     S
Cu87   Cu88    2.704   .     S
Cu87   N108    2.031   .     S
Cu87   O109    1.956   .     S
Cu87   O112    1.954   .     S
Cu87   O113    1.956   .     S
Cu88   N107    2.031   .     S
Cu88   O111    1.954   .     S
Cu88   O115    1.958   .     S
Cu88   O110    1.956   .     S
Cu88   O114    1.956   .     S
H92    C123    1.087   .     S
C117   C130    1.451   .     S
C117   O167    1.298   .     A
C117   O169    1.300   .     A
C118   C120    1.403   .     A
C118   C143    1.403   .     A
C118   H148    1.074   .     S
C119   C144    1.403   .     A
C119   C138    1.422   .     A
C119   C468    1.540   1_554 S
C120   C139    1.421   .     A
C120   C467    1.540   .     S
C121   O173    1.298   .     A
C121   C123    1.435   .     S
C121   O171    1.293   .     A
C122   O174    1.298   .     A
C122   C124    1.435   .     S
C122   O172    1.293   .     A
C124   C7      1.337   1_655 S
C124   H35     1.087   1_655 S
C125   H152    1.083   .     S
C125   C127    1.392   .     A
C125   C136    1.404   .     A
C126   H153    1.083   .     S
C126   C137    1.402   .     A
C126   C129    1.394   .     A
C127   I157    2.118   .     S
C127   C130    1.404   .     A
C128   C131    1.469   .     S
C128   O168    1.301   .     A
C128   O170    1.306   .     A
C129   I158    2.131   .     S
C129   C131    1.416   .     A
C130   C132    1.398   .     A
C131   C133    1.403   .     A
C132   C134    1.389   .     A
C132   H154    1.082   .     S
C133   H155    1.080   .     S
C133   C135    1.387   .     A
C134   C136    1.403   .     A
C134   H147    1.083   .     S
C135   H149    1.083   .     S
C135   C137    1.399   .     A
C136   C311    1.471   1_545 S
C137   C310    1.471   .     S
C138   I159    2.152   .     S
C138   C140    1.420   .     A
C139   C141    1.419   .     A
C139   I160    2.151   .     S
C140   I161    2.142   .     S
C140   N165    1.382   .     A
C141   N166    1.380   .     A
C141   I162    2.135   .     S
C142   C144    1.402   .     A
C142   I163    2.119   .     S
C142   N165    1.375   .     A
C143   I164    2.122   .     S
C143   N166    1.376   .     A
C144   H156    1.074   .     S
Cu145  O174    1.958   .     S
Cu145  Cu146   2.704   .     S
Cu145  N166    2.031   .     S
Cu145  O167    1.956   .     S
Cu145  O170    1.954   .     S
Cu145  O171    1.956   .     S
Cu146  N165    2.031   .     S
Cu146  O169    1.954   .     S
Cu146  O173    1.958   .     S
Cu146  O168    1.956   .     S
Cu146  O172    1.956   .     S
H150   C7      1.087   1_655 S
C175   C188    1.451   .     S
C175   O225    1.298   .     A
C175   O227    1.300   .     A
C176   C178    1.403   .     A
C176   C201    1.403   .     A
C176   H206    1.074   .     S
C177   C202    1.403   .     A
C177   C196    1.422   .     A
C177   C526    1.540   1_554 S
C178   C197    1.421   .     A
C178   C525    1.540   .     S
C179   O231    1.298   .     A
C179   C181    1.435   .     S
C179   O229    1.293   .     A
C180   O232    1.298   .     A
C180   C182    1.435   .     S
C180   O230    1.293   .     A
C181   C298    1.337   1_455 S
C181   H324    1.087   1_455 S
C182   C239    1.337   .     S
C182   H267    1.087   .     S
C183   H210    1.083   .     S
C183   C185    1.392   .     A
C183   C194    1.404   .     A
C184   H211    1.083   .     S
C184   C195    1.402   .     A
C184   C187    1.394   .     A
C185   I215    2.118   .     S
C185   C188    1.404   .     A
C186   C189    1.469   .     S
C186   O226    1.301   .     A
C186   O228    1.306   .     A
C187   I216    2.131   .     S
C187   C189    1.416   .     A
C188   C190    1.398   .     A
C189   C191    1.403   .     A
C190   C192    1.389   .     A
C190   H212    1.082   .     S
C191   H213    1.080   .     S
C191   C193    1.387   .     A
C192   C194    1.403   .     A
C192   H205    1.083   .     S
C193   H207    1.083   .     S
C193   C195    1.399   .     A
C195   C20     1.471   1_565 S
C196   I217    2.152   .     S
C196   C198    1.420   .     A
C197   C199    1.419   .     A
C197   I218    2.151   .     S
C198   I219    2.142   .     S
C198   N223    1.382   .     A
C199   N224    1.380   .     A
C199   I220    2.135   .     S
C200   C202    1.402   .     A
C200   I221    2.119   .     S
C200   N223    1.375   .     A
C201   I222    2.122   .     S
C201   N224    1.376   .     A
C202   H214    1.074   .     S
Cu203  O232    1.958   .     S
Cu203  Cu204   2.704   .     S
Cu203  N224    2.031   .     S
Cu203  O225    1.956   .     S
Cu203  O228    1.954   .     S
Cu203  O229    1.956   .     S
Cu204  N223    2.031   .     S
Cu204  O227    1.954   .     S
Cu204  O231    1.958   .     S
Cu204  O226    1.956   .     S
Cu204  O230    1.956   .     S
H208   C239    1.087   .     S
H209   C298    1.087   1_455 S
C233   C246    1.451   .     S
C233   O283    1.298   .     A
C233   O285    1.300   .     A
C234   C236    1.403   .     A
C234   C259    1.403   .     A
C234   H264    1.074   .     S
C235   C260    1.403   .     A
C235   C254    1.422   .     A
C235   C584    1.540   1_554 S
C236   C255    1.421   .     A
C236   C583    1.540   .     S
C237   O289    1.298   .     A
C237   C239    1.435   .     S
C237   O287    1.293   .     A
C238   O290    1.298   .     A
C238   C240    1.435   .     S
C238   O288    1.293   .     A
C240   C297    1.337   .     S
C240   H325    1.087   .     S
C241   H268    1.083   .     S
C241   C243    1.392   .     A
C241   C252    1.404   .     A
C242   H269    1.083   .     S
C242   C253    1.402   .     A
C242   C245    1.394   .     A
C243   I273    2.118   .     S
C243   C246    1.404   .     A
C244   C247    1.469   .     S
C244   O284    1.301   .     A
C244   O286    1.306   .     A
C245   I274    2.131   .     S
C245   C247    1.416   .     A
C246   C248    1.398   .     A
C247   C249    1.403   .     A
C248   C250    1.389   .     A
C248   H270    1.082   .     S
C249   H271    1.080   .     S
C249   C251    1.387   .     A
C250   C252    1.403   .     A
C250   H263    1.083   .     S
C251   H265    1.083   .     S
C251   C253    1.399   .     A
C253   C78     1.471   1_565 S
C254   I275    2.152   .     S
C254   C256    1.420   .     A
C255   C257    1.419   .     A
C255   I276    2.151   .     S
C256   I277    2.142   .     S
C256   N281    1.382   .     A
C257   N282    1.380   .     A
C257   I278    2.135   .     S
C258   C260    1.402   .     A
C258   I279    2.119   .     S
C258   N281    1.375   .     A
C259   I280    2.122   .     S
C259   N282    1.376   .     A
C260   H272    1.074   .     S
Cu261  O290    1.958   .     S
Cu261  Cu262   2.704   .     S
Cu261  N282    2.031   .     S
Cu261  O283    1.956   .     S
Cu261  O286    1.954   .     S
Cu261  O287    1.956   .     S
Cu262  N281    2.031   .     S
Cu262  O285    1.954   .     S
Cu262  O289    1.958   .     S
Cu262  O284    1.956   .     S
Cu262  O288    1.956   .     S
H266   C297    1.087   .     S
C291   C304    1.451   .     S
C291   O341    1.298   .     A
C291   O343    1.300   .     A
C292   C294    1.403   .     A
C292   C317    1.403   .     A
C292   H322    1.074   .     S
C293   C318    1.403   .     A
C293   C312    1.422   .     A
C293   C642    1.540   1_554 S
C294   C313    1.421   .     A
C294   C641    1.540   .     S
C295   O347    1.298   .     A
C295   C297    1.435   .     S
C295   O345    1.293   .     A
C296   O348    1.298   .     A
C296   C298    1.435   .     S
C296   O346    1.293   .     A
C298   C181    1.337   1_655 S
C298   H209    1.087   1_655 S
C299   H326    1.083   .     S
C299   C301    1.392   .     A
C299   C310    1.404   .     A
C300   H327    1.083   .     S
C300   C311    1.402   .     A
C300   C303    1.394   .     A
C301   I331    2.118   .     S
C301   C304    1.404   .     A
C302   C305    1.469   .     S
C302   O342    1.301   .     A
C302   O344    1.306   .     A
C303   I332    2.131   .     S
C303   C305    1.416   .     A
C304   C306    1.398   .     A
C305   C307    1.403   .     A
C306   C308    1.389   .     A
C306   H328    1.082   .     S
C307   H329    1.080   .     S
C307   C309    1.387   .     A
C308   C310    1.403   .     A
C308   H321    1.083   .     S
C309   H323    1.083   .     S
C309   C311    1.399   .     A
C311   C136    1.471   1_565 S
C312   I333    2.152   .     S
C312   C314    1.420   .     A
C313   C315    1.419   .     A
C313   I334    2.151   .     S
C314   I335    2.142   .     S
C314   N339    1.382   .     A
C315   N340    1.380   .     A
C315   I336    2.135   .     S
C316   C318    1.402   .     A
C316   I337    2.119   .     S
C316   N339    1.375   .     A
C317   I338    2.122   .     S
C317   N340    1.376   .     A
C318   H330    1.074   .     S
Cu319  O348    1.958   .     S
Cu319  Cu320   2.704   .     S
Cu319  N340    2.031   .     S
Cu319  O341    1.956   .     S
Cu319  O344    1.954   .     S
Cu319  O345    1.956   .     S
Cu320  N339    2.031   .     S
Cu320  O343    1.954   .     S
Cu320  O347    1.958   .     S
Cu320  O342    1.956   .     S
Cu320  O346    1.956   .     S
H324   C181    1.087   1_655 S
C349   C362    1.451   .     S
C349   O399    1.298   .     A
C349   O401    1.300   .     A
C350   C352    1.403   .     A
C350   C375    1.403   .     A
C350   H380    1.074   .     S
C351   C376    1.403   .     A
C351   C370    1.422   .     A
C352   C371    1.421   .     A
C352   C3      1.540   1_556 S
C353   O405    1.298   .     A
C353   C355    1.435   .     S
C353   O403    1.293   .     A
C354   O406    1.298   .     A
C354   C356    1.435   .     S
C354   O404    1.293   .     A
C355   C472    1.337   1_455 S
C355   H498    1.087   1_455 S
C356   C413    1.337   .     S
C356   H441    1.087   .     S
C357   H384    1.083   .     S
C357   C359    1.392   .     A
C357   C368    1.404   .     A
C358   H385    1.083   .     S
C358   C369    1.402   .     A
C358   C361    1.394   .     A
C359   I389    2.118   .     S
C359   C362    1.404   .     A
C360   C363    1.469   .     S
C360   O400    1.301   .     A
C360   O402    1.306   .     A
C361   I390    2.131   .     S
C361   C363    1.416   .     A
C362   C364    1.398   .     A
C363   C365    1.403   .     A
C364   C366    1.389   .     A
C364   H386    1.082   .     S
C365   H387    1.080   .     S
C365   C367    1.387   .     A
C366   C368    1.403   .     A
C366   H379    1.083   .     S
C367   H381    1.083   .     S
C367   C369    1.399   .     A
C368   C543    1.471   1_545 S
C369   C542    1.471   .     S
C370   I391    2.152   .     S
C370   C372    1.420   .     A
C371   C373    1.419   .     A
C371   I392    2.151   .     S
C372   I393    2.142   .     S
C372   N397    1.382   .     A
C373   N398    1.380   .     A
C373   I394    2.135   .     S
C374   C376    1.402   .     A
C374   I395    2.119   .     S
C374   N397    1.375   .     A
C375   I396    2.122   .     S
C375   N398    1.376   .     A
C376   H388    1.074   .     S
Cu377  O406    1.958   .     S
Cu377  Cu378   2.704   .     S
Cu377  N398    2.031   .     S
Cu377  O399    1.956   .     S
Cu377  O402    1.954   .     S
Cu377  O403    1.956   .     S
Cu378  N397    2.031   .     S
Cu378  O401    1.954   .     S
Cu378  O405    1.958   .     S
Cu378  O400    1.956   .     S
Cu378  O404    1.956   .     S
H382   C413    1.087   .     S
H383   C472    1.087   1_455 S
C407   C420    1.451   .     S
C407   O457    1.298   .     A
C407   O459    1.300   .     A
C408   C410    1.403   .     A
C408   C433    1.403   .     A
C408   H438    1.074   .     S
C409   C434    1.403   .     A
C409   C428    1.422   .     A
C410   C429    1.421   .     A
C410   C61     1.540   1_556 S
C411   O463    1.298   .     A
C411   C413    1.435   .     S
C411   O461    1.293   .     A
C412   O464    1.298   .     A
C412   C414    1.435   .     S
C412   O462    1.293   .     A
C414   C471    1.337   .     S
C414   H499    1.087   .     S
C415   H442    1.083   .     S
C415   C417    1.392   .     A
C415   C426    1.404   .     A
C416   H443    1.083   .     S
C416   C427    1.402   .     A
C416   C419    1.394   .     A
C417   I447    2.118   .     S
C417   C420    1.404   .     A
C418   C421    1.469   .     S
C418   O458    1.301   .     A
C418   O460    1.306   .     A
C419   I448    2.131   .     S
C419   C421    1.416   .     A
C420   C422    1.398   .     A
C421   C423    1.403   .     A
C422   C424    1.389   .     A
C422   H444    1.082   .     S
C423   H445    1.080   .     S
C423   C425    1.387   .     A
C424   C426    1.403   .     A
C424   H437    1.083   .     S
C425   H439    1.083   .     S
C425   C427    1.399   .     A
C426   C601    1.471   1_545 S
C427   C600    1.471   .     S
C428   I449    2.152   .     S
C428   C430    1.420   .     A
C429   C431    1.419   .     A
C429   I450    2.151   .     S
C430   I451    2.142   .     S
C430   N455    1.382   .     A
C431   N456    1.380   .     A
C431   I452    2.135   .     S
C432   C434    1.402   .     A
C432   I453    2.119   .     S
C432   N455    1.375   .     A
C433   I454    2.122   .     S
C433   N456    1.376   .     A
C434   H446    1.074   .     S
Cu435  O464    1.958   .     S
Cu435  Cu436   2.704   .     S
Cu435  N456    2.031   .     S
Cu435  O457    1.956   .     S
Cu435  O460    1.954   .     S
Cu435  O461    1.956   .     S
Cu436  N455    2.031   .     S
Cu436  O459    1.954   .     S
Cu436  O463    1.958   .     S
Cu436  O458    1.956   .     S
Cu436  O462    1.956   .     S
H440   C471    1.087   .     S
C465   C478    1.451   .     S
C465   O515    1.298   .     A
C465   O517    1.300   .     A
C466   C468    1.403   .     A
C466   C491    1.403   .     A
C466   H496    1.074   .     S
C467   C492    1.403   .     A
C467   C486    1.422   .     A
C468   C487    1.421   .     A
C468   C119    1.540   1_556 S
C469   O521    1.298   .     A
C469   C471    1.435   .     S
C469   O519    1.293   .     A
C470   O522    1.298   .     A
C470   C472    1.435   .     S
C470   O520    1.293   .     A
C472   C355    1.337   1_655 S
C472   H383    1.087   1_655 S
C473   H500    1.083   .     S
C473   C475    1.392   .     A
C473   C484    1.404   .     A
C474   H501    1.083   .     S
C474   C485    1.402   .     A
C474   C477    1.394   .     A
C475   I505    2.118   .     S
C475   C478    1.404   .     A
C476   C479    1.469   .     S
C476   O516    1.301   .     A
C476   O518    1.306   .     A
C477   I506    2.131   .     S
C477   C479    1.416   .     A
C478   C480    1.398   .     A
C479   C481    1.403   .     A
C480   C482    1.389   .     A
C480   H502    1.082   .     S
C481   H503    1.080   .     S
C481   C483    1.387   .     A
C482   C484    1.403   .     A
C482   H495    1.083   .     S
C483   H497    1.083   .     S
C483   C485    1.399   .     A
C484   C659    1.471   1_545 S
C485   C658    1.471   .     S
C486   I507    2.152   .     S
C486   C488    1.420   .     A
C487   C489    1.419   .     A
C487   I508    2.151   .     S
C488   I509    2.142   .     S
C488   N513    1.382   .     A
C489   N514    1.380   .     A
C489   I510    2.135   .     S
C490   C492    1.402   .     A
C490   I511    2.119   .     S
C490   N513    1.375   .     A
C491   I512    2.122   .     S
C491   N514    1.376   .     A
C492   H504    1.074   .     S
Cu493  O522    1.958   .     S
Cu493  Cu494   2.704   .     S
Cu493  N514    2.031   .     S
Cu493  O515    1.956   .     S
Cu493  O518    1.954   .     S
Cu493  O519    1.956   .     S
Cu494  N513    2.031   .     S
Cu494  O517    1.954   .     S
Cu494  O521    1.958   .     S
Cu494  O516    1.956   .     S
Cu494  O520    1.956   .     S
H498   C355    1.087   1_655 S
C523   C536    1.451   .     S
C523   O573    1.298   .     A
C523   O575    1.300   .     A
C524   C526    1.403   .     A
C524   C549    1.403   .     A
C524   H554    1.074   .     S
C525   C550    1.403   .     A
C525   C544    1.422   .     A
C526   C545    1.421   .     A
C526   C177    1.540   1_556 S
C527   O579    1.298   .     A
C527   C529    1.435   .     S
C527   O577    1.293   .     A
C528   O580    1.298   .     A
C528   C530    1.435   .     S
C528   O578    1.293   .     A
C529   C646    1.337   1_455 S
C529   H672    1.087   1_455 S
C530   C587    1.337   .     S
C530   H615    1.087   .     S
C531   H558    1.083   .     S
C531   C533    1.392   .     A
C531   C542    1.404   .     A
C532   H559    1.083   .     S
C532   C543    1.402   .     A
C532   C535    1.394   .     A
C533   I563    2.118   .     S
C533   C536    1.404   .     A
C534   C537    1.469   .     S
C534   O574    1.301   .     A
C534   O576    1.306   .     A
C535   I564    2.131   .     S
C535   C537    1.416   .     A
C536   C538    1.398   .     A
C537   C539    1.403   .     A
C538   C540    1.389   .     A
C538   H560    1.082   .     S
C539   H561    1.080   .     S
C539   C541    1.387   .     A
C540   C542    1.403   .     A
C540   H553    1.083   .     S
C541   H555    1.083   .     S
C541   C543    1.399   .     A
C543   C368    1.471   1_565 S
C544   I565    2.152   .     S
C544   C546    1.420   .     A
C545   C547    1.419   .     A
C545   I566    2.151   .     S
C546   I567    2.142   .     S
C546   N571    1.382   .     A
C547   N572    1.380   .     A
C547   I568    2.135   .     S
C548   C550    1.402   .     A
C548   I569    2.119   .     S
C548   N571    1.375   .     A
C549   I570    2.122   .     S
C549   N572    1.376   .     A
C550   H562    1.074   .     S
Cu551  O580    1.958   .     S
Cu551  Cu552   2.704   .     S
Cu551  N572    2.031   .     S
Cu551  O573    1.956   .     S
Cu551  O576    1.954   .     S
Cu551  O577    1.956   .     S
Cu552  N571    2.031   .     S
Cu552  O575    1.954   .     S
Cu552  O579    1.958   .     S
Cu552  O574    1.956   .     S
Cu552  O578    1.956   .     S
H556   C587    1.087   .     S
H557   C646    1.087   1_455 S
C581   C594    1.451   .     S
C581   O631    1.298   .     A
C581   O633    1.300   .     A
C582   C584    1.403   .     A
C582   C607    1.403   .     A
C582   H612    1.074   .     S
C583   C608    1.403   .     A
C583   C602    1.422   .     A
C584   C603    1.421   .     A
C584   C235    1.540   1_556 S
C585   O637    1.298   .     A
C585   C587    1.435   .     S
C585   O635    1.293   .     A
C586   O638    1.298   .     A
C586   C588    1.435   .     S
C586   O636    1.293   .     A
C588   C645    1.337   .     S
C588   H673    1.087   .     S
C589   H616    1.083   .     S
C589   C591    1.392   .     A
C589   C600    1.404   .     A
C590   H617    1.083   .     S
C590   C601    1.402   .     A
C590   C593    1.394   .     A
C591   I621    2.118   .     S
C591   C594    1.404   .     A
C592   C595    1.469   .     S
C592   O632    1.301   .     A
C592   O634    1.306   .     A
C593   I622    2.131   .     S
C593   C595    1.416   .     A
C594   C596    1.398   .     A
C595   C597    1.403   .     A
C596   C598    1.389   .     A
C596   H618    1.082   .     S
C597   H619    1.080   .     S
C597   C599    1.387   .     A
C598   C600    1.403   .     A
C598   H611    1.083   .     S
C599   H613    1.083   .     S
C599   C601    1.399   .     A
C601   C426    1.471   1_565 S
C602   I623    2.152   .     S
C602   C604    1.420   .     A
C603   C605    1.419   .     A
C603   I624    2.151   .     S
C604   I625    2.142   .     S
C604   N629    1.382   .     A
C605   N630    1.380   .     A
C605   I626    2.135   .     S
C606   C608    1.402   .     A
C606   I627    2.119   .     S
C606   N629    1.375   .     A
C607   I628    2.122   .     S
C607   N630    1.376   .     A
C608   H620    1.074   .     S
Cu609  O638    1.958   .     S
Cu609  Cu610   2.704   .     S
Cu609  N630    2.031   .     S
Cu609  O631    1.956   .     S
Cu609  O634    1.954   .     S
Cu609  O635    1.956   .     S
Cu610  N629    2.031   .     S
Cu610  O633    1.954   .     S
Cu610  O637    1.958   .     S
Cu610  O632    1.956   .     S
Cu610  O636    1.956   .     S
H614   C645    1.087   .     S
C639   C652    1.451   .     S
C639   O689    1.298   .     A
C639   O691    1.300   .     A
C640   C642    1.403   .     A
C640   C665    1.403   .     A
C640   H670    1.074   .     S
C641   C666    1.403   .     A
C641   C660    1.422   .     A
C642   C661    1.421   .     A
C642   C293    1.540   1_556 S
C643   O695    1.298   .     A
C643   C645    1.435   .     S
C643   O693    1.293   .     A
C644   O696    1.298   .     A
C644   C646    1.435   .     S
C644   O694    1.293   .     A
C646   C529    1.337   1_655 S
C646   H557    1.087   1_655 S
C647   H674    1.083   .     S
C647   C649    1.392   .     A
C647   C658    1.404   .     A
C648   H675    1.083   .     S
C648   C659    1.402   .     A
C648   C651    1.394   .     A
C649   I679    2.118   .     S
C649   C652    1.404   .     A
C650   C653    1.469   .     S
C650   O690    1.301   .     A
C650   O692    1.306   .     A
C651   I680    2.131   .     S
C651   C653    1.416   .     A
C652   C654    1.398   .     A
C653   C655    1.403   .     A
C654   C656    1.389   .     A
C654   H676    1.082   .     S
C655   H677    1.080   .     S
C655   C657    1.387   .     A
C656   C658    1.403   .     A
C656   H669    1.083   .     S
C657   H671    1.083   .     S
C657   C659    1.399   .     A
C659   C484    1.471   1_565 S
C660   I681    2.152   .     S
C660   C662    1.420   .     A
C661   C663    1.419   .     A
C661   I682    2.151   .     S
C662   I683    2.142   .     S
C662   N687    1.382   .     A
C663   N688    1.380   .     A
C663   I684    2.135   .     S
C664   C666    1.402   .     A
C664   I685    2.119   .     S
C664   N687    1.375   .     A
C665   I686    2.122   .     S
C665   N688    1.376   .     A
C666   H678    1.074   .     S
Cu667  O696    1.958   .     S
Cu667  Cu668   2.704   .     S
Cu667  N688    2.031   .     S
Cu667  O689    1.956   .     S
Cu667  O692    1.954   .     S
Cu667  O693    1.956   .     S
Cu668  N687    2.031   .     S
Cu668  O691    1.954   .     S
Cu668  O695    1.958   .     S
Cu668  O690    1.956   .     S
Cu668  O694    1.956   .     S
H672   C529    1.087   1_655 S
