data_str_m1_o10_o16_pcu_sym.111
_audit_creation_date              2020-01-03
_audit_creation_method            'Materials Studio'
_symmetry_space_group_name_H-M    'P1'
_symmetry_Int_Tables_number       1
_symmetry_cell_setting            triclinic
loop_
_symmetry_equiv_pos_as_xyz
  x,y,z
_cell_length_a                    32.5553
_cell_length_b                    32.5281
_cell_length_c                    30.9596
_cell_angle_alpha                 95.9597
_cell_angle_beta                  74.4494
_cell_angle_gamma                 98.4065
loop_
_atom_site_label
_atom_site_type_symbol
_atom_site_fract_x
_atom_site_fract_y
_atom_site_fract_z
_atom_site_U_iso_or_equiv
_atom_site_adp_type
_atom_site_occupancy
Br1    Br    0.27867   0.12045   0.08488   0.00000  Uiso   1.00
Br2    Br    0.10663   0.22449   0.07632   0.00000  Uiso   1.00
C3     C     0.05279   0.15977   0.26000   0.00000  Uiso   1.00
C4     C     0.16797   0.15395   0.05832   0.00000  Uiso   1.00
C5     C     0.23850   0.13681   0.05642   0.00000  Uiso   1.00
C6     C     0.28089   0.17385   0.23992   0.00000  Uiso   1.00
C7     C     0.14079   0.19227   0.42035   0.00000  Uiso   1.00
C8     C     0.32680   0.17649   0.23561   0.00000  Uiso   1.00
C9     C     0.00747   0.15750   0.26413   0.00000  Uiso   1.00
C10    C     0.18066   0.32256   0.23613   0.00000  Uiso   1.00
C11    C     0.15234   0.01178   0.26406   0.00000  Uiso   1.00
C12    C     0.15638   0.05588   0.26014   0.00000  Uiso   1.00
C13    C     0.17669   0.27798   0.24006   0.00000  Uiso   1.00
C14    C     0.09120   0.21116   0.49080   0.00000  Uiso   1.00
C15    C     0.18578   0.14835   0.12922   0.00000  Uiso   1.00
C16    C     0.14921   0.18520   0.37095   0.00000  Uiso   1.00
C17    C     0.25217   0.14344   0.01087   0.00000  Uiso   1.00
C18    C     0.19630   0.14259   0.08040   0.00000  Uiso   1.00
C19    C     0.10134   0.20527   0.44432   0.00000  Uiso   1.00
C20    C     0.11856   0.20135   0.01495   0.00000  Uiso   1.00
C21    C     0.15655   0.18323   0.49193   0.00000  Uiso   1.00
C22    C     0.16998   0.18401   0.44421   0.00000  Uiso   1.00
C23    C     0.18273   0.16582   0.01380   0.00000  Uiso   1.00
C24    C     0.22497   0.15832   0.48956   0.00000  Uiso   1.00
C25    C     0.23993   0.16604   0.44432   0.00000  Uiso   1.00
C26    C     0.21279   0.17823   0.42182   0.00000  Uiso   1.00
H27    H     0.31895   0.14026   0.29111   0.00000  Uiso   1.00
H28    H     0.01596   0.19390   0.20911   0.00000  Uiso   1.00
H29    H     0.20682   0.00380   0.21035   0.00000  Uiso   1.00
H30    H     0.12594   0.33131   0.29008   0.00000  Uiso   1.00
H31    H     0.27257   0.16174   0.42591   0.00000  Uiso   1.00
H32    H     0.28458   0.13826   0.49249   0.00000  Uiso   1.00
H33    H     0.13488   0.15414   0.07685   0.00000  Uiso   1.00
H34    H     0.07854   0.21201   0.42696   0.00000  Uiso   1.00
H35    H     0.06206   0.22443   0.00817   0.00000  Uiso   1.00
H36    H     0.22659   0.18455   0.38701   0.00000  Uiso   1.00
O37    O     0.16667   0.16667   0.25000   0.00000  Uiso   1.00
O38    O     0.15451   0.12637   0.15458   0.00000  Uiso   1.00
O39    O     0.12940   0.20391   0.34968   0.00000  Uiso   1.00
O40    O     0.20824   0.17759   0.14606   0.00000  Uiso   1.00
O41    O     0.17451   0.15880   0.34968   0.00000  Uiso   1.00
O42    O     0.17930   0.08019   0.28213   0.00000  Uiso   1.00
O43    O     0.14632   0.26085   0.27013   0.00000  Uiso   1.00
O44    O     0.07412   0.13291   0.23413   0.00000  Uiso   1.00
O45    O     0.26693   0.19272   0.21360   0.00000  Uiso   1.00
O46    O     0.07071   0.18878   0.28213   0.00000  Uiso   1.00
O47    O     0.25491   0.15226   0.27013   0.00000  Uiso   1.00
O48    O     0.13760   0.06944   0.23413   0.00000  Uiso   1.00
O49    O     0.20345   0.25620   0.21360   0.00000  Uiso   1.00
Zn50   Zn    0.19338   0.13994   0.28734   0.00000  Uiso   1.00
Zn51   Zn    0.13379   0.12458   0.21875   0.00000  Uiso   1.00
Zn52   Zn    0.21056   0.19775   0.20657   0.00000  Uiso   1.00
Zn53   Zn    0.12893   0.20439   0.28733   0.00000  Uiso   1.00
Br54   Br    0.61201   0.12045   0.08488   0.00000  Uiso   1.00
Br55   Br    0.43996   0.22449   0.07632   0.00000  Uiso   1.00
C56    C     0.38612   0.15977   0.26000   0.00000  Uiso   1.00
C57    C     0.50130   0.15395   0.05832   0.00000  Uiso   1.00
C58    C     0.57184   0.13681   0.05642   0.00000  Uiso   1.00
C59    C     0.61422   0.17385   0.23992   0.00000  Uiso   1.00
C60    C     0.47412   0.19227   0.42035   0.00000  Uiso   1.00
C61    C     0.66013   0.17649   0.23561   0.00000  Uiso   1.00
C62    C     0.34080   0.15750   0.26413   0.00000  Uiso   1.00
C63    C     0.51399   0.32256   0.23613   0.00000  Uiso   1.00
C64    C     0.48567   0.01178   0.26406   0.00000  Uiso   1.00
C65    C     0.48971   0.05588   0.26014   0.00000  Uiso   1.00
C66    C     0.51003   0.27798   0.24006   0.00000  Uiso   1.00
C67    C     0.42453   0.21116   0.49080   0.00000  Uiso   1.00
C68    C     0.51911   0.14835   0.12922   0.00000  Uiso   1.00
C69    C     0.48255   0.18520   0.37095   0.00000  Uiso   1.00
C70    C     0.58551   0.14344   0.01087   0.00000  Uiso   1.00
C71    C     0.52964   0.14259   0.08040   0.00000  Uiso   1.00
C72    C     0.43467   0.20527   0.44432   0.00000  Uiso   1.00
C73    C     0.45190   0.20135   0.01495   0.00000  Uiso   1.00
C74    C     0.48988   0.18323   0.49193   0.00000  Uiso   1.00
C75    C     0.50331   0.18401   0.44421   0.00000  Uiso   1.00
C76    C     0.51607   0.16582   0.01380   0.00000  Uiso   1.00
C77    C     0.55830   0.15832   0.48956   0.00000  Uiso   1.00
C78    C     0.57326   0.16604   0.44432   0.00000  Uiso   1.00
C79    C     0.54612   0.17823   0.42182   0.00000  Uiso   1.00
H80    H     0.65228   0.14026   0.29111   0.00000  Uiso   1.00
H81    H     0.34929   0.19390   0.20911   0.00000  Uiso   1.00
H82    H     0.54015   0.00380   0.21035   0.00000  Uiso   1.00
H83    H     0.45927   0.33131   0.29008   0.00000  Uiso   1.00
H84    H     0.60590   0.16174   0.42591   0.00000  Uiso   1.00
H85    H     0.61791   0.13826   0.49249   0.00000  Uiso   1.00
H86    H     0.46821   0.15414   0.07685   0.00000  Uiso   1.00
H87    H     0.41187   0.21201   0.42696   0.00000  Uiso   1.00
H88    H     0.39540   0.22443   0.00817   0.00000  Uiso   1.00
H89    H     0.55993   0.18455   0.38701   0.00000  Uiso   1.00
O90    O     0.50000   0.16667   0.25000   0.00000  Uiso   1.00
O91    O     0.48784   0.12637   0.15458   0.00000  Uiso   1.00
O92    O     0.46274   0.20391   0.34968   0.00000  Uiso   1.00
O93    O     0.54157   0.17759   0.14606   0.00000  Uiso   1.00
O94    O     0.50785   0.15880   0.34968   0.00000  Uiso   1.00
O95    O     0.51264   0.08019   0.28213   0.00000  Uiso   1.00
O96    O     0.47965   0.26085   0.27013   0.00000  Uiso   1.00
O97    O     0.40745   0.13291   0.23413   0.00000  Uiso   1.00
O98    O     0.60026   0.19272   0.21360   0.00000  Uiso   1.00
O99    O     0.40405   0.18878   0.28213   0.00000  Uiso   1.00
O100   O     0.58824   0.15226   0.27013   0.00000  Uiso   1.00
O101   O     0.47093   0.06944   0.23413   0.00000  Uiso   1.00
O102   O     0.53678   0.25620   0.21360   0.00000  Uiso   1.00
Zn103  Zn    0.52672   0.13994   0.28734   0.00000  Uiso   1.00
Zn104  Zn    0.46713   0.12458   0.21875   0.00000  Uiso   1.00
Zn105  Zn    0.54389   0.19775   0.20657   0.00000  Uiso   1.00
Zn106  Zn    0.46226   0.20439   0.28733   0.00000  Uiso   1.00
Br107  Br    0.94534   0.12045   0.08488   0.00000  Uiso   1.00
Br108  Br    0.77329   0.22449   0.07632   0.00000  Uiso   1.00
C109   C     0.71946   0.15977   0.26000   0.00000  Uiso   1.00
C110   C     0.83463   0.15395   0.05832   0.00000  Uiso   1.00
C111   C     0.90517   0.13681   0.05642   0.00000  Uiso   1.00
C112   C     0.94756   0.17385   0.23992   0.00000  Uiso   1.00
C113   C     0.80746   0.19227   0.42035   0.00000  Uiso   1.00
C114   C     0.99346   0.17649   0.23561   0.00000  Uiso   1.00
C115   C     0.67414   0.15750   0.26413   0.00000  Uiso   1.00
C116   C     0.84733   0.32256   0.23613   0.00000  Uiso   1.00
C117   C     0.81901   0.01178   0.26406   0.00000  Uiso   1.00
C118   C     0.82305   0.05588   0.26014   0.00000  Uiso   1.00
C119   C     0.84336   0.27798   0.24006   0.00000  Uiso   1.00
C120   C     0.75787   0.21116   0.49080   0.00000  Uiso   1.00
C121   C     0.85245   0.14835   0.12922   0.00000  Uiso   1.00
C122   C     0.81588   0.18520   0.37095   0.00000  Uiso   1.00
C123   C     0.91884   0.14344   0.01087   0.00000  Uiso   1.00
C124   C     0.86297   0.14259   0.08040   0.00000  Uiso   1.00
C125   C     0.76800   0.20527   0.44432   0.00000  Uiso   1.00
C126   C     0.78523   0.20135   0.01495   0.00000  Uiso   1.00
C127   C     0.82321   0.18323   0.49193   0.00000  Uiso   1.00
C128   C     0.83665   0.18401   0.44421   0.00000  Uiso   1.00
C129   C     0.84940   0.16582   0.01380   0.00000  Uiso   1.00
C130   C     0.89164   0.15832   0.48956   0.00000  Uiso   1.00
C131   C     0.90660   0.16604   0.44432   0.00000  Uiso   1.00
C132   C     0.87946   0.17823   0.42182   0.00000  Uiso   1.00
H133   H     0.98561   0.14026   0.29111   0.00000  Uiso   1.00
H134   H     0.68262   0.19390   0.20911   0.00000  Uiso   1.00
H135   H     0.87348   0.00380   0.21035   0.00000  Uiso   1.00
H136   H     0.79260   0.33131   0.29008   0.00000  Uiso   1.00
H137   H     0.93924   0.16174   0.42591   0.00000  Uiso   1.00
H138   H     0.95125   0.13826   0.49249   0.00000  Uiso   1.00
H139   H     0.80154   0.15414   0.07685   0.00000  Uiso   1.00
H140   H     0.74520   0.21201   0.42696   0.00000  Uiso   1.00
H141   H     0.72873   0.22443   0.00817   0.00000  Uiso   1.00
H142   H     0.89326   0.18455   0.38701   0.00000  Uiso   1.00
O143   O     0.83333   0.16667   0.25000   0.00000  Uiso   1.00
O144   O     0.82118   0.12637   0.15458   0.00000  Uiso   1.00
O145   O     0.79607   0.20391   0.34968   0.00000  Uiso   1.00
O146   O     0.87491   0.17759   0.14606   0.00000  Uiso   1.00
O147   O     0.84118   0.15880   0.34968   0.00000  Uiso   1.00
O148   O     0.84597   0.08019   0.28213   0.00000  Uiso   1.00
O149   O     0.81298   0.26085   0.27013   0.00000  Uiso   1.00
O150   O     0.74078   0.13291   0.23413   0.00000  Uiso   1.00
O151   O     0.93360   0.19272   0.21360   0.00000  Uiso   1.00
O152   O     0.73738   0.18878   0.28213   0.00000  Uiso   1.00
O153   O     0.92158   0.15226   0.27013   0.00000  Uiso   1.00
O154   O     0.80426   0.06944   0.23413   0.00000  Uiso   1.00
O155   O     0.87012   0.25620   0.21360   0.00000  Uiso   1.00
Zn156  Zn    0.86005   0.13994   0.28734   0.00000  Uiso   1.00
Zn157  Zn    0.80046   0.12458   0.21875   0.00000  Uiso   1.00
Zn158  Zn    0.87723   0.19775   0.20657   0.00000  Uiso   1.00
Zn159  Zn    0.79560   0.20439   0.28733   0.00000  Uiso   1.00
Br160  Br    0.27867   0.45378   0.08488   0.00000  Uiso   1.00
Br161  Br    0.10663   0.55783   0.07632   0.00000  Uiso   1.00
C162   C     0.05279   0.49310   0.26000   0.00000  Uiso   1.00
C163   C     0.16797   0.48728   0.05832   0.00000  Uiso   1.00
C164   C     0.23850   0.47014   0.05642   0.00000  Uiso   1.00
C165   C     0.28089   0.50718   0.23992   0.00000  Uiso   1.00
C166   C     0.14079   0.52560   0.42035   0.00000  Uiso   1.00
C167   C     0.32680   0.50982   0.23561   0.00000  Uiso   1.00
C168   C     0.00747   0.49083   0.26413   0.00000  Uiso   1.00
C169   C     0.18066   0.65590   0.23613   0.00000  Uiso   1.00
C170   C     0.15234   0.34512   0.26406   0.00000  Uiso   1.00
C171   C     0.15638   0.38921   0.26014   0.00000  Uiso   1.00
C172   C     0.17669   0.61131   0.24006   0.00000  Uiso   1.00
C173   C     0.09120   0.54450   0.49080   0.00000  Uiso   1.00
C174   C     0.18578   0.48169   0.12922   0.00000  Uiso   1.00
C175   C     0.14921   0.51853   0.37095   0.00000  Uiso   1.00
C176   C     0.25217   0.47677   0.01087   0.00000  Uiso   1.00
C177   C     0.19630   0.47593   0.08040   0.00000  Uiso   1.00
C178   C     0.10134   0.53860   0.44432   0.00000  Uiso   1.00
C179   C     0.11856   0.53469   0.01495   0.00000  Uiso   1.00
C180   C     0.15655   0.51656   0.49193   0.00000  Uiso   1.00
C181   C     0.16998   0.51734   0.44421   0.00000  Uiso   1.00
C182   C     0.18273   0.49915   0.01380   0.00000  Uiso   1.00
C183   C     0.22497   0.49165   0.48956   0.00000  Uiso   1.00
C184   C     0.23993   0.49937   0.44432   0.00000  Uiso   1.00
C185   C     0.21279   0.51157   0.42182   0.00000  Uiso   1.00
H186   H     0.31895   0.47359   0.29111   0.00000  Uiso   1.00
H187   H     0.01596   0.52723   0.20911   0.00000  Uiso   1.00
H188   H     0.20682   0.33714   0.21035   0.00000  Uiso   1.00
H189   H     0.12594   0.66464   0.29008   0.00000  Uiso   1.00
H190   H     0.27257   0.49508   0.42591   0.00000  Uiso   1.00
H191   H     0.28458   0.47160   0.49249   0.00000  Uiso   1.00
H192   H     0.13488   0.48748   0.07685   0.00000  Uiso   1.00
H193   H     0.07854   0.54534   0.42696   0.00000  Uiso   1.00
H194   H     0.06206   0.55776   0.00817   0.00000  Uiso   1.00
H195   H     0.22659   0.51788   0.38701   0.00000  Uiso   1.00
O196   O     0.16667   0.50000   0.25000   0.00000  Uiso   1.00
O197   O     0.15451   0.45970   0.15458   0.00000  Uiso   1.00
O198   O     0.12940   0.53724   0.34968   0.00000  Uiso   1.00
O199   O     0.20824   0.51092   0.14606   0.00000  Uiso   1.00
O200   O     0.17451   0.49213   0.34968   0.00000  Uiso   1.00
O201   O     0.17930   0.41352   0.28213   0.00000  Uiso   1.00
O202   O     0.14632   0.59418   0.27013   0.00000  Uiso   1.00
O203   O     0.07412   0.46625   0.23413   0.00000  Uiso   1.00
O204   O     0.26693   0.52605   0.21360   0.00000  Uiso   1.00
O205   O     0.07071   0.52211   0.28213   0.00000  Uiso   1.00
O206   O     0.25491   0.48559   0.27013   0.00000  Uiso   1.00
O207   O     0.13760   0.40277   0.23413   0.00000  Uiso   1.00
O208   O     0.20345   0.58953   0.21360   0.00000  Uiso   1.00
Zn209  Zn    0.19338   0.47327   0.28734   0.00000  Uiso   1.00
Zn210  Zn    0.13379   0.45791   0.21875   0.00000  Uiso   1.00
Zn211  Zn    0.21056   0.53109   0.20657   0.00000  Uiso   1.00
Zn212  Zn    0.12893   0.53773   0.28733   0.00000  Uiso   1.00
Br213  Br    0.61201   0.45378   0.08488   0.00000  Uiso   1.00
Br214  Br    0.43996   0.55783   0.07632   0.00000  Uiso   1.00
C215   C     0.38612   0.49310   0.26000   0.00000  Uiso   1.00
C216   C     0.50130   0.48728   0.05832   0.00000  Uiso   1.00
C217   C     0.57184   0.47014   0.05642   0.00000  Uiso   1.00
C218   C     0.61422   0.50718   0.23992   0.00000  Uiso   1.00
C219   C     0.47412   0.52560   0.42035   0.00000  Uiso   1.00
C220   C     0.66013   0.50982   0.23561   0.00000  Uiso   1.00
C221   C     0.34080   0.49083   0.26413   0.00000  Uiso   1.00
C222   C     0.51399   0.65590   0.23613   0.00000  Uiso   1.00
C223   C     0.48567   0.34512   0.26406   0.00000  Uiso   1.00
C224   C     0.48971   0.38921   0.26014   0.00000  Uiso   1.00
C225   C     0.51003   0.61131   0.24006   0.00000  Uiso   1.00
C226   C     0.42453   0.54450   0.49080   0.00000  Uiso   1.00
C227   C     0.51911   0.48169   0.12922   0.00000  Uiso   1.00
C228   C     0.48255   0.51853   0.37095   0.00000  Uiso   1.00
C229   C     0.58551   0.47677   0.01087   0.00000  Uiso   1.00
C230   C     0.52964   0.47593   0.08040   0.00000  Uiso   1.00
C231   C     0.43467   0.53860   0.44432   0.00000  Uiso   1.00
C232   C     0.45190   0.53469   0.01495   0.00000  Uiso   1.00
C233   C     0.48988   0.51656   0.49193   0.00000  Uiso   1.00
C234   C     0.50331   0.51734   0.44421   0.00000  Uiso   1.00
C235   C     0.51607   0.49915   0.01380   0.00000  Uiso   1.00
C236   C     0.55830   0.49165   0.48956   0.00000  Uiso   1.00
C237   C     0.57326   0.49937   0.44432   0.00000  Uiso   1.00
C238   C     0.54612   0.51157   0.42182   0.00000  Uiso   1.00
H239   H     0.65228   0.47359   0.29111   0.00000  Uiso   1.00
H240   H     0.34929   0.52723   0.20911   0.00000  Uiso   1.00
H241   H     0.54015   0.33714   0.21035   0.00000  Uiso   1.00
H242   H     0.45927   0.66464   0.29008   0.00000  Uiso   1.00
H243   H     0.60590   0.49508   0.42591   0.00000  Uiso   1.00
H244   H     0.61791   0.47160   0.49249   0.00000  Uiso   1.00
H245   H     0.46821   0.48748   0.07685   0.00000  Uiso   1.00
H246   H     0.41187   0.54534   0.42696   0.00000  Uiso   1.00
H247   H     0.39540   0.55776   0.00817   0.00000  Uiso   1.00
H248   H     0.55993   0.51788   0.38701   0.00000  Uiso   1.00
O249   O     0.50000   0.50000   0.25000   0.00000  Uiso   1.00
O250   O     0.48784   0.45970   0.15458   0.00000  Uiso   1.00
O251   O     0.46274   0.53724   0.34968   0.00000  Uiso   1.00
O252   O     0.54157   0.51092   0.14606   0.00000  Uiso   1.00
O253   O     0.50785   0.49213   0.34968   0.00000  Uiso   1.00
O254   O     0.51264   0.41352   0.28213   0.00000  Uiso   1.00
O255   O     0.47965   0.59418   0.27013   0.00000  Uiso   1.00
O256   O     0.40745   0.46625   0.23413   0.00000  Uiso   1.00
O257   O     0.60026   0.52605   0.21360   0.00000  Uiso   1.00
O258   O     0.40405   0.52211   0.28213   0.00000  Uiso   1.00
O259   O     0.58824   0.48559   0.27013   0.00000  Uiso   1.00
O260   O     0.47093   0.40277   0.23413   0.00000  Uiso   1.00
O261   O     0.53678   0.58953   0.21360   0.00000  Uiso   1.00
Zn262  Zn    0.52672   0.47327   0.28734   0.00000  Uiso   1.00
Zn263  Zn    0.46713   0.45791   0.21875   0.00000  Uiso   1.00
Zn264  Zn    0.54389   0.53109   0.20657   0.00000  Uiso   1.00
Zn265  Zn    0.46226   0.53773   0.28733   0.00000  Uiso   1.00
Br266  Br    0.94534   0.45378   0.08488   0.00000  Uiso   1.00
Br267  Br    0.77329   0.55783   0.07632   0.00000  Uiso   1.00
C268   C     0.71946   0.49310   0.26000   0.00000  Uiso   1.00
C269   C     0.83463   0.48728   0.05832   0.00000  Uiso   1.00
C270   C     0.90517   0.47014   0.05642   0.00000  Uiso   1.00
C271   C     0.94756   0.50718   0.23992   0.00000  Uiso   1.00
C272   C     0.80746   0.52560   0.42035   0.00000  Uiso   1.00
C273   C     0.99346   0.50982   0.23561   0.00000  Uiso   1.00
C274   C     0.67414   0.49083   0.26413   0.00000  Uiso   1.00
C275   C     0.84733   0.65590   0.23613   0.00000  Uiso   1.00
C276   C     0.81901   0.34512   0.26406   0.00000  Uiso   1.00
C277   C     0.82305   0.38921   0.26014   0.00000  Uiso   1.00
C278   C     0.84336   0.61131   0.24006   0.00000  Uiso   1.00
C279   C     0.75787   0.54450   0.49080   0.00000  Uiso   1.00
C280   C     0.85245   0.48169   0.12922   0.00000  Uiso   1.00
C281   C     0.81588   0.51853   0.37095   0.00000  Uiso   1.00
C282   C     0.91884   0.47677   0.01087   0.00000  Uiso   1.00
C283   C     0.86297   0.47593   0.08040   0.00000  Uiso   1.00
C284   C     0.76800   0.53860   0.44432   0.00000  Uiso   1.00
C285   C     0.78523   0.53469   0.01495   0.00000  Uiso   1.00
C286   C     0.82321   0.51656   0.49193   0.00000  Uiso   1.00
C287   C     0.83665   0.51734   0.44421   0.00000  Uiso   1.00
C288   C     0.84940   0.49915   0.01380   0.00000  Uiso   1.00
C289   C     0.89164   0.49165   0.48956   0.00000  Uiso   1.00
C290   C     0.90660   0.49937   0.44432   0.00000  Uiso   1.00
C291   C     0.87946   0.51157   0.42182   0.00000  Uiso   1.00
H292   H     0.98561   0.47359   0.29111   0.00000  Uiso   1.00
H293   H     0.68262   0.52723   0.20911   0.00000  Uiso   1.00
H294   H     0.87348   0.33714   0.21035   0.00000  Uiso   1.00
H295   H     0.79260   0.66464   0.29008   0.00000  Uiso   1.00
H296   H     0.93924   0.49508   0.42591   0.00000  Uiso   1.00
H297   H     0.95125   0.47160   0.49249   0.00000  Uiso   1.00
H298   H     0.80154   0.48748   0.07685   0.00000  Uiso   1.00
H299   H     0.74520   0.54534   0.42696   0.00000  Uiso   1.00
H300   H     0.72873   0.55776   0.00817   0.00000  Uiso   1.00
H301   H     0.89326   0.51788   0.38701   0.00000  Uiso   1.00
O302   O     0.83333   0.50000   0.25000   0.00000  Uiso   1.00
O303   O     0.82118   0.45970   0.15458   0.00000  Uiso   1.00
O304   O     0.79607   0.53724   0.34968   0.00000  Uiso   1.00
O305   O     0.87491   0.51092   0.14606   0.00000  Uiso   1.00
O306   O     0.84118   0.49213   0.34968   0.00000  Uiso   1.00
O307   O     0.84597   0.41352   0.28213   0.00000  Uiso   1.00
O308   O     0.81298   0.59418   0.27013   0.00000  Uiso   1.00
O309   O     0.74078   0.46625   0.23413   0.00000  Uiso   1.00
O310   O     0.93360   0.52605   0.21360   0.00000  Uiso   1.00
O311   O     0.73738   0.52211   0.28213   0.00000  Uiso   1.00
O312   O     0.92158   0.48559   0.27013   0.00000  Uiso   1.00
O313   O     0.80426   0.40277   0.23413   0.00000  Uiso   1.00
O314   O     0.87012   0.58953   0.21360   0.00000  Uiso   1.00
Zn315  Zn    0.86005   0.47327   0.28734   0.00000  Uiso   1.00
Zn316  Zn    0.80046   0.45791   0.21875   0.00000  Uiso   1.00
Zn317  Zn    0.87723   0.53109   0.20657   0.00000  Uiso   1.00
Zn318  Zn    0.79560   0.53773   0.28733   0.00000  Uiso   1.00
Br319  Br    0.27867   0.78711   0.08488   0.00000  Uiso   1.00
Br320  Br    0.10663   0.89116   0.07632   0.00000  Uiso   1.00
C321   C     0.05279   0.82644   0.26000   0.00000  Uiso   1.00
C322   C     0.16797   0.82061   0.05832   0.00000  Uiso   1.00
C323   C     0.23850   0.80347   0.05642   0.00000  Uiso   1.00
C324   C     0.28089   0.84051   0.23992   0.00000  Uiso   1.00
C325   C     0.14079   0.85893   0.42035   0.00000  Uiso   1.00
C326   C     0.32680   0.84316   0.23561   0.00000  Uiso   1.00
C327   C     0.00747   0.82416   0.26413   0.00000  Uiso   1.00
C328   C     0.18066   0.98923   0.23613   0.00000  Uiso   1.00
C329   C     0.15234   0.67845   0.26406   0.00000  Uiso   1.00
C330   C     0.15638   0.72254   0.26014   0.00000  Uiso   1.00
C331   C     0.17669   0.94465   0.24006   0.00000  Uiso   1.00
C332   C     0.09120   0.87783   0.49080   0.00000  Uiso   1.00
C333   C     0.18578   0.81502   0.12922   0.00000  Uiso   1.00
C334   C     0.14921   0.85186   0.37095   0.00000  Uiso   1.00
C335   C     0.25217   0.81010   0.01087   0.00000  Uiso   1.00
C336   C     0.19630   0.80926   0.08040   0.00000  Uiso   1.00
C337   C     0.10134   0.87194   0.44432   0.00000  Uiso   1.00
C338   C     0.11856   0.86802   0.01495   0.00000  Uiso   1.00
C339   C     0.15655   0.84989   0.49193   0.00000  Uiso   1.00
C340   C     0.16998   0.85068   0.44421   0.00000  Uiso   1.00
C341   C     0.18273   0.83249   0.01380   0.00000  Uiso   1.00
C342   C     0.22497   0.82498   0.48956   0.00000  Uiso   1.00
C343   C     0.23993   0.83271   0.44432   0.00000  Uiso   1.00
C344   C     0.21279   0.84490   0.42182   0.00000  Uiso   1.00
H345   H     0.31895   0.80693   0.29111   0.00000  Uiso   1.00
H346   H     0.01596   0.86056   0.20911   0.00000  Uiso   1.00
H347   H     0.20682   0.67047   0.21035   0.00000  Uiso   1.00
H348   H     0.12594   0.99797   0.29008   0.00000  Uiso   1.00
H349   H     0.27257   0.82841   0.42591   0.00000  Uiso   1.00
H350   H     0.28458   0.80493   0.49249   0.00000  Uiso   1.00
H351   H     0.13488   0.82081   0.07685   0.00000  Uiso   1.00
H352   H     0.07854   0.87867   0.42696   0.00000  Uiso   1.00
H353   H     0.06206   0.89109   0.00817   0.00000  Uiso   1.00
H354   H     0.22659   0.85121   0.38701   0.00000  Uiso   1.00
O355   O     0.16667   0.83333   0.25000   0.00000  Uiso   1.00
O356   O     0.15451   0.79304   0.15458   0.00000  Uiso   1.00
O357   O     0.12940   0.87058   0.34968   0.00000  Uiso   1.00
O358   O     0.20824   0.84425   0.14606   0.00000  Uiso   1.00
O359   O     0.17451   0.82546   0.34968   0.00000  Uiso   1.00
O360   O     0.17930   0.74686   0.28213   0.00000  Uiso   1.00
O361   O     0.14632   0.92751   0.27013   0.00000  Uiso   1.00
O362   O     0.07412   0.79958   0.23413   0.00000  Uiso   1.00
O363   O     0.26693   0.85939   0.21360   0.00000  Uiso   1.00
O364   O     0.07071   0.85544   0.28213   0.00000  Uiso   1.00
O365   O     0.25491   0.81892   0.27013   0.00000  Uiso   1.00
O366   O     0.13760   0.73610   0.23413   0.00000  Uiso   1.00
O367   O     0.20345   0.92286   0.21360   0.00000  Uiso   1.00
Zn368  Zn    0.19338   0.80661   0.28734   0.00000  Uiso   1.00
Zn369  Zn    0.13379   0.79124   0.21875   0.00000  Uiso   1.00
Zn370  Zn    0.21056   0.86442   0.20657   0.00000  Uiso   1.00
Zn371  Zn    0.12893   0.87106   0.28733   0.00000  Uiso   1.00
Br372  Br    0.61201   0.78711   0.08488   0.00000  Uiso   1.00
Br373  Br    0.43996   0.89116   0.07632   0.00000  Uiso   1.00
C374   C     0.38612   0.82644   0.26000   0.00000  Uiso   1.00
C375   C     0.50130   0.82061   0.05832   0.00000  Uiso   1.00
C376   C     0.57184   0.80347   0.05642   0.00000  Uiso   1.00
C377   C     0.61422   0.84051   0.23992   0.00000  Uiso   1.00
C378   C     0.47412   0.85893   0.42035   0.00000  Uiso   1.00
C379   C     0.66013   0.84316   0.23561   0.00000  Uiso   1.00
C380   C     0.34080   0.82416   0.26413   0.00000  Uiso   1.00
C381   C     0.51399   0.98923   0.23613   0.00000  Uiso   1.00
C382   C     0.48567   0.67845   0.26406   0.00000  Uiso   1.00
C383   C     0.48971   0.72254   0.26014   0.00000  Uiso   1.00
C384   C     0.51003   0.94465   0.24006   0.00000  Uiso   1.00
C385   C     0.42453   0.87783   0.49080   0.00000  Uiso   1.00
C386   C     0.51911   0.81502   0.12922   0.00000  Uiso   1.00
C387   C     0.48255   0.85186   0.37095   0.00000  Uiso   1.00
C388   C     0.58551   0.81010   0.01087   0.00000  Uiso   1.00
C389   C     0.52964   0.80926   0.08040   0.00000  Uiso   1.00
C390   C     0.43467   0.87194   0.44432   0.00000  Uiso   1.00
C391   C     0.45190   0.86802   0.01495   0.00000  Uiso   1.00
C392   C     0.48988   0.84989   0.49193   0.00000  Uiso   1.00
C393   C     0.50331   0.85068   0.44421   0.00000  Uiso   1.00
C394   C     0.51607   0.83249   0.01380   0.00000  Uiso   1.00
C395   C     0.55830   0.82498   0.48956   0.00000  Uiso   1.00
C396   C     0.57326   0.83271   0.44432   0.00000  Uiso   1.00
C397   C     0.54612   0.84490   0.42182   0.00000  Uiso   1.00
H398   H     0.65228   0.80693   0.29111   0.00000  Uiso   1.00
H399   H     0.34929   0.86056   0.20911   0.00000  Uiso   1.00
H400   H     0.54015   0.67047   0.21035   0.00000  Uiso   1.00
H401   H     0.45927   0.99797   0.29008   0.00000  Uiso   1.00
H402   H     0.60590   0.82841   0.42591   0.00000  Uiso   1.00
H403   H     0.61791   0.80493   0.49249   0.00000  Uiso   1.00
H404   H     0.46821   0.82081   0.07685   0.00000  Uiso   1.00
H405   H     0.41187   0.87867   0.42696   0.00000  Uiso   1.00
H406   H     0.39540   0.89109   0.00817   0.00000  Uiso   1.00
H407   H     0.55993   0.85121   0.38701   0.00000  Uiso   1.00
O408   O     0.50000   0.83333   0.25000   0.00000  Uiso   1.00
O409   O     0.48784   0.79304   0.15458   0.00000  Uiso   1.00
O410   O     0.46274   0.87058   0.34968   0.00000  Uiso   1.00
O411   O     0.54157   0.84425   0.14606   0.00000  Uiso   1.00
O412   O     0.50785   0.82546   0.34968   0.00000  Uiso   1.00
O413   O     0.51264   0.74686   0.28213   0.00000  Uiso   1.00
O414   O     0.47965   0.92751   0.27013   0.00000  Uiso   1.00
O415   O     0.40745   0.79958   0.23413   0.00000  Uiso   1.00
O416   O     0.60026   0.85939   0.21360   0.00000  Uiso   1.00
O417   O     0.40405   0.85544   0.28213   0.00000  Uiso   1.00
O418   O     0.58824   0.81892   0.27013   0.00000  Uiso   1.00
O419   O     0.47093   0.73610   0.23413   0.00000  Uiso   1.00
O420   O     0.53678   0.92286   0.21360   0.00000  Uiso   1.00
Zn421  Zn    0.52672   0.80661   0.28734   0.00000  Uiso   1.00
Zn422  Zn    0.46713   0.79124   0.21875   0.00000  Uiso   1.00
Zn423  Zn    0.54389   0.86442   0.20657   0.00000  Uiso   1.00
Zn424  Zn    0.46226   0.87106   0.28733   0.00000  Uiso   1.00
Br425  Br    0.94534   0.78711   0.08488   0.00000  Uiso   1.00
Br426  Br    0.77329   0.89116   0.07632   0.00000  Uiso   1.00
C427   C     0.71946   0.82644   0.26000   0.00000  Uiso   1.00
C428   C     0.83463   0.82061   0.05832   0.00000  Uiso   1.00
C429   C     0.90517   0.80347   0.05642   0.00000  Uiso   1.00
C430   C     0.94756   0.84051   0.23992   0.00000  Uiso   1.00
C431   C     0.80746   0.85893   0.42035   0.00000  Uiso   1.00
C432   C     0.99346   0.84316   0.23561   0.00000  Uiso   1.00
C433   C     0.67414   0.82416   0.26413   0.00000  Uiso   1.00
C434   C     0.84733   0.98923   0.23613   0.00000  Uiso   1.00
C435   C     0.81901   0.67845   0.26406   0.00000  Uiso   1.00
C436   C     0.82305   0.72254   0.26014   0.00000  Uiso   1.00
C437   C     0.84336   0.94465   0.24006   0.00000  Uiso   1.00
C438   C     0.75787   0.87783   0.49080   0.00000  Uiso   1.00
C439   C     0.85245   0.81502   0.12922   0.00000  Uiso   1.00
C440   C     0.81588   0.85186   0.37095   0.00000  Uiso   1.00
C441   C     0.91884   0.81010   0.01087   0.00000  Uiso   1.00
C442   C     0.86297   0.80926   0.08040   0.00000  Uiso   1.00
C443   C     0.76800   0.87194   0.44432   0.00000  Uiso   1.00
C444   C     0.78523   0.86802   0.01495   0.00000  Uiso   1.00
C445   C     0.82321   0.84989   0.49193   0.00000  Uiso   1.00
C446   C     0.83665   0.85068   0.44421   0.00000  Uiso   1.00
C447   C     0.84940   0.83249   0.01380   0.00000  Uiso   1.00
C448   C     0.89164   0.82498   0.48956   0.00000  Uiso   1.00
C449   C     0.90660   0.83271   0.44432   0.00000  Uiso   1.00
C450   C     0.87946   0.84490   0.42182   0.00000  Uiso   1.00
H451   H     0.98561   0.80693   0.29111   0.00000  Uiso   1.00
H452   H     0.68262   0.86056   0.20911   0.00000  Uiso   1.00
H453   H     0.87348   0.67047   0.21035   0.00000  Uiso   1.00
H454   H     0.79260   0.99797   0.29008   0.00000  Uiso   1.00
H455   H     0.93924   0.82841   0.42591   0.00000  Uiso   1.00
H456   H     0.95125   0.80493   0.49249   0.00000  Uiso   1.00
H457   H     0.80154   0.82081   0.07685   0.00000  Uiso   1.00
H458   H     0.74520   0.87867   0.42696   0.00000  Uiso   1.00
H459   H     0.72873   0.89109   0.00817   0.00000  Uiso   1.00
H460   H     0.89326   0.85121   0.38701   0.00000  Uiso   1.00
O461   O     0.83333   0.83333   0.25000   0.00000  Uiso   1.00
O462   O     0.82118   0.79304   0.15458   0.00000  Uiso   1.00
O463   O     0.79607   0.87058   0.34968   0.00000  Uiso   1.00
O464   O     0.87491   0.84425   0.14606   0.00000  Uiso   1.00
O465   O     0.84118   0.82546   0.34968   0.00000  Uiso   1.00
O466   O     0.84597   0.74686   0.28213   0.00000  Uiso   1.00
O467   O     0.81298   0.92751   0.27013   0.00000  Uiso   1.00
O468   O     0.74078   0.79958   0.23413   0.00000  Uiso   1.00
O469   O     0.93360   0.85939   0.21360   0.00000  Uiso   1.00
O470   O     0.73738   0.85544   0.28213   0.00000  Uiso   1.00
O471   O     0.92158   0.81892   0.27013   0.00000  Uiso   1.00
O472   O     0.80426   0.73610   0.23413   0.00000  Uiso   1.00
O473   O     0.87012   0.92286   0.21360   0.00000  Uiso   1.00
Zn474  Zn    0.86005   0.80661   0.28734   0.00000  Uiso   1.00
Zn475  Zn    0.80046   0.79124   0.21875   0.00000  Uiso   1.00
Zn476  Zn    0.87723   0.86442   0.20657   0.00000  Uiso   1.00
Zn477  Zn    0.79560   0.87106   0.28733   0.00000  Uiso   1.00
Br478  Br    0.27867   0.12045   0.58488   0.00000  Uiso   1.00
Br479  Br    0.10663   0.22449   0.57632   0.00000  Uiso   1.00
C480   C     0.05279   0.15977   0.76000   0.00000  Uiso   1.00
C481   C     0.16797   0.15395   0.55832   0.00000  Uiso   1.00
C482   C     0.23850   0.13681   0.55642   0.00000  Uiso   1.00
C483   C     0.28089   0.17385   0.73992   0.00000  Uiso   1.00
C484   C     0.14079   0.19227   0.92035   0.00000  Uiso   1.00
C485   C     0.32680   0.17649   0.73561   0.00000  Uiso   1.00
C486   C     0.00747   0.15750   0.76413   0.00000  Uiso   1.00
C487   C     0.18066   0.32256   0.73613   0.00000  Uiso   1.00
C488   C     0.15234   0.01178   0.76406   0.00000  Uiso   1.00
C489   C     0.15638   0.05588   0.76014   0.00000  Uiso   1.00
C490   C     0.17669   0.27798   0.74006   0.00000  Uiso   1.00
C491   C     0.09120   0.21116   0.99080   0.00000  Uiso   1.00
C492   C     0.18578   0.14835   0.62922   0.00000  Uiso   1.00
C493   C     0.14921   0.18520   0.87095   0.00000  Uiso   1.00
C494   C     0.25217   0.14344   0.51087   0.00000  Uiso   1.00
C495   C     0.19630   0.14259   0.58040   0.00000  Uiso   1.00
C496   C     0.10134   0.20527   0.94432   0.00000  Uiso   1.00
C497   C     0.11856   0.20135   0.51495   0.00000  Uiso   1.00
C498   C     0.15655   0.18323   0.99193   0.00000  Uiso   1.00
C499   C     0.16998   0.18401   0.94421   0.00000  Uiso   1.00
C500   C     0.18273   0.16582   0.51380   0.00000  Uiso   1.00
C501   C     0.22497   0.15832   0.98956   0.00000  Uiso   1.00
C502   C     0.23993   0.16604   0.94432   0.00000  Uiso   1.00
C503   C     0.21279   0.17823   0.92182   0.00000  Uiso   1.00
H504   H     0.31895   0.14026   0.79111   0.00000  Uiso   1.00
H505   H     0.01596   0.19390   0.70911   0.00000  Uiso   1.00
H506   H     0.20682   0.00380   0.71035   0.00000  Uiso   1.00
H507   H     0.12594   0.33131   0.79008   0.00000  Uiso   1.00
H508   H     0.27257   0.16174   0.92591   0.00000  Uiso   1.00
H509   H     0.28458   0.13826   0.99249   0.00000  Uiso   1.00
H510   H     0.13488   0.15414   0.57685   0.00000  Uiso   1.00
H511   H     0.07854   0.21201   0.92696   0.00000  Uiso   1.00
H512   H     0.06206   0.22443   0.50817   0.00000  Uiso   1.00
H513   H     0.22659   0.18455   0.88701   0.00000  Uiso   1.00
O514   O     0.16667   0.16667   0.75000   0.00000  Uiso   1.00
O515   O     0.15451   0.12637   0.65458   0.00000  Uiso   1.00
O516   O     0.12940   0.20391   0.84968   0.00000  Uiso   1.00
O517   O     0.20824   0.17759   0.64606   0.00000  Uiso   1.00
O518   O     0.17451   0.15880   0.84968   0.00000  Uiso   1.00
O519   O     0.17930   0.08019   0.78213   0.00000  Uiso   1.00
O520   O     0.14632   0.26085   0.77013   0.00000  Uiso   1.00
O521   O     0.07412   0.13291   0.73413   0.00000  Uiso   1.00
O522   O     0.26693   0.19272   0.71360   0.00000  Uiso   1.00
O523   O     0.07071   0.18878   0.78213   0.00000  Uiso   1.00
O524   O     0.25491   0.15226   0.77013   0.00000  Uiso   1.00
O525   O     0.13760   0.06944   0.73413   0.00000  Uiso   1.00
O526   O     0.20345   0.25620   0.71360   0.00000  Uiso   1.00
Zn527  Zn    0.19338   0.13994   0.78734   0.00000  Uiso   1.00
Zn528  Zn    0.13379   0.12458   0.71875   0.00000  Uiso   1.00
Zn529  Zn    0.21056   0.19775   0.70657   0.00000  Uiso   1.00
Zn530  Zn    0.12893   0.20439   0.78733   0.00000  Uiso   1.00
Br531  Br    0.61201   0.12045   0.58488   0.00000  Uiso   1.00
Br532  Br    0.43996   0.22449   0.57632   0.00000  Uiso   1.00
C533   C     0.38612   0.15977   0.76000   0.00000  Uiso   1.00
C534   C     0.50130   0.15395   0.55832   0.00000  Uiso   1.00
C535   C     0.57184   0.13681   0.55642   0.00000  Uiso   1.00
C536   C     0.61422   0.17385   0.73992   0.00000  Uiso   1.00
C537   C     0.47412   0.19227   0.92035   0.00000  Uiso   1.00
C538   C     0.66013   0.17649   0.73561   0.00000  Uiso   1.00
C539   C     0.34080   0.15750   0.76413   0.00000  Uiso   1.00
C540   C     0.51399   0.32256   0.73613   0.00000  Uiso   1.00
C541   C     0.48567   0.01178   0.76406   0.00000  Uiso   1.00
C542   C     0.48971   0.05588   0.76014   0.00000  Uiso   1.00
C543   C     0.51003   0.27798   0.74006   0.00000  Uiso   1.00
C544   C     0.42453   0.21116   0.99080   0.00000  Uiso   1.00
C545   C     0.51911   0.14835   0.62922   0.00000  Uiso   1.00
C546   C     0.48255   0.18520   0.87095   0.00000  Uiso   1.00
C547   C     0.58551   0.14344   0.51087   0.00000  Uiso   1.00
C548   C     0.52964   0.14259   0.58040   0.00000  Uiso   1.00
C549   C     0.43467   0.20527   0.94432   0.00000  Uiso   1.00
C550   C     0.45190   0.20135   0.51495   0.00000  Uiso   1.00
C551   C     0.48988   0.18323   0.99193   0.00000  Uiso   1.00
C552   C     0.50331   0.18401   0.94421   0.00000  Uiso   1.00
C553   C     0.51607   0.16582   0.51380   0.00000  Uiso   1.00
C554   C     0.55830   0.15832   0.98956   0.00000  Uiso   1.00
C555   C     0.57326   0.16604   0.94432   0.00000  Uiso   1.00
C556   C     0.54612   0.17823   0.92182   0.00000  Uiso   1.00
H557   H     0.65228   0.14026   0.79111   0.00000  Uiso   1.00
H558   H     0.34929   0.19390   0.70911   0.00000  Uiso   1.00
H559   H     0.54015   0.00380   0.71035   0.00000  Uiso   1.00
H560   H     0.45927   0.33131   0.79008   0.00000  Uiso   1.00
H561   H     0.60590   0.16174   0.92591   0.00000  Uiso   1.00
H562   H     0.61791   0.13826   0.99249   0.00000  Uiso   1.00
H563   H     0.46821   0.15414   0.57685   0.00000  Uiso   1.00
H564   H     0.41187   0.21201   0.92696   0.00000  Uiso   1.00
H565   H     0.39540   0.22443   0.50817   0.00000  Uiso   1.00
H566   H     0.55993   0.18455   0.88701   0.00000  Uiso   1.00
O567   O     0.50000   0.16667   0.75000   0.00000  Uiso   1.00
O568   O     0.48784   0.12637   0.65458   0.00000  Uiso   1.00
O569   O     0.46274   0.20391   0.84968   0.00000  Uiso   1.00
O570   O     0.54157   0.17759   0.64606   0.00000  Uiso   1.00
O571   O     0.50785   0.15880   0.84968   0.00000  Uiso   1.00
O572   O     0.51264   0.08019   0.78213   0.00000  Uiso   1.00
O573   O     0.47965   0.26085   0.77013   0.00000  Uiso   1.00
O574   O     0.40745   0.13291   0.73413   0.00000  Uiso   1.00
O575   O     0.60026   0.19272   0.71360   0.00000  Uiso   1.00
O576   O     0.40405   0.18878   0.78213   0.00000  Uiso   1.00
O577   O     0.58824   0.15226   0.77013   0.00000  Uiso   1.00
O578   O     0.47093   0.06944   0.73413   0.00000  Uiso   1.00
O579   O     0.53678   0.25620   0.71360   0.00000  Uiso   1.00
Zn580  Zn    0.52672   0.13994   0.78734   0.00000  Uiso   1.00
Zn581  Zn    0.46713   0.12458   0.71875   0.00000  Uiso   1.00
Zn582  Zn    0.54389   0.19775   0.70657   0.00000  Uiso   1.00
Zn583  Zn    0.46226   0.20439   0.78733   0.00000  Uiso   1.00
Br584  Br    0.94534   0.12045   0.58488   0.00000  Uiso   1.00
Br585  Br    0.77329   0.22449   0.57632   0.00000  Uiso   1.00
C586   C     0.71946   0.15977   0.76000   0.00000  Uiso   1.00
C587   C     0.83463   0.15395   0.55832   0.00000  Uiso   1.00
C588   C     0.90517   0.13681   0.55642   0.00000  Uiso   1.00
C589   C     0.94756   0.17385   0.73992   0.00000  Uiso   1.00
C590   C     0.80746   0.19227   0.92035   0.00000  Uiso   1.00
C591   C     0.99346   0.17649   0.73561   0.00000  Uiso   1.00
C592   C     0.67414   0.15750   0.76413   0.00000  Uiso   1.00
C593   C     0.84733   0.32256   0.73613   0.00000  Uiso   1.00
C594   C     0.81901   0.01178   0.76406   0.00000  Uiso   1.00
C595   C     0.82305   0.05588   0.76014   0.00000  Uiso   1.00
C596   C     0.84336   0.27798   0.74006   0.00000  Uiso   1.00
C597   C     0.75787   0.21116   0.99080   0.00000  Uiso   1.00
C598   C     0.85245   0.14835   0.62922   0.00000  Uiso   1.00
C599   C     0.81588   0.18520   0.87095   0.00000  Uiso   1.00
C600   C     0.91884   0.14344   0.51087   0.00000  Uiso   1.00
C601   C     0.86297   0.14259   0.58040   0.00000  Uiso   1.00
C602   C     0.76800   0.20527   0.94432   0.00000  Uiso   1.00
C603   C     0.78523   0.20135   0.51495   0.00000  Uiso   1.00
C604   C     0.82321   0.18323   0.99193   0.00000  Uiso   1.00
C605   C     0.83665   0.18401   0.94421   0.00000  Uiso   1.00
C606   C     0.84940   0.16582   0.51380   0.00000  Uiso   1.00
C607   C     0.89164   0.15832   0.98956   0.00000  Uiso   1.00
C608   C     0.90660   0.16604   0.94432   0.00000  Uiso   1.00
C609   C     0.87946   0.17823   0.92182   0.00000  Uiso   1.00
H610   H     0.98561   0.14026   0.79111   0.00000  Uiso   1.00
H611   H     0.68262   0.19390   0.70911   0.00000  Uiso   1.00
H612   H     0.87348   0.00380   0.71035   0.00000  Uiso   1.00
H613   H     0.79260   0.33131   0.79008   0.00000  Uiso   1.00
H614   H     0.93924   0.16174   0.92591   0.00000  Uiso   1.00
H615   H     0.95125   0.13826   0.99249   0.00000  Uiso   1.00
H616   H     0.80154   0.15414   0.57685   0.00000  Uiso   1.00
H617   H     0.74520   0.21201   0.92696   0.00000  Uiso   1.00
H618   H     0.72873   0.22443   0.50817   0.00000  Uiso   1.00
H619   H     0.89326   0.18455   0.88701   0.00000  Uiso   1.00
O620   O     0.83333   0.16667   0.75000   0.00000  Uiso   1.00
O621   O     0.82118   0.12637   0.65458   0.00000  Uiso   1.00
O622   O     0.79607   0.20391   0.84968   0.00000  Uiso   1.00
O623   O     0.87491   0.17759   0.64606   0.00000  Uiso   1.00
O624   O     0.84118   0.15880   0.84968   0.00000  Uiso   1.00
O625   O     0.84597   0.08019   0.78213   0.00000  Uiso   1.00
O626   O     0.81298   0.26085   0.77013   0.00000  Uiso   1.00
O627   O     0.74078   0.13291   0.73413   0.00000  Uiso   1.00
O628   O     0.93360   0.19272   0.71360   0.00000  Uiso   1.00
O629   O     0.73738   0.18878   0.78213   0.00000  Uiso   1.00
O630   O     0.92158   0.15226   0.77013   0.00000  Uiso   1.00
O631   O     0.80426   0.06944   0.73413   0.00000  Uiso   1.00
O632   O     0.87012   0.25620   0.71360   0.00000  Uiso   1.00
Zn633  Zn    0.86005   0.13994   0.78734   0.00000  Uiso   1.00
Zn634  Zn    0.80046   0.12458   0.71875   0.00000  Uiso   1.00
Zn635  Zn    0.87723   0.19775   0.70657   0.00000  Uiso   1.00
Zn636  Zn    0.79560   0.20439   0.78733   0.00000  Uiso   1.00
Br637  Br    0.27867   0.45378   0.58488   0.00000  Uiso   1.00
Br638  Br    0.10663   0.55783   0.57632   0.00000  Uiso   1.00
C639   C     0.05279   0.49310   0.76000   0.00000  Uiso   1.00
C640   C     0.16797   0.48728   0.55832   0.00000  Uiso   1.00
C641   C     0.23850   0.47014   0.55642   0.00000  Uiso   1.00
C642   C     0.28089   0.50718   0.73992   0.00000  Uiso   1.00
C643   C     0.14079   0.52560   0.92035   0.00000  Uiso   1.00
C644   C     0.32680   0.50982   0.73561   0.00000  Uiso   1.00
C645   C     0.00747   0.49083   0.76413   0.00000  Uiso   1.00
C646   C     0.18066   0.65590   0.73613   0.00000  Uiso   1.00
C647   C     0.15234   0.34512   0.76406   0.00000  Uiso   1.00
C648   C     0.15638   0.38921   0.76014   0.00000  Uiso   1.00
C649   C     0.17669   0.61131   0.74006   0.00000  Uiso   1.00
C650   C     0.09120   0.54450   0.99080   0.00000  Uiso   1.00
C651   C     0.18578   0.48169   0.62922   0.00000  Uiso   1.00
C652   C     0.14921   0.51853   0.87095   0.00000  Uiso   1.00
C653   C     0.25217   0.47677   0.51087   0.00000  Uiso   1.00
C654   C     0.19630   0.47593   0.58040   0.00000  Uiso   1.00
C655   C     0.10134   0.53860   0.94432   0.00000  Uiso   1.00
C656   C     0.11856   0.53469   0.51495   0.00000  Uiso   1.00
C657   C     0.15655   0.51656   0.99193   0.00000  Uiso   1.00
C658   C     0.16998   0.51734   0.94421   0.00000  Uiso   1.00
C659   C     0.18273   0.49915   0.51380   0.00000  Uiso   1.00
C660   C     0.22497   0.49165   0.98956   0.00000  Uiso   1.00
C661   C     0.23993   0.49937   0.94432   0.00000  Uiso   1.00
C662   C     0.21279   0.51157   0.92182   0.00000  Uiso   1.00
H663   H     0.31895   0.47359   0.79111   0.00000  Uiso   1.00
H664   H     0.01596   0.52723   0.70911   0.00000  Uiso   1.00
H665   H     0.20682   0.33714   0.71035   0.00000  Uiso   1.00
H666   H     0.12594   0.66464   0.79008   0.00000  Uiso   1.00
H667   H     0.27257   0.49508   0.92591   0.00000  Uiso   1.00
H668   H     0.28458   0.47160   0.99249   0.00000  Uiso   1.00
H669   H     0.13488   0.48748   0.57685   0.00000  Uiso   1.00
H670   H     0.07854   0.54534   0.92696   0.00000  Uiso   1.00
H671   H     0.06206   0.55776   0.50817   0.00000  Uiso   1.00
H672   H     0.22659   0.51788   0.88701   0.00000  Uiso   1.00
O673   O     0.16667   0.50000   0.75000   0.00000  Uiso   1.00
O674   O     0.15451   0.45970   0.65458   0.00000  Uiso   1.00
O675   O     0.12940   0.53724   0.84968   0.00000  Uiso   1.00
O676   O     0.20824   0.51092   0.64606   0.00000  Uiso   1.00
O677   O     0.17451   0.49213   0.84968   0.00000  Uiso   1.00
O678   O     0.17930   0.41352   0.78213   0.00000  Uiso   1.00
O679   O     0.14632   0.59418   0.77013   0.00000  Uiso   1.00
O680   O     0.07412   0.46625   0.73413   0.00000  Uiso   1.00
O681   O     0.26693   0.52605   0.71360   0.00000  Uiso   1.00
O682   O     0.07071   0.52211   0.78213   0.00000  Uiso   1.00
O683   O     0.25491   0.48559   0.77013   0.00000  Uiso   1.00
O684   O     0.13760   0.40277   0.73413   0.00000  Uiso   1.00
O685   O     0.20345   0.58953   0.71360   0.00000  Uiso   1.00
Zn686  Zn    0.19338   0.47327   0.78734   0.00000  Uiso   1.00
Zn687  Zn    0.13379   0.45791   0.71875   0.00000  Uiso   1.00
Zn688  Zn    0.21056   0.53109   0.70657   0.00000  Uiso   1.00
Zn689  Zn    0.12893   0.53773   0.78733   0.00000  Uiso   1.00
Br690  Br    0.61201   0.45378   0.58488   0.00000  Uiso   1.00
Br691  Br    0.43996   0.55783   0.57632   0.00000  Uiso   1.00
C692   C     0.38612   0.49310   0.76000   0.00000  Uiso   1.00
C693   C     0.50130   0.48728   0.55832   0.00000  Uiso   1.00
C694   C     0.57184   0.47014   0.55642   0.00000  Uiso   1.00
C695   C     0.61422   0.50718   0.73992   0.00000  Uiso   1.00
C696   C     0.47412   0.52560   0.92035   0.00000  Uiso   1.00
C697   C     0.66013   0.50982   0.73561   0.00000  Uiso   1.00
C698   C     0.34080   0.49083   0.76413   0.00000  Uiso   1.00
C699   C     0.51399   0.65590   0.73613   0.00000  Uiso   1.00
C700   C     0.48567   0.34512   0.76406   0.00000  Uiso   1.00
C701   C     0.48971   0.38921   0.76014   0.00000  Uiso   1.00
C702   C     0.51003   0.61131   0.74006   0.00000  Uiso   1.00
C703   C     0.42453   0.54450   0.99080   0.00000  Uiso   1.00
C704   C     0.51911   0.48169   0.62922   0.00000  Uiso   1.00
C705   C     0.48255   0.51853   0.87095   0.00000  Uiso   1.00
C706   C     0.58551   0.47677   0.51087   0.00000  Uiso   1.00
C707   C     0.52964   0.47593   0.58040   0.00000  Uiso   1.00
C708   C     0.43467   0.53860   0.94432   0.00000  Uiso   1.00
C709   C     0.45190   0.53469   0.51495   0.00000  Uiso   1.00
C710   C     0.48988   0.51656   0.99193   0.00000  Uiso   1.00
C711   C     0.50331   0.51734   0.94421   0.00000  Uiso   1.00
C712   C     0.51607   0.49915   0.51380   0.00000  Uiso   1.00
C713   C     0.55830   0.49165   0.98956   0.00000  Uiso   1.00
C714   C     0.57326   0.49937   0.94432   0.00000  Uiso   1.00
C715   C     0.54612   0.51157   0.92182   0.00000  Uiso   1.00
H716   H     0.65228   0.47359   0.79111   0.00000  Uiso   1.00
H717   H     0.34929   0.52723   0.70911   0.00000  Uiso   1.00
H718   H     0.54015   0.33714   0.71035   0.00000  Uiso   1.00
H719   H     0.45927   0.66464   0.79008   0.00000  Uiso   1.00
H720   H     0.60590   0.49508   0.92591   0.00000  Uiso   1.00
H721   H     0.61791   0.47160   0.99249   0.00000  Uiso   1.00
H722   H     0.46821   0.48748   0.57685   0.00000  Uiso   1.00
H723   H     0.41187   0.54534   0.92696   0.00000  Uiso   1.00
H724   H     0.39540   0.55776   0.50817   0.00000  Uiso   1.00
H725   H     0.55993   0.51788   0.88701   0.00000  Uiso   1.00
O726   O     0.50000   0.50000   0.75000   0.00000  Uiso   1.00
O727   O     0.48784   0.45970   0.65458   0.00000  Uiso   1.00
O728   O     0.46274   0.53724   0.84968   0.00000  Uiso   1.00
O729   O     0.54157   0.51092   0.64606   0.00000  Uiso   1.00
O730   O     0.50785   0.49213   0.84968   0.00000  Uiso   1.00
O731   O     0.51264   0.41352   0.78213   0.00000  Uiso   1.00
O732   O     0.47965   0.59418   0.77013   0.00000  Uiso   1.00
O733   O     0.40745   0.46625   0.73413   0.00000  Uiso   1.00
O734   O     0.60026   0.52605   0.71360   0.00000  Uiso   1.00
O735   O     0.40405   0.52211   0.78213   0.00000  Uiso   1.00
O736   O     0.58824   0.48559   0.77013   0.00000  Uiso   1.00
O737   O     0.47093   0.40277   0.73413   0.00000  Uiso   1.00
O738   O     0.53678   0.58953   0.71360   0.00000  Uiso   1.00
Zn739  Zn    0.52672   0.47327   0.78734   0.00000  Uiso   1.00
Zn740  Zn    0.46713   0.45791   0.71875   0.00000  Uiso   1.00
Zn741  Zn    0.54389   0.53109   0.70657   0.00000  Uiso   1.00
Zn742  Zn    0.46226   0.53773   0.78733   0.00000  Uiso   1.00
Br743  Br    0.94534   0.45378   0.58488   0.00000  Uiso   1.00
Br744  Br    0.77329   0.55783   0.57632   0.00000  Uiso   1.00
C745   C     0.71946   0.49310   0.76000   0.00000  Uiso   1.00
C746   C     0.83463   0.48728   0.55832   0.00000  Uiso   1.00
C747   C     0.90517   0.47014   0.55642   0.00000  Uiso   1.00
C748   C     0.94756   0.50718   0.73992   0.00000  Uiso   1.00
C749   C     0.80746   0.52560   0.92035   0.00000  Uiso   1.00
C750   C     0.99346   0.50982   0.73561   0.00000  Uiso   1.00
C751   C     0.67414   0.49083   0.76413   0.00000  Uiso   1.00
C752   C     0.84733   0.65590   0.73613   0.00000  Uiso   1.00
C753   C     0.81901   0.34512   0.76406   0.00000  Uiso   1.00
C754   C     0.82305   0.38921   0.76014   0.00000  Uiso   1.00
C755   C     0.84336   0.61131   0.74006   0.00000  Uiso   1.00
C756   C     0.75787   0.54450   0.99080   0.00000  Uiso   1.00
C757   C     0.85245   0.48169   0.62922   0.00000  Uiso   1.00
C758   C     0.81588   0.51853   0.87095   0.00000  Uiso   1.00
C759   C     0.91884   0.47677   0.51087   0.00000  Uiso   1.00
C760   C     0.86297   0.47593   0.58040   0.00000  Uiso   1.00
C761   C     0.76800   0.53860   0.94432   0.00000  Uiso   1.00
C762   C     0.78523   0.53469   0.51495   0.00000  Uiso   1.00
C763   C     0.82321   0.51656   0.99193   0.00000  Uiso   1.00
C764   C     0.83665   0.51734   0.94421   0.00000  Uiso   1.00
C765   C     0.84940   0.49915   0.51380   0.00000  Uiso   1.00
C766   C     0.89164   0.49165   0.98956   0.00000  Uiso   1.00
C767   C     0.90660   0.49937   0.94432   0.00000  Uiso   1.00
C768   C     0.87946   0.51157   0.92182   0.00000  Uiso   1.00
H769   H     0.98561   0.47359   0.79111   0.00000  Uiso   1.00
H770   H     0.68262   0.52723   0.70911   0.00000  Uiso   1.00
H771   H     0.87348   0.33714   0.71035   0.00000  Uiso   1.00
H772   H     0.79260   0.66464   0.79008   0.00000  Uiso   1.00
H773   H     0.93924   0.49508   0.92591   0.00000  Uiso   1.00
H774   H     0.95125   0.47160   0.99249   0.00000  Uiso   1.00
H775   H     0.80154   0.48748   0.57685   0.00000  Uiso   1.00
H776   H     0.74520   0.54534   0.92696   0.00000  Uiso   1.00
H777   H     0.72873   0.55776   0.50817   0.00000  Uiso   1.00
H778   H     0.89326   0.51788   0.88701   0.00000  Uiso   1.00
O779   O     0.83333   0.50000   0.75000   0.00000  Uiso   1.00
O780   O     0.82118   0.45970   0.65458   0.00000  Uiso   1.00
O781   O     0.79607   0.53724   0.84968   0.00000  Uiso   1.00
O782   O     0.87491   0.51092   0.64606   0.00000  Uiso   1.00
O783   O     0.84118   0.49213   0.84968   0.00000  Uiso   1.00
O784   O     0.84597   0.41352   0.78213   0.00000  Uiso   1.00
O785   O     0.81298   0.59418   0.77013   0.00000  Uiso   1.00
O786   O     0.74078   0.46625   0.73413   0.00000  Uiso   1.00
O787   O     0.93360   0.52605   0.71360   0.00000  Uiso   1.00
O788   O     0.73738   0.52211   0.78213   0.00000  Uiso   1.00
O789   O     0.92158   0.48559   0.77013   0.00000  Uiso   1.00
O790   O     0.80426   0.40277   0.73413   0.00000  Uiso   1.00
O791   O     0.87012   0.58953   0.71360   0.00000  Uiso   1.00
Zn792  Zn    0.86005   0.47327   0.78734   0.00000  Uiso   1.00
Zn793  Zn    0.80046   0.45791   0.71875   0.00000  Uiso   1.00
Zn794  Zn    0.87723   0.53109   0.70657   0.00000  Uiso   1.00
Zn795  Zn    0.79560   0.53773   0.78733   0.00000  Uiso   1.00
Br796  Br    0.27867   0.78711   0.58488   0.00000  Uiso   1.00
Br797  Br    0.10663   0.89116   0.57632   0.00000  Uiso   1.00
C798   C     0.05279   0.82644   0.76000   0.00000  Uiso   1.00
C799   C     0.16797   0.82061   0.55832   0.00000  Uiso   1.00
C800   C     0.23850   0.80347   0.55642   0.00000  Uiso   1.00
C801   C     0.28089   0.84051   0.73992   0.00000  Uiso   1.00
C802   C     0.14079   0.85893   0.92035   0.00000  Uiso   1.00
C803   C     0.32680   0.84316   0.73561   0.00000  Uiso   1.00
C804   C     0.00747   0.82416   0.76413   0.00000  Uiso   1.00
C805   C     0.18066   0.98923   0.73613   0.00000  Uiso   1.00
C806   C     0.15234   0.67845   0.76406   0.00000  Uiso   1.00
C807   C     0.15638   0.72254   0.76014   0.00000  Uiso   1.00
C808   C     0.17669   0.94465   0.74006   0.00000  Uiso   1.00
C809   C     0.09120   0.87783   0.99080   0.00000  Uiso   1.00
C810   C     0.18578   0.81502   0.62922   0.00000  Uiso   1.00
C811   C     0.14921   0.85186   0.87095   0.00000  Uiso   1.00
C812   C     0.25217   0.81010   0.51087   0.00000  Uiso   1.00
C813   C     0.19630   0.80926   0.58040   0.00000  Uiso   1.00
C814   C     0.10134   0.87194   0.94432   0.00000  Uiso   1.00
C815   C     0.11856   0.86802   0.51495   0.00000  Uiso   1.00
C816   C     0.15655   0.84989   0.99193   0.00000  Uiso   1.00
C817   C     0.16998   0.85068   0.94421   0.00000  Uiso   1.00
C818   C     0.18273   0.83249   0.51380   0.00000  Uiso   1.00
C819   C     0.22497   0.82498   0.98956   0.00000  Uiso   1.00
C820   C     0.23993   0.83271   0.94432   0.00000  Uiso   1.00
C821   C     0.21279   0.84490   0.92182   0.00000  Uiso   1.00
H822   H     0.31895   0.80693   0.79111   0.00000  Uiso   1.00
H823   H     0.01596   0.86056   0.70911   0.00000  Uiso   1.00
H824   H     0.20682   0.67047   0.71035   0.00000  Uiso   1.00
H825   H     0.12594   0.99797   0.79008   0.00000  Uiso   1.00
H826   H     0.27257   0.82841   0.92591   0.00000  Uiso   1.00
H827   H     0.28458   0.80493   0.99249   0.00000  Uiso   1.00
H828   H     0.13488   0.82081   0.57685   0.00000  Uiso   1.00
H829   H     0.07854   0.87867   0.92696   0.00000  Uiso   1.00
H830   H     0.06206   0.89109   0.50817   0.00000  Uiso   1.00
H831   H     0.22659   0.85121   0.88701   0.00000  Uiso   1.00
O832   O     0.16667   0.83333   0.75000   0.00000  Uiso   1.00
O833   O     0.15451   0.79304   0.65458   0.00000  Uiso   1.00
O834   O     0.12940   0.87058   0.84968   0.00000  Uiso   1.00
O835   O     0.20824   0.84425   0.64606   0.00000  Uiso   1.00
O836   O     0.17451   0.82546   0.84968   0.00000  Uiso   1.00
O837   O     0.17930   0.74686   0.78213   0.00000  Uiso   1.00
O838   O     0.14632   0.92751   0.77013   0.00000  Uiso   1.00
O839   O     0.07412   0.79958   0.73413   0.00000  Uiso   1.00
O840   O     0.26693   0.85939   0.71360   0.00000  Uiso   1.00
O841   O     0.07071   0.85544   0.78213   0.00000  Uiso   1.00
O842   O     0.25491   0.81892   0.77013   0.00000  Uiso   1.00
O843   O     0.13760   0.73610   0.73413   0.00000  Uiso   1.00
O844   O     0.20345   0.92286   0.71360   0.00000  Uiso   1.00
Zn845  Zn    0.19338   0.80661   0.78734   0.00000  Uiso   1.00
Zn846  Zn    0.13379   0.79124   0.71875   0.00000  Uiso   1.00
Zn847  Zn    0.21056   0.86442   0.70657   0.00000  Uiso   1.00
Zn848  Zn    0.12893   0.87106   0.78733   0.00000  Uiso   1.00
Br849  Br    0.61201   0.78711   0.58488   0.00000  Uiso   1.00
Br850  Br    0.43996   0.89116   0.57632   0.00000  Uiso   1.00
C851   C     0.38612   0.82644   0.76000   0.00000  Uiso   1.00
C852   C     0.50130   0.82061   0.55832   0.00000  Uiso   1.00
C853   C     0.57184   0.80347   0.55642   0.00000  Uiso   1.00
C854   C     0.61422   0.84051   0.73992   0.00000  Uiso   1.00
C855   C     0.47412   0.85893   0.92035   0.00000  Uiso   1.00
C856   C     0.66013   0.84316   0.73561   0.00000  Uiso   1.00
C857   C     0.34080   0.82416   0.76413   0.00000  Uiso   1.00
C858   C     0.51399   0.98923   0.73613   0.00000  Uiso   1.00
C859   C     0.48567   0.67845   0.76406   0.00000  Uiso   1.00
C860   C     0.48971   0.72254   0.76014   0.00000  Uiso   1.00
C861   C     0.51003   0.94465   0.74006   0.00000  Uiso   1.00
C862   C     0.42453   0.87783   0.99080   0.00000  Uiso   1.00
C863   C     0.51911   0.81502   0.62922   0.00000  Uiso   1.00
C864   C     0.48255   0.85186   0.87095   0.00000  Uiso   1.00
C865   C     0.58551   0.81010   0.51087   0.00000  Uiso   1.00
C866   C     0.52964   0.80926   0.58040   0.00000  Uiso   1.00
C867   C     0.43467   0.87194   0.94432   0.00000  Uiso   1.00
C868   C     0.45190   0.86802   0.51495   0.00000  Uiso   1.00
C869   C     0.48988   0.84989   0.99193   0.00000  Uiso   1.00
C870   C     0.50331   0.85068   0.94421   0.00000  Uiso   1.00
C871   C     0.51607   0.83249   0.51380   0.00000  Uiso   1.00
C872   C     0.55830   0.82498   0.98956   0.00000  Uiso   1.00
C873   C     0.57326   0.83271   0.94432   0.00000  Uiso   1.00
C874   C     0.54612   0.84490   0.92182   0.00000  Uiso   1.00
H875   H     0.65228   0.80693   0.79111   0.00000  Uiso   1.00
H876   H     0.34929   0.86056   0.70911   0.00000  Uiso   1.00
H877   H     0.54015   0.67047   0.71035   0.00000  Uiso   1.00
H878   H     0.45927   0.99797   0.79008   0.00000  Uiso   1.00
H879   H     0.60590   0.82841   0.92591   0.00000  Uiso   1.00
H880   H     0.61791   0.80493   0.99249   0.00000  Uiso   1.00
H881   H     0.46821   0.82081   0.57685   0.00000  Uiso   1.00
H882   H     0.41187   0.87867   0.92696   0.00000  Uiso   1.00
H883   H     0.39540   0.89109   0.50817   0.00000  Uiso   1.00
H884   H     0.55993   0.85121   0.88701   0.00000  Uiso   1.00
O885   O     0.50000   0.83333   0.75000   0.00000  Uiso   1.00
O886   O     0.48784   0.79304   0.65458   0.00000  Uiso   1.00
O887   O     0.46274   0.87058   0.84968   0.00000  Uiso   1.00
O888   O     0.54157   0.84425   0.64606   0.00000  Uiso   1.00
O889   O     0.50785   0.82546   0.84968   0.00000  Uiso   1.00
O890   O     0.51264   0.74686   0.78213   0.00000  Uiso   1.00
O891   O     0.47965   0.92751   0.77013   0.00000  Uiso   1.00
O892   O     0.40745   0.79958   0.73413   0.00000  Uiso   1.00
O893   O     0.60026   0.85939   0.71360   0.00000  Uiso   1.00
O894   O     0.40405   0.85544   0.78213   0.00000  Uiso   1.00
O895   O     0.58824   0.81892   0.77013   0.00000  Uiso   1.00
O896   O     0.47093   0.73610   0.73413   0.00000  Uiso   1.00
O897   O     0.53678   0.92286   0.71360   0.00000  Uiso   1.00
Zn898  Zn    0.52672   0.80661   0.78734   0.00000  Uiso   1.00
Zn899  Zn    0.46713   0.79124   0.71875   0.00000  Uiso   1.00
Zn900  Zn    0.54389   0.86442   0.70657   0.00000  Uiso   1.00
Zn901  Zn    0.46226   0.87106   0.78733   0.00000  Uiso   1.00
Br902  Br    0.94534   0.78711   0.58488   0.00000  Uiso   1.00
Br903  Br    0.77329   0.89116   0.57632   0.00000  Uiso   1.00
C904   C     0.71946   0.82644   0.76000   0.00000  Uiso   1.00
C905   C     0.83463   0.82061   0.55832   0.00000  Uiso   1.00
C906   C     0.90517   0.80347   0.55642   0.00000  Uiso   1.00
C907   C     0.94756   0.84051   0.73992   0.00000  Uiso   1.00
C908   C     0.80746   0.85893   0.92035   0.00000  Uiso   1.00
C909   C     0.99346   0.84316   0.73561   0.00000  Uiso   1.00
C910   C     0.67414   0.82416   0.76413   0.00000  Uiso   1.00
C911   C     0.84733   0.98923   0.73613   0.00000  Uiso   1.00
C912   C     0.81901   0.67845   0.76406   0.00000  Uiso   1.00
C913   C     0.82305   0.72254   0.76014   0.00000  Uiso   1.00
C914   C     0.84336   0.94465   0.74006   0.00000  Uiso   1.00
C915   C     0.75787   0.87783   0.99080   0.00000  Uiso   1.00
C916   C     0.85245   0.81502   0.62922   0.00000  Uiso   1.00
C917   C     0.81588   0.85186   0.87095   0.00000  Uiso   1.00
C918   C     0.91884   0.81010   0.51087   0.00000  Uiso   1.00
C919   C     0.86297   0.80926   0.58040   0.00000  Uiso   1.00
C920   C     0.76800   0.87194   0.94432   0.00000  Uiso   1.00
C921   C     0.78523   0.86802   0.51495   0.00000  Uiso   1.00
C922   C     0.82321   0.84989   0.99193   0.00000  Uiso   1.00
C923   C     0.83665   0.85068   0.94421   0.00000  Uiso   1.00
C924   C     0.84940   0.83249   0.51380   0.00000  Uiso   1.00
C925   C     0.89164   0.82498   0.98956   0.00000  Uiso   1.00
C926   C     0.90660   0.83271   0.94432   0.00000  Uiso   1.00
C927   C     0.87946   0.84490   0.92182   0.00000  Uiso   1.00
H928   H     0.98561   0.80693   0.79111   0.00000  Uiso   1.00
H929   H     0.68262   0.86056   0.70911   0.00000  Uiso   1.00
H930   H     0.87348   0.67047   0.71035   0.00000  Uiso   1.00
H931   H     0.79260   0.99797   0.79008   0.00000  Uiso   1.00
H932   H     0.93924   0.82841   0.92591   0.00000  Uiso   1.00
H933   H     0.95125   0.80493   0.99249   0.00000  Uiso   1.00
H934   H     0.80154   0.82081   0.57685   0.00000  Uiso   1.00
H935   H     0.74520   0.87867   0.92696   0.00000  Uiso   1.00
H936   H     0.72873   0.89109   0.50817   0.00000  Uiso   1.00
H937   H     0.89326   0.85121   0.88701   0.00000  Uiso   1.00
O938   O     0.83333   0.83333   0.75000   0.00000  Uiso   1.00
O939   O     0.82118   0.79304   0.65458   0.00000  Uiso   1.00
O940   O     0.79607   0.87058   0.84968   0.00000  Uiso   1.00
O941   O     0.87491   0.84425   0.64606   0.00000  Uiso   1.00
O942   O     0.84118   0.82546   0.84968   0.00000  Uiso   1.00
O943   O     0.84597   0.74686   0.78213   0.00000  Uiso   1.00
O944   O     0.81298   0.92751   0.77013   0.00000  Uiso   1.00
O945   O     0.74078   0.79958   0.73413   0.00000  Uiso   1.00
O946   O     0.93360   0.85939   0.71360   0.00000  Uiso   1.00
O947   O     0.73738   0.85544   0.78213   0.00000  Uiso   1.00
O948   O     0.92158   0.81892   0.77013   0.00000  Uiso   1.00
O949   O     0.80426   0.73610   0.73413   0.00000  Uiso   1.00
O950   O     0.87012   0.92286   0.71360   0.00000  Uiso   1.00
Zn951  Zn    0.86005   0.80661   0.78734   0.00000  Uiso   1.00
Zn952  Zn    0.80046   0.79124   0.71875   0.00000  Uiso   1.00
Zn953  Zn    0.87723   0.86442   0.70657   0.00000  Uiso   1.00
Zn954  Zn    0.79560   0.87106   0.78733   0.00000  Uiso   1.00
loop_
_geom_bond_atom_site_label_1
_geom_bond_atom_site_label_2
_geom_bond_distance
_geom_bond_site_symmetry_2
_ccdc_geom_bond_type
Br1    C5      1.921   .     S
Br2    C20     1.929   .     S
C3     C9      1.438   .     S
C3     O46     1.272   .     A
C3     O44     1.273   .     A
C4     C18     1.394   .     A
C4     C23     1.407   .     A
C4     H33     1.077   .     S
C5     C18     1.405   .     A
C5     C17     1.390   .     A
C6     C8      1.455   .     S
C6     O45     1.277   .     A
C6     O47     1.274   .     A
C7     C22     1.419   .     A
C7     C16     1.479   .     S
C7     C19     1.401   .     A
C8     C62     1.335   .     S
C8     H81     1.088   .     S
C9     C114    1.335   1_455 S
C9     H133    1.086   1_455 S
C10    C13     1.452   .     S
C10    C170    1.332   .     S
C10    H188    1.088   .     S
C11    C12     1.436   .     S
C11    C328    1.332   1_545 S
C11    H348    1.086   1_545 S
C12    O48     1.278   .     A
C12    O42     1.278   .     A
C13    O49     1.269   .     A
C13    O43     1.268   .     A
C14    C19     1.387   .     A
C14    C497    1.394   .     S
C14    H512    1.083   .     S
C15    C18     1.456   .     S
C15    O38     1.280   .     A
C15    O40     1.268   .     A
C16    O39     1.283   .     A
C16    O41     1.284   .     A
C17    C501    1.400   1_554 S
C17    H509    1.084   1_554 S
C19    H34     1.083   .     S
C20    C491    1.394   1_554 S
C20    C498    1.428   1_554 S
C21    C22     1.426   .     A
C21    C497    1.428   .     S
C21    C500    1.427   .     S
C22    C26     1.411   .     A
C23    C498    1.427   1_554 S
C23    C501    1.421   1_554 S
C24    C25     1.390   .     A
C24    C494    1.400   .     S
C24    C500    1.421   .     S
C25    H31     1.084   .     S
C25    C26     1.383   .     A
C26    H36     1.079   .     S
H27    C62     1.086   .     S
H28    C114    1.088   1_455 S
H29    C328    1.088   1_545 S
H30    C170    1.086   .     S
H32    C494    1.084   .     S
H35    C491    1.083   1_554 S
O37    Zn53    1.933   .     S
O37    Zn50    1.954   .     S
O37    Zn51    1.951   .     S
O37    Zn52    1.924   .     S
O38    Zn51    1.923   .     S
O39    Zn53    1.936   .     S
O40    Zn52    1.937   .     S
O41    Zn50    1.925   .     S
O42    Zn50    1.931   .     S
O43    Zn53    1.927   .     S
O44    Zn51    1.925   .     S
O45    Zn52    1.937   .     S
O46    Zn53    1.934   .     S
O47    Zn50    1.922   .     S
O48    Zn51    1.932   .     S
O49    Zn52    1.931   .     S
Br54   C58     1.921   .     S
Br55   C73     1.929   .     S
C56    C62     1.438   .     S
C56    O99     1.272   .     A
C56    O97     1.273   .     A
C57    C71     1.394   .     A
C57    C76     1.407   .     A
C57    H86     1.077   .     S
C58    C71     1.405   .     A
C58    C70     1.390   .     A
C59    C61     1.455   .     S
C59    O98     1.277   .     A
C59    O100    1.274   .     A
C60    C75     1.419   .     A
C60    C69     1.479   .     S
C60    C72     1.401   .     A
C61    C115    1.335   .     S
C61    H134    1.088   .     S
C63    C66     1.452   .     S
C63    C223    1.332   .     S
C63    H241    1.088   .     S
C64    C65     1.436   .     S
C64    C381    1.332   1_545 S
C64    H401    1.086   1_545 S
C65    O101    1.278   .     A
C65    O95     1.278   .     A
C66    O102    1.269   .     A
C66    O96     1.268   .     A
C67    C72     1.387   .     A
C67    C550    1.394   .     S
C67    H565    1.083   .     S
C68    C71     1.456   .     S
C68    O91     1.280   .     A
C68    O93     1.268   .     A
C69    O92     1.283   .     A
C69    O94     1.284   .     A
C70    C554    1.400   1_554 S
C70    H562    1.084   1_554 S
C72    H87     1.083   .     S
C73    C544    1.394   1_554 S
C73    C551    1.428   1_554 S
C74    C75     1.426   .     A
C74    C550    1.428   .     S
C74    C553    1.427   .     S
C75    C79     1.411   .     A
C76    C551    1.427   1_554 S
C76    C554    1.421   1_554 S
C77    C78     1.390   .     A
C77    C547    1.400   .     S
C77    C553    1.421   .     S
C78    H84     1.084   .     S
C78    C79     1.383   .     A
C79    H89     1.079   .     S
H80    C115    1.086   .     S
H82    C381    1.088   1_545 S
H83    C223    1.086   .     S
H85    C547    1.084   .     S
H88    C544    1.083   1_554 S
O90    Zn106   1.933   .     S
O90    Zn103   1.954   .     S
O90    Zn104   1.951   .     S
O90    Zn105   1.924   .     S
O91    Zn104   1.923   .     S
O92    Zn106   1.936   .     S
O93    Zn105   1.937   .     S
O94    Zn103   1.925   .     S
O95    Zn103   1.931   .     S
O96    Zn106   1.927   .     S
O97    Zn104   1.925   .     S
O98    Zn105   1.937   .     S
O99    Zn106   1.934   .     S
O100   Zn103   1.922   .     S
O101   Zn104   1.932   .     S
O102   Zn105   1.931   .     S
Br107  C111    1.921   .     S
Br108  C126    1.929   .     S
C109   C115    1.438   .     S
C109   O152    1.272   .     A
C109   O150    1.273   .     A
C110   C124    1.394   .     A
C110   C129    1.407   .     A
C110   H139    1.077   .     S
C111   C124    1.405   .     A
C111   C123    1.390   .     A
C112   C114    1.455   .     S
C112   O151    1.277   .     A
C112   O153    1.274   .     A
C113   C128    1.419   .     A
C113   C122    1.479   .     S
C113   C125    1.401   .     A
C114   C9      1.335   1_655 S
C114   H28     1.088   1_655 S
C116   C119    1.452   .     S
C116   C276    1.332   .     S
C116   H294    1.088   .     S
C117   C118    1.436   .     S
C117   C434    1.332   1_545 S
C117   H454    1.086   1_545 S
C118   O154    1.278   .     A
C118   O148    1.278   .     A
C119   O155    1.269   .     A
C119   O149    1.268   .     A
C120   C125    1.387   .     A
C120   C603    1.394   .     S
C120   H618    1.083   .     S
C121   C124    1.456   .     S
C121   O144    1.280   .     A
C121   O146    1.268   .     A
C122   O145    1.283   .     A
C122   O147    1.284   .     A
C123   C607    1.400   1_554 S
C123   H615    1.084   1_554 S
C125   H140    1.083   .     S
C126   C597    1.394   1_554 S
C126   C604    1.428   1_554 S
C127   C128    1.426   .     A
C127   C603    1.428   .     S
C127   C606    1.427   .     S
C128   C132    1.411   .     A
C129   C604    1.427   1_554 S
C129   C607    1.421   1_554 S
C130   C131    1.390   .     A
C130   C600    1.400   .     S
C130   C606    1.421   .     S
C131   H137    1.084   .     S
C131   C132    1.383   .     A
C132   H142    1.079   .     S
H133   C9      1.086   1_655 S
H135   C434    1.088   1_545 S
H136   C276    1.086   .     S
H138   C600    1.084   .     S
H141   C597    1.083   1_554 S
O143   Zn159   1.933   .     S
O143   Zn156   1.954   .     S
O143   Zn157   1.951   .     S
O143   Zn158   1.924   .     S
O144   Zn157   1.923   .     S
O145   Zn159   1.936   .     S
O146   Zn158   1.937   .     S
O147   Zn156   1.925   .     S
O148   Zn156   1.931   .     S
O149   Zn159   1.927   .     S
O150   Zn157   1.925   .     S
O151   Zn158   1.937   .     S
O152   Zn159   1.934   .     S
O153   Zn156   1.922   .     S
O154   Zn157   1.932   .     S
O155   Zn158   1.931   .     S
Br160  C164    1.921   .     S
Br161  C179    1.929   .     S
C162   C168    1.438   .     S
C162   O205    1.272   .     A
C162   O203    1.273   .     A
C163   C177    1.394   .     A
C163   C182    1.407   .     A
C163   H192    1.077   .     S
C164   C177    1.405   .     A
C164   C176    1.390   .     A
C165   C167    1.455   .     S
C165   O204    1.277   .     A
C165   O206    1.274   .     A
C166   C181    1.419   .     A
C166   C175    1.479   .     S
C166   C178    1.401   .     A
C167   C221    1.335   .     S
C167   H240    1.088   .     S
C168   C273    1.335   1_455 S
C168   H292    1.086   1_455 S
C169   C172    1.452   .     S
C169   C329    1.332   .     S
C169   H347    1.088   .     S
C170   C171    1.436   .     S
C171   O207    1.278   .     A
C171   O201    1.278   .     A
C172   O208    1.269   .     A
C172   O202    1.268   .     A
C173   C178    1.387   .     A
C173   C656    1.394   .     S
C173   H671    1.083   .     S
C174   C177    1.456   .     S
C174   O197    1.280   .     A
C174   O199    1.268   .     A
C175   O198    1.283   .     A
C175   O200    1.284   .     A
C176   C660    1.400   1_554 S
C176   H668    1.084   1_554 S
C178   H193    1.083   .     S
C179   C650    1.394   1_554 S
C179   C657    1.428   1_554 S
C180   C181    1.426   .     A
C180   C656    1.428   .     S
C180   C659    1.427   .     S
C181   C185    1.411   .     A
C182   C657    1.427   1_554 S
C182   C660    1.421   1_554 S
C183   C184    1.390   .     A
C183   C653    1.400   .     S
C183   C659    1.421   .     S
C184   H190    1.084   .     S
C184   C185    1.383   .     A
C185   H195    1.079   .     S
H186   C221    1.086   .     S
H187   C273    1.088   1_455 S
H189   C329    1.086   .     S
H191   C653    1.084   .     S
H194   C650    1.083   1_554 S
O196   Zn212   1.933   .     S
O196   Zn209   1.954   .     S
O196   Zn210   1.951   .     S
O196   Zn211   1.924   .     S
O197   Zn210   1.923   .     S
O198   Zn212   1.936   .     S
O199   Zn211   1.937   .     S
O200   Zn209   1.925   .     S
O201   Zn209   1.931   .     S
O202   Zn212   1.927   .     S
O203   Zn210   1.925   .     S
O204   Zn211   1.937   .     S
O205   Zn212   1.934   .     S
O206   Zn209   1.922   .     S
O207   Zn210   1.932   .     S
O208   Zn211   1.931   .     S
Br213  C217    1.921   .     S
Br214  C232    1.929   .     S
C215   C221    1.438   .     S
C215   O258    1.272   .     A
C215   O256    1.273   .     A
C216   C230    1.394   .     A
C216   C235    1.407   .     A
C216   H245    1.077   .     S
C217   C230    1.405   .     A
C217   C229    1.390   .     A
C218   C220    1.455   .     S
C218   O257    1.277   .     A
C218   O259    1.274   .     A
C219   C234    1.419   .     A
C219   C228    1.479   .     S
C219   C231    1.401   .     A
C220   C274    1.335   .     S
C220   H293    1.088   .     S
C222   C225    1.452   .     S
C222   C382    1.332   .     S
C222   H400    1.088   .     S
C223   C224    1.436   .     S
C224   O260    1.278   .     A
C224   O254    1.278   .     A
C225   O261    1.269   .     A
C225   O255    1.268   .     A
C226   C231    1.387   .     A
C226   C709    1.394   .     S
C226   H724    1.083   .     S
C227   C230    1.456   .     S
C227   O250    1.280   .     A
C227   O252    1.268   .     A
C228   O251    1.283   .     A
C228   O253    1.284   .     A
C229   C713    1.400   1_554 S
C229   H721    1.084   1_554 S
C231   H246    1.083   .     S
C232   C703    1.394   1_554 S
C232   C710    1.428   1_554 S
C233   C234    1.426   .     A
C233   C709    1.428   .     S
C233   C712    1.427   .     S
C234   C238    1.411   .     A
C235   C710    1.427   1_554 S
C235   C713    1.421   1_554 S
C236   C237    1.390   .     A
C236   C706    1.400   .     S
C236   C712    1.421   .     S
C237   H243    1.084   .     S
C237   C238    1.383   .     A
C238   H248    1.079   .     S
H239   C274    1.086   .     S
H242   C382    1.086   .     S
H244   C706    1.084   .     S
H247   C703    1.083   1_554 S
O249   Zn265   1.933   .     S
O249   Zn262   1.954   .     S
O249   Zn263   1.951   .     S
O249   Zn264   1.924   .     S
O250   Zn263   1.923   .     S
O251   Zn265   1.936   .     S
O252   Zn264   1.937   .     S
O253   Zn262   1.925   .     S
O254   Zn262   1.931   .     S
O255   Zn265   1.927   .     S
O256   Zn263   1.925   .     S
O257   Zn264   1.937   .     S
O258   Zn265   1.934   .     S
O259   Zn262   1.922   .     S
O260   Zn263   1.932   .     S
O261   Zn264   1.931   .     S
Br266  C270    1.921   .     S
Br267  C285    1.929   .     S
C268   C274    1.438   .     S
C268   O311    1.272   .     A
C268   O309    1.273   .     A
C269   C283    1.394   .     A
C269   C288    1.407   .     A
C269   H298    1.077   .     S
C270   C283    1.405   .     A
C270   C282    1.390   .     A
C271   C273    1.455   .     S
C271   O310    1.277   .     A
C271   O312    1.274   .     A
C272   C287    1.419   .     A
C272   C281    1.479   .     S
C272   C284    1.401   .     A
C273   C168    1.335   1_655 S
C273   H187    1.088   1_655 S
C275   C278    1.452   .     S
C275   C435    1.332   .     S
C275   H453    1.088   .     S
C276   C277    1.436   .     S
C277   O313    1.278   .     A
C277   O307    1.278   .     A
C278   O314    1.269   .     A
C278   O308    1.268   .     A
C279   C284    1.387   .     A
C279   C762    1.394   .     S
C279   H777    1.083   .     S
C280   C283    1.456   .     S
C280   O303    1.280   .     A
C280   O305    1.268   .     A
C281   O304    1.283   .     A
C281   O306    1.284   .     A
C282   C766    1.400   1_554 S
C282   H774    1.084   1_554 S
C284   H299    1.083   .     S
C285   C756    1.394   1_554 S
C285   C763    1.428   1_554 S
C286   C287    1.426   .     A
C286   C762    1.428   .     S
C286   C765    1.427   .     S
C287   C291    1.411   .     A
C288   C763    1.427   1_554 S
C288   C766    1.421   1_554 S
C289   C290    1.390   .     A
C289   C759    1.400   .     S
C289   C765    1.421   .     S
C290   H296    1.084   .     S
C290   C291    1.383   .     A
C291   H301    1.079   .     S
H292   C168    1.086   1_655 S
H295   C435    1.086   .     S
H297   C759    1.084   .     S
H300   C756    1.083   1_554 S
O302   Zn318   1.933   .     S
O302   Zn315   1.954   .     S
O302   Zn316   1.951   .     S
O302   Zn317   1.924   .     S
O303   Zn316   1.923   .     S
O304   Zn318   1.936   .     S
O305   Zn317   1.937   .     S
O306   Zn315   1.925   .     S
O307   Zn315   1.931   .     S
O308   Zn318   1.927   .     S
O309   Zn316   1.925   .     S
O310   Zn317   1.937   .     S
O311   Zn318   1.934   .     S
O312   Zn315   1.922   .     S
O313   Zn316   1.932   .     S
O314   Zn317   1.931   .     S
Br319  C323    1.921   .     S
Br320  C338    1.929   .     S
C321   C327    1.438   .     S
C321   O364    1.272   .     A
C321   O362    1.273   .     A
C322   C336    1.394   .     A
C322   C341    1.407   .     A
C322   H351    1.077   .     S
C323   C336    1.405   .     A
C323   C335    1.390   .     A
C324   C326    1.455   .     S
C324   O363    1.277   .     A
C324   O365    1.274   .     A
C325   C340    1.419   .     A
C325   C334    1.479   .     S
C325   C337    1.401   .     A
C326   C380    1.335   .     S
C326   H399    1.088   .     S
C327   C432    1.335   1_455 S
C327   H451    1.086   1_455 S
C328   C331    1.452   .     S
C328   C11     1.332   1_565 S
C328   H29     1.088   1_565 S
C329   C330    1.436   .     S
C330   O366    1.278   .     A
C330   O360    1.278   .     A
C331   O367    1.269   .     A
C331   O361    1.268   .     A
C332   C337    1.387   .     A
C332   C815    1.394   .     S
C332   H830    1.083   .     S
C333   C336    1.456   .     S
C333   O356    1.280   .     A
C333   O358    1.268   .     A
C334   O357    1.283   .     A
C334   O359    1.284   .     A
C335   C819    1.400   1_554 S
C335   H827    1.084   1_554 S
C337   H352    1.083   .     S
C338   C809    1.394   1_554 S
C338   C816    1.428   1_554 S
C339   C340    1.426   .     A
C339   C815    1.428   .     S
C339   C818    1.427   .     S
C340   C344    1.411   .     A
C341   C816    1.427   1_554 S
C341   C819    1.421   1_554 S
C342   C343    1.390   .     A
C342   C812    1.400   .     S
C342   C818    1.421   .     S
C343   H349    1.084   .     S
C343   C344    1.383   .     A
C344   H354    1.079   .     S
H345   C380    1.086   .     S
H346   C432    1.088   1_455 S
H348   C11     1.086   1_565 S
H350   C812    1.084   .     S
H353   C809    1.083   1_554 S
O355   Zn371   1.933   .     S
O355   Zn368   1.954   .     S
O355   Zn369   1.951   .     S
O355   Zn370   1.924   .     S
O356   Zn369   1.923   .     S
O357   Zn371   1.936   .     S
O358   Zn370   1.937   .     S
O359   Zn368   1.925   .     S
O360   Zn368   1.931   .     S
O361   Zn371   1.927   .     S
O362   Zn369   1.925   .     S
O363   Zn370   1.937   .     S
O364   Zn371   1.934   .     S
O365   Zn368   1.922   .     S
O366   Zn369   1.932   .     S
O367   Zn370   1.931   .     S
Br372  C376    1.921   .     S
Br373  C391    1.929   .     S
C374   C380    1.438   .     S
C374   O417    1.272   .     A
C374   O415    1.273   .     A
C375   C389    1.394   .     A
C375   C394    1.407   .     A
C375   H404    1.077   .     S
C376   C389    1.405   .     A
C376   C388    1.390   .     A
C377   C379    1.455   .     S
C377   O416    1.277   .     A
C377   O418    1.274   .     A
C378   C393    1.419   .     A
C378   C387    1.479   .     S
C378   C390    1.401   .     A
C379   C433    1.335   .     S
C379   H452    1.088   .     S
C381   C384    1.452   .     S
C381   C64     1.332   1_565 S
C381   H82     1.088   1_565 S
C382   C383    1.436   .     S
C383   O419    1.278   .     A
C383   O413    1.278   .     A
C384   O420    1.269   .     A
C384   O414    1.268   .     A
C385   C390    1.387   .     A
C385   C868    1.394   .     S
C385   H883    1.083   .     S
C386   C389    1.456   .     S
C386   O409    1.280   .     A
C386   O411    1.268   .     A
C387   O410    1.283   .     A
C387   O412    1.284   .     A
C388   C872    1.400   1_554 S
C388   H880    1.084   1_554 S
C390   H405    1.083   .     S
C391   C862    1.394   1_554 S
C391   C869    1.428   1_554 S
C392   C393    1.426   .     A
C392   C868    1.428   .     S
C392   C871    1.427   .     S
C393   C397    1.411   .     A
C394   C869    1.427   1_554 S
C394   C872    1.421   1_554 S
C395   C396    1.390   .     A
C395   C865    1.400   .     S
C395   C871    1.421   .     S
C396   H402    1.084   .     S
C396   C397    1.383   .     A
C397   H407    1.079   .     S
H398   C433    1.086   .     S
H401   C64     1.086   1_565 S
H403   C865    1.084   .     S
H406   C862    1.083   1_554 S
O408   Zn424   1.933   .     S
O408   Zn421   1.954   .     S
O408   Zn422   1.951   .     S
O408   Zn423   1.924   .     S
O409   Zn422   1.923   .     S
O410   Zn424   1.936   .     S
O411   Zn423   1.937   .     S
O412   Zn421   1.925   .     S
O413   Zn421   1.931   .     S
O414   Zn424   1.927   .     S
O415   Zn422   1.925   .     S
O416   Zn423   1.937   .     S
O417   Zn424   1.934   .     S
O418   Zn421   1.922   .     S
O419   Zn422   1.932   .     S
O420   Zn423   1.931   .     S
Br425  C429    1.921   .     S
Br426  C444    1.929   .     S
C427   C433    1.438   .     S
C427   O470    1.272   .     A
C427   O468    1.273   .     A
C428   C442    1.394   .     A
C428   C447    1.407   .     A
C428   H457    1.077   .     S
C429   C442    1.405   .     A
C429   C441    1.390   .     A
C430   C432    1.455   .     S
C430   O469    1.277   .     A
C430   O471    1.274   .     A
C431   C446    1.419   .     A
C431   C440    1.479   .     S
C431   C443    1.401   .     A
C432   C327    1.335   1_655 S
C432   H346    1.088   1_655 S
C434   C437    1.452   .     S
C434   C117    1.332   1_565 S
C434   H135    1.088   1_565 S
C435   C436    1.436   .     S
C436   O472    1.278   .     A
C436   O466    1.278   .     A
C437   O473    1.269   .     A
C437   O467    1.268   .     A
C438   C443    1.387   .     A
C438   C921    1.394   .     S
C438   H936    1.083   .     S
C439   C442    1.456   .     S
C439   O462    1.280   .     A
C439   O464    1.268   .     A
C440   O463    1.283   .     A
C440   O465    1.284   .     A
C441   C925    1.400   1_554 S
C441   H933    1.084   1_554 S
C443   H458    1.083   .     S
C444   C915    1.394   1_554 S
C444   C922    1.428   1_554 S
C445   C446    1.426   .     A
C445   C921    1.428   .     S
C445   C924    1.427   .     S
C446   C450    1.411   .     A
C447   C922    1.427   1_554 S
C447   C925    1.421   1_554 S
C448   C449    1.390   .     A
C448   C918    1.400   .     S
C448   C924    1.421   .     S
C449   H455    1.084   .     S
C449   C450    1.383   .     A
C450   H460    1.079   .     S
H451   C327    1.086   1_655 S
H454   C117    1.086   1_565 S
H456   C918    1.084   .     S
H459   C915    1.083   1_554 S
O461   Zn477   1.933   .     S
O461   Zn474   1.954   .     S
O461   Zn475   1.951   .     S
O461   Zn476   1.924   .     S
O462   Zn475   1.923   .     S
O463   Zn477   1.936   .     S
O464   Zn476   1.937   .     S
O465   Zn474   1.925   .     S
O466   Zn474   1.931   .     S
O467   Zn477   1.927   .     S
O468   Zn475   1.925   .     S
O469   Zn476   1.937   .     S
O470   Zn477   1.934   .     S
O471   Zn474   1.922   .     S
O472   Zn475   1.932   .     S
O473   Zn476   1.931   .     S
Br478  C482    1.921   .     S
Br479  C497    1.929   .     S
C480   C486    1.438   .     S
C480   O523    1.272   .     A
C480   O521    1.273   .     A
C481   C495    1.394   .     A
C481   C500    1.407   .     A
C481   H510    1.077   .     S
C482   C495    1.405   .     A
C482   C494    1.390   .     A
C483   C485    1.455   .     S
C483   O522    1.277   .     A
C483   O524    1.274   .     A
C484   C499    1.419   .     A
C484   C493    1.479   .     S
C484   C496    1.401   .     A
C485   C539    1.335   .     S
C485   H558    1.088   .     S
C486   C591    1.335   1_455 S
C486   H610    1.086   1_455 S
C487   C490    1.452   .     S
C487   C647    1.332   .     S
C487   H665    1.088   .     S
C488   C489    1.436   .     S
C488   C805    1.332   1_545 S
C488   H825    1.086   1_545 S
C489   O525    1.278   .     A
C489   O519    1.278   .     A
C490   O526    1.269   .     A
C490   O520    1.268   .     A
C491   C496    1.387   .     A
C491   C20     1.394   1_556 S
C491   H35     1.083   1_556 S
C492   C495    1.456   .     S
C492   O515    1.280   .     A
C492   O517    1.268   .     A
C493   O516    1.283   .     A
C493   O518    1.284   .     A
C496   H511    1.083   .     S
C498   C499    1.426   .     A
C498   C20     1.428   1_556 S
C498   C23     1.427   1_556 S
C499   C503    1.411   .     A
C501   C502    1.390   .     A
C501   C17     1.400   1_556 S
C501   C23     1.421   1_556 S
C502   H508    1.084   .     S
C502   C503    1.383   .     A
C503   H513    1.079   .     S
H504   C539    1.086   .     S
H505   C591    1.088   1_455 S
H506   C805    1.088   1_545 S
H507   C647    1.086   .     S
H509   C17     1.084   1_556 S
O514   Zn530   1.933   .     S
O514   Zn527   1.954   .     S
O514   Zn528   1.951   .     S
O514   Zn529   1.924   .     S
O515   Zn528   1.923   .     S
O516   Zn530   1.936   .     S
O517   Zn529   1.937   .     S
O518   Zn527   1.925   .     S
O519   Zn527   1.931   .     S
O520   Zn530   1.927   .     S
O521   Zn528   1.925   .     S
O522   Zn529   1.937   .     S
O523   Zn530   1.934   .     S
O524   Zn527   1.922   .     S
O525   Zn528   1.932   .     S
O526   Zn529   1.931   .     S
Br531  C535    1.921   .     S
Br532  C550    1.929   .     S
C533   C539    1.438   .     S
C533   O576    1.272   .     A
C533   O574    1.273   .     A
C534   C548    1.394   .     A
C534   C553    1.407   .     A
C534   H563    1.077   .     S
C535   C548    1.405   .     A
C535   C547    1.390   .     A
C536   C538    1.455   .     S
C536   O575    1.277   .     A
C536   O577    1.274   .     A
C537   C552    1.419   .     A
C537   C546    1.479   .     S
C537   C549    1.401   .     A
C538   C592    1.335   .     S
C538   H611    1.088   .     S
C540   C543    1.452   .     S
C540   C700    1.332   .     S
C540   H718    1.088   .     S
C541   C542    1.436   .     S
C541   C858    1.332   1_545 S
C541   H878    1.086   1_545 S
C542   O578    1.278   .     A
C542   O572    1.278   .     A
C543   O579    1.269   .     A
C543   O573    1.268   .     A
C544   C549    1.387   .     A
C544   C73     1.394   1_556 S
C544   H88     1.083   1_556 S
C545   C548    1.456   .     S
C545   O568    1.280   .     A
C545   O570    1.268   .     A
C546   O569    1.283   .     A
C546   O571    1.284   .     A
C549   H564    1.083   .     S
C551   C552    1.426   .     A
C551   C73     1.428   1_556 S
C551   C76     1.427   1_556 S
C552   C556    1.411   .     A
C554   C555    1.390   .     A
C554   C70     1.400   1_556 S
C554   C76     1.421   1_556 S
C555   H561    1.084   .     S
C555   C556    1.383   .     A
C556   H566    1.079   .     S
H557   C592    1.086   .     S
H559   C858    1.088   1_545 S
H560   C700    1.086   .     S
H562   C70     1.084   1_556 S
O567   Zn583   1.933   .     S
O567   Zn580   1.954   .     S
O567   Zn581   1.951   .     S
O567   Zn582   1.924   .     S
O568   Zn581   1.923   .     S
O569   Zn583   1.936   .     S
O570   Zn582   1.937   .     S
O571   Zn580   1.925   .     S
O572   Zn580   1.931   .     S
O573   Zn583   1.927   .     S
O574   Zn581   1.925   .     S
O575   Zn582   1.937   .     S
O576   Zn583   1.934   .     S
O577   Zn580   1.922   .     S
O578   Zn581   1.932   .     S
O579   Zn582   1.931   .     S
Br584  C588    1.921   .     S
Br585  C603    1.929   .     S
C586   C592    1.438   .     S
C586   O629    1.272   .     A
C586   O627    1.273   .     A
C587   C601    1.394   .     A
C587   C606    1.407   .     A
C587   H616    1.077   .     S
C588   C601    1.405   .     A
C588   C600    1.390   .     A
C589   C591    1.455   .     S
C589   O628    1.277   .     A
C589   O630    1.274   .     A
C590   C605    1.419   .     A
C590   C599    1.479   .     S
C590   C602    1.401   .     A
C591   C486    1.335   1_655 S
C591   H505    1.088   1_655 S
C593   C596    1.452   .     S
C593   C753    1.332   .     S
C593   H771    1.088   .     S
C594   C595    1.436   .     S
C594   C911    1.332   1_545 S
C594   H931    1.086   1_545 S
C595   O631    1.278   .     A
C595   O625    1.278   .     A
C596   O632    1.269   .     A
C596   O626    1.268   .     A
C597   C602    1.387   .     A
C597   C126    1.394   1_556 S
C597   H141    1.083   1_556 S
C598   C601    1.456   .     S
C598   O621    1.280   .     A
C598   O623    1.268   .     A
C599   O622    1.283   .     A
C599   O624    1.284   .     A
C602   H617    1.083   .     S
C604   C605    1.426   .     A
C604   C126    1.428   1_556 S
C604   C129    1.427   1_556 S
C605   C609    1.411   .     A
C607   C608    1.390   .     A
C607   C123    1.400   1_556 S
C607   C129    1.421   1_556 S
C608   H614    1.084   .     S
C608   C609    1.383   .     A
C609   H619    1.079   .     S
H610   C486    1.086   1_655 S
H612   C911    1.088   1_545 S
H613   C753    1.086   .     S
H615   C123    1.084   1_556 S
O620   Zn636   1.933   .     S
O620   Zn633   1.954   .     S
O620   Zn634   1.951   .     S
O620   Zn635   1.924   .     S
O621   Zn634   1.923   .     S
O622   Zn636   1.936   .     S
O623   Zn635   1.937   .     S
O624   Zn633   1.925   .     S
O625   Zn633   1.931   .     S
O626   Zn636   1.927   .     S
O627   Zn634   1.925   .     S
O628   Zn635   1.937   .     S
O629   Zn636   1.934   .     S
O630   Zn633   1.922   .     S
O631   Zn634   1.932   .     S
O632   Zn635   1.931   .     S
Br637  C641    1.921   .     S
Br638  C656    1.929   .     S
C639   C645    1.438   .     S
C639   O682    1.272   .     A
C639   O680    1.273   .     A
C640   C654    1.394   .     A
C640   C659    1.407   .     A
C640   H669    1.077   .     S
C641   C654    1.405   .     A
C641   C653    1.390   .     A
C642   C644    1.455   .     S
C642   O681    1.277   .     A
C642   O683    1.274   .     A
C643   C658    1.419   .     A
C643   C652    1.479   .     S
C643   C655    1.401   .     A
C644   C698    1.335   .     S
C644   H717    1.088   .     S
C645   C750    1.335   1_455 S
C645   H769    1.086   1_455 S
C646   C649    1.452   .     S
C646   C806    1.332   .     S
C646   H824    1.088   .     S
C647   C648    1.436   .     S
C648   O684    1.278   .     A
C648   O678    1.278   .     A
C649   O685    1.269   .     A
C649   O679    1.268   .     A
C650   C655    1.387   .     A
C650   C179    1.394   1_556 S
C650   H194    1.083   1_556 S
C651   C654    1.456   .     S
C651   O674    1.280   .     A
C651   O676    1.268   .     A
C652   O675    1.283   .     A
C652   O677    1.284   .     A
C655   H670    1.083   .     S
C657   C658    1.426   .     A
C657   C179    1.428   1_556 S
C657   C182    1.427   1_556 S
C658   C662    1.411   .     A
C660   C661    1.390   .     A
C660   C176    1.400   1_556 S
C660   C182    1.421   1_556 S
C661   H667    1.084   .     S
C661   C662    1.383   .     A
C662   H672    1.079   .     S
H663   C698    1.086   .     S
H664   C750    1.088   1_455 S
H666   C806    1.086   .     S
H668   C176    1.084   1_556 S
O673   Zn689   1.933   .     S
O673   Zn686   1.954   .     S
O673   Zn687   1.951   .     S
O673   Zn688   1.924   .     S
O674   Zn687   1.923   .     S
O675   Zn689   1.936   .     S
O676   Zn688   1.937   .     S
O677   Zn686   1.925   .     S
O678   Zn686   1.931   .     S
O679   Zn689   1.927   .     S
O680   Zn687   1.925   .     S
O681   Zn688   1.937   .     S
O682   Zn689   1.934   .     S
O683   Zn686   1.922   .     S
O684   Zn687   1.932   .     S
O685   Zn688   1.931   .     S
Br690  C694    1.921   .     S
Br691  C709    1.929   .     S
C692   C698    1.438   .     S
C692   O735    1.272   .     A
C692   O733    1.273   .     A
C693   C707    1.394   .     A
C693   C712    1.407   .     A
C693   H722    1.077   .     S
C694   C707    1.405   .     A
C694   C706    1.390   .     A
C695   C697    1.455   .     S
C695   O734    1.277   .     A
C695   O736    1.274   .     A
C696   C711    1.419   .     A
C696   C705    1.479   .     S
C696   C708    1.401   .     A
C697   C751    1.335   .     S
C697   H770    1.088   .     S
C699   C702    1.452   .     S
C699   C859    1.332   .     S
C699   H877    1.088   .     S
C700   C701    1.436   .     S
C701   O737    1.278   .     A
C701   O731    1.278   .     A
C702   O738    1.269   .     A
C702   O732    1.268   .     A
C703   C708    1.387   .     A
C703   C232    1.394   1_556 S
C703   H247    1.083   1_556 S
C704   C707    1.456   .     S
C704   O727    1.280   .     A
C704   O729    1.268   .     A
C705   O728    1.283   .     A
C705   O730    1.284   .     A
C708   H723    1.083   .     S
C710   C711    1.426   .     A
C710   C232    1.428   1_556 S
C710   C235    1.427   1_556 S
C711   C715    1.411   .     A
C713   C714    1.390   .     A
C713   C229    1.400   1_556 S
C713   C235    1.421   1_556 S
C714   H720    1.084   .     S
C714   C715    1.383   .     A
C715   H725    1.079   .     S
H716   C751    1.086   .     S
H719   C859    1.086   .     S
H721   C229    1.084   1_556 S
O726   Zn742   1.933   .     S
O726   Zn739   1.954   .     S
O726   Zn740   1.951   .     S
O726   Zn741   1.924   .     S
O727   Zn740   1.923   .     S
O728   Zn742   1.936   .     S
O729   Zn741   1.937   .     S
O730   Zn739   1.925   .     S
O731   Zn739   1.931   .     S
O732   Zn742   1.927   .     S
O733   Zn740   1.925   .     S
O734   Zn741   1.937   .     S
O735   Zn742   1.934   .     S
O736   Zn739   1.922   .     S
O737   Zn740   1.932   .     S
O738   Zn741   1.931   .     S
Br743  C747    1.921   .     S
Br744  C762    1.929   .     S
C745   C751    1.438   .     S
C745   O788    1.272   .     A
C745   O786    1.273   .     A
C746   C760    1.394   .     A
C746   C765    1.407   .     A
C746   H775    1.077   .     S
C747   C760    1.405   .     A
C747   C759    1.390   .     A
C748   C750    1.455   .     S
C748   O787    1.277   .     A
C748   O789    1.274   .     A
C749   C764    1.419   .     A
C749   C758    1.479   .     S
C749   C761    1.401   .     A
C750   C645    1.335   1_655 S
C750   H664    1.088   1_655 S
C752   C755    1.452   .     S
C752   C912    1.332   .     S
C752   H930    1.088   .     S
C753   C754    1.436   .     S
C754   O790    1.278   .     A
C754   O784    1.278   .     A
C755   O791    1.269   .     A
C755   O785    1.268   .     A
C756   C761    1.387   .     A
C756   C285    1.394   1_556 S
C756   H300    1.083   1_556 S
C757   C760    1.456   .     S
C757   O780    1.280   .     A
C757   O782    1.268   .     A
C758   O781    1.283   .     A
C758   O783    1.284   .     A
C761   H776    1.083   .     S
C763   C764    1.426   .     A
C763   C285    1.428   1_556 S
C763   C288    1.427   1_556 S
C764   C768    1.411   .     A
C766   C767    1.390   .     A
C766   C282    1.400   1_556 S
C766   C288    1.421   1_556 S
C767   H773    1.084   .     S
C767   C768    1.383   .     A
C768   H778    1.079   .     S
H769   C645    1.086   1_655 S
H772   C912    1.086   .     S
H774   C282    1.084   1_556 S
O779   Zn795   1.933   .     S
O779   Zn792   1.954   .     S
O779   Zn793   1.951   .     S
O779   Zn794   1.924   .     S
O780   Zn793   1.923   .     S
O781   Zn795   1.936   .     S
O782   Zn794   1.937   .     S
O783   Zn792   1.925   .     S
O784   Zn792   1.931   .     S
O785   Zn795   1.927   .     S
O786   Zn793   1.925   .     S
O787   Zn794   1.937   .     S
O788   Zn795   1.934   .     S
O789   Zn792   1.922   .     S
O790   Zn793   1.932   .     S
O791   Zn794   1.931   .     S
Br796  C800    1.921   .     S
Br797  C815    1.929   .     S
C798   C804    1.438   .     S
C798   O841    1.272   .     A
C798   O839    1.273   .     A
C799   C813    1.394   .     A
C799   C818    1.407   .     A
C799   H828    1.077   .     S
C800   C813    1.405   .     A
C800   C812    1.390   .     A
C801   C803    1.455   .     S
C801   O840    1.277   .     A
C801   O842    1.274   .     A
C802   C817    1.419   .     A
C802   C811    1.479   .     S
C802   C814    1.401   .     A
C803   C857    1.335   .     S
C803   H876    1.088   .     S
C804   C909    1.335   1_455 S
C804   H928    1.086   1_455 S
C805   C808    1.452   .     S
C805   C488    1.332   1_565 S
C805   H506    1.088   1_565 S
C806   C807    1.436   .     S
C807   O843    1.278   .     A
C807   O837    1.278   .     A
C808   O844    1.269   .     A
C808   O838    1.268   .     A
C809   C814    1.387   .     A
C809   C338    1.394   1_556 S
C809   H353    1.083   1_556 S
C810   C813    1.456   .     S
C810   O833    1.280   .     A
C810   O835    1.268   .     A
C811   O834    1.283   .     A
C811   O836    1.284   .     A
C814   H829    1.083   .     S
C816   C817    1.426   .     A
C816   C338    1.428   1_556 S
C816   C341    1.427   1_556 S
C817   C821    1.411   .     A
C819   C820    1.390   .     A
C819   C335    1.400   1_556 S
C819   C341    1.421   1_556 S
C820   H826    1.084   .     S
C820   C821    1.383   .     A
C821   H831    1.079   .     S
H822   C857    1.086   .     S
H823   C909    1.088   1_455 S
H825   C488    1.086   1_565 S
H827   C335    1.084   1_556 S
O832   Zn848   1.933   .     S
O832   Zn845   1.954   .     S
O832   Zn846   1.951   .     S
O832   Zn847   1.924   .     S
O833   Zn846   1.923   .     S
O834   Zn848   1.936   .     S
O835   Zn847   1.937   .     S
O836   Zn845   1.925   .     S
O837   Zn845   1.931   .     S
O838   Zn848   1.927   .     S
O839   Zn846   1.925   .     S
O840   Zn847   1.937   .     S
O841   Zn848   1.934   .     S
O842   Zn845   1.922   .     S
O843   Zn846   1.932   .     S
O844   Zn847   1.931   .     S
Br849  C853    1.921   .     S
Br850  C868    1.929   .     S
C851   C857    1.438   .     S
C851   O894    1.272   .     A
C851   O892    1.273   .     A
C852   C866    1.394   .     A
C852   C871    1.407   .     A
C852   H881    1.077   .     S
C853   C866    1.405   .     A
C853   C865    1.390   .     A
C854   C856    1.455   .     S
C854   O893    1.277   .     A
C854   O895    1.274   .     A
C855   C870    1.419   .     A
C855   C864    1.479   .     S
C855   C867    1.401   .     A
C856   C910    1.335   .     S
C856   H929    1.088   .     S
C858   C861    1.452   .     S
C858   C541    1.332   1_565 S
C858   H559    1.088   1_565 S
C859   C860    1.436   .     S
C860   O896    1.278   .     A
C860   O890    1.278   .     A
C861   O897    1.269   .     A
C861   O891    1.268   .     A
C862   C867    1.387   .     A
C862   C391    1.394   1_556 S
C862   H406    1.083   1_556 S
C863   C866    1.456   .     S
C863   O886    1.280   .     A
C863   O888    1.268   .     A
C864   O887    1.283   .     A
C864   O889    1.284   .     A
C867   H882    1.083   .     S
C869   C870    1.426   .     A
C869   C391    1.428   1_556 S
C869   C394    1.427   1_556 S
C870   C874    1.411   .     A
C872   C873    1.390   .     A
C872   C388    1.400   1_556 S
C872   C394    1.421   1_556 S
C873   H879    1.084   .     S
C873   C874    1.383   .     A
C874   H884    1.079   .     S
H875   C910    1.086   .     S
H878   C541    1.086   1_565 S
H880   C388    1.084   1_556 S
O885   Zn901   1.933   .     S
O885   Zn898   1.954   .     S
O885   Zn899   1.951   .     S
O885   Zn900   1.924   .     S
O886   Zn899   1.923   .     S
O887   Zn901   1.936   .     S
O888   Zn900   1.937   .     S
O889   Zn898   1.925   .     S
O890   Zn898   1.931   .     S
O891   Zn901   1.927   .     S
O892   Zn899   1.925   .     S
O893   Zn900   1.937   .     S
O894   Zn901   1.934   .     S
O895   Zn898   1.922   .     S
O896   Zn899   1.932   .     S
O897   Zn900   1.931   .     S
Br902  C906    1.921   .     S
Br903  C921    1.929   .     S
C904   C910    1.438   .     S
C904   O947    1.272   .     A
C904   O945    1.273   .     A
C905   C919    1.394   .     A
C905   C924    1.407   .     A
C905   H934    1.077   .     S
C906   C919    1.405   .     A
C906   C918    1.390   .     A
C907   C909    1.455   .     S
C907   O946    1.277   .     A
C907   O948    1.274   .     A
C908   C923    1.419   .     A
C908   C917    1.479   .     S
C908   C920    1.401   .     A
C909   C804    1.335   1_655 S
C909   H823    1.088   1_655 S
C911   C914    1.452   .     S
C911   C594    1.332   1_565 S
C911   H612    1.088   1_565 S
C912   C913    1.436   .     S
C913   O949    1.278   .     A
C913   O943    1.278   .     A
C914   O950    1.269   .     A
C914   O944    1.268   .     A
C915   C920    1.387   .     A
C915   C444    1.394   1_556 S
C915   H459    1.083   1_556 S
C916   C919    1.456   .     S
C916   O939    1.280   .     A
C916   O941    1.268   .     A
C917   O940    1.283   .     A
C917   O942    1.284   .     A
C920   H935    1.083   .     S
C922   C923    1.426   .     A
C922   C444    1.428   1_556 S
C922   C447    1.427   1_556 S
C923   C927    1.411   .     A
C925   C926    1.390   .     A
C925   C441    1.400   1_556 S
C925   C447    1.421   1_556 S
C926   H932    1.084   .     S
C926   C927    1.383   .     A
C927   H937    1.079   .     S
H928   C804    1.086   1_655 S
H931   C594    1.086   1_565 S
H933   C441    1.084   1_556 S
O938   Zn954   1.933   .     S
O938   Zn951   1.954   .     S
O938   Zn952   1.951   .     S
O938   Zn953   1.924   .     S
O939   Zn952   1.923   .     S
O940   Zn954   1.936   .     S
O941   Zn953   1.937   .     S
O942   Zn951   1.925   .     S
O943   Zn951   1.931   .     S
O944   Zn954   1.927   .     S
O945   Zn952   1.925   .     S
O946   Zn953   1.937   .     S
O947   Zn954   1.934   .     S
O948   Zn951   1.922   .     S
O949   Zn952   1.932   .     S
O950   Zn953   1.931   .     S
