data_str_m2_o1_o5_pcu_sym.18
_audit_creation_date              2020-01-03
_audit_creation_method            'Materials Studio'
_symmetry_space_group_name_H-M    'P1'
_symmetry_Int_Tables_number       1
_symmetry_cell_setting            triclinic
loop_
_symmetry_equiv_pos_as_xyz
  x,y,z
_cell_length_a                    32.5075
_cell_length_b                    28.9624
_cell_length_c                    27.1546
_cell_angle_alpha                 90.0005
_cell_angle_beta                  92.2626
_cell_angle_gamma                 89.9994
loop_
_atom_site_label
_atom_site_type_symbol
_atom_site_fract_x
_atom_site_fract_y
_atom_site_fract_z
_atom_site_U_iso_or_equiv
_atom_site_adp_type
_atom_site_occupancy
C1     C     0.08749   0.16667   0.16695   0.00000  Uiso   1.00
C2     C     0.02129   0.20862   0.16709   0.00000  Uiso   1.00
C3     C     0.29052   0.16671   0.16606   0.00000  Uiso   1.00
C4     C     0.04281   0.16671   0.16727   0.00000  Uiso   1.00
C5     C     0.14510   0.02462   0.13079   0.00000  Uiso   1.00
C6     C     0.18847   0.30864   0.20231   0.00000  Uiso   1.00
C7     C     0.18823   0.02462   0.20254   0.00000  Uiso   1.00
C8     C     0.14486   0.30864   0.13102   0.00000  Uiso   1.00
C9     C     0.12156   0.04851   0.09078   0.00000  Uiso   1.00
C10    C     0.21266   0.28459   0.24166   0.00000  Uiso   1.00
C11    C     0.21175   0.04851   0.24257   0.00000  Uiso   1.00
C12    C     0.24584   0.16667   0.16638   0.00000  Uiso   1.00
C13    C     0.12068   0.28458   0.09167   0.00000  Uiso   1.00
C14    C     0.16658   0.16667   0.07368   0.00000  Uiso   1.00
C15    C     0.16676   0.16667   0.25965   0.00000  Uiso   1.00
C16    C     0.16664   0.16666   0.02189   0.00000  Uiso   1.00
C17    C     0.16670   0.16666   0.31144   0.00000  Uiso   1.00
C18    C     0.02128   0.12481   0.16730   0.00000  Uiso   1.00
C19    C     0.31204   0.20862   0.16622   0.00000  Uiso   1.00
C20    C     0.31205   0.12481   0.16605   0.00000  Uiso   1.00
Cu21   Cu    0.16667   0.21355   0.16667   0.00000  Uiso   1.00
Cu22   Cu    0.16667   0.11978   0.16667   0.00000  Uiso   1.00
H23    H     0.03716   0.09199   0.16835   0.00000  Uiso   1.00
H24    H     0.29614   0.24145   0.16558   0.00000  Uiso   1.00
H25    H     0.29618   0.09199   0.16501   0.00000  Uiso   1.00
H26    H     0.03720   0.24145   0.16772   0.00000  Uiso   1.00
H27    H     0.06840   0.07874   0.06782   0.00000  Uiso   1.00
H28    H     0.21676   0.26539   0.31309   0.00000  Uiso   1.00
H29    H     0.26489   0.07881   0.26554   0.00000  Uiso   1.00
H30    H     0.11658   0.26539   0.02024   0.00000  Uiso   1.00
N31    N     0.16667   0.28402   0.16667   0.00000  Uiso   1.00
N32    N     0.16667   0.04931   0.16667   0.00000  Uiso   1.00
O33    O     0.10655   0.20625   0.16666   0.00000  Uiso   1.00
O34    O     0.08163   0.06386   0.09830   0.00000  Uiso   1.00
O35    O     0.24725   0.27062   0.23401   0.00000  Uiso   1.00
O36    O     0.19709   0.28148   0.28880   0.00000  Uiso   1.00
O37    O     0.19733   0.05139   0.28338   0.00000  Uiso   1.00
O38    O     0.25167   0.06392   0.23506   0.00000  Uiso   1.00
O39    O     0.08609   0.27060   0.09933   0.00000  Uiso   1.00
O40    O     0.13625   0.28149   0.04452   0.00000  Uiso   1.00
O41    O     0.22679   0.12709   0.16667   0.00000  Uiso   1.00
O42    O     0.22679   0.20625   0.16667   0.00000  Uiso   1.00
O43    O     0.10655   0.12709   0.16666   0.00000  Uiso   1.00
O44    O     0.16667   0.20625   0.09613   0.00000  Uiso   1.00
O45    O     0.16667   0.12708   0.23720   0.00000  Uiso   1.00
O46    O     0.16667   0.20625   0.23720   0.00000  Uiso   1.00
O47    O     0.16667   0.12708   0.09613   0.00000  Uiso   1.00
O48    O     0.13597   0.05141   0.04996   0.00000  Uiso   1.00
C49    C     0.42083   0.16667   0.16695   0.00000  Uiso   1.00
C50    C     0.35462   0.20862   0.16709   0.00000  Uiso   1.00
C51    C     0.62385   0.16671   0.16606   0.00000  Uiso   1.00
C52    C     0.37615   0.16671   0.16727   0.00000  Uiso   1.00
C53    C     0.47843   0.02462   0.13079   0.00000  Uiso   1.00
C54    C     0.52181   0.30864   0.20231   0.00000  Uiso   1.00
C55    C     0.52157   0.02462   0.20254   0.00000  Uiso   1.00
C56    C     0.47819   0.30864   0.13102   0.00000  Uiso   1.00
C57    C     0.45489   0.04851   0.09078   0.00000  Uiso   1.00
C58    C     0.54599   0.28459   0.24166   0.00000  Uiso   1.00
C59    C     0.54508   0.04851   0.24257   0.00000  Uiso   1.00
C60    C     0.57917   0.16667   0.16638   0.00000  Uiso   1.00
C61    C     0.45401   0.28458   0.09167   0.00000  Uiso   1.00
C62    C     0.49991   0.16667   0.07368   0.00000  Uiso   1.00
C63    C     0.50009   0.16667   0.25965   0.00000  Uiso   1.00
C64    C     0.49997   0.16666   0.02189   0.00000  Uiso   1.00
C65    C     0.50003   0.16666   0.31144   0.00000  Uiso   1.00
C66    C     0.35462   0.12481   0.16730   0.00000  Uiso   1.00
C67    C     0.64537   0.20862   0.16622   0.00000  Uiso   1.00
C68    C     0.64538   0.12481   0.16605   0.00000  Uiso   1.00
Cu69   Cu    0.50000   0.21355   0.16667   0.00000  Uiso   1.00
Cu70   Cu    0.50000   0.11978   0.16667   0.00000  Uiso   1.00
H71    H     0.37049   0.09199   0.16835   0.00000  Uiso   1.00
H72    H     0.62947   0.24145   0.16558   0.00000  Uiso   1.00
H73    H     0.62951   0.09199   0.16501   0.00000  Uiso   1.00
H74    H     0.37053   0.24145   0.16772   0.00000  Uiso   1.00
H75    H     0.40173   0.07874   0.06782   0.00000  Uiso   1.00
H76    H     0.55010   0.26539   0.31309   0.00000  Uiso   1.00
H77    H     0.59822   0.07881   0.26554   0.00000  Uiso   1.00
H78    H     0.44991   0.26539   0.02024   0.00000  Uiso   1.00
N79    N     0.50000   0.28402   0.16667   0.00000  Uiso   1.00
N80    N     0.50000   0.04931   0.16667   0.00000  Uiso   1.00
O81    O     0.43988   0.20625   0.16666   0.00000  Uiso   1.00
O82    O     0.41497   0.06386   0.09830   0.00000  Uiso   1.00
O83    O     0.58058   0.27062   0.23401   0.00000  Uiso   1.00
O84    O     0.53042   0.28148   0.28880   0.00000  Uiso   1.00
O85    O     0.53066   0.05139   0.28338   0.00000  Uiso   1.00
O86    O     0.58500   0.06392   0.23506   0.00000  Uiso   1.00
O87    O     0.41942   0.27060   0.09933   0.00000  Uiso   1.00
O88    O     0.46958   0.28149   0.04452   0.00000  Uiso   1.00
O89    O     0.56012   0.12709   0.16667   0.00000  Uiso   1.00
O90    O     0.56012   0.20625   0.16667   0.00000  Uiso   1.00
O91    O     0.43988   0.12709   0.16666   0.00000  Uiso   1.00
O92    O     0.50000   0.20625   0.09613   0.00000  Uiso   1.00
O93    O     0.50000   0.12708   0.23720   0.00000  Uiso   1.00
O94    O     0.50000   0.20625   0.23720   0.00000  Uiso   1.00
O95    O     0.50000   0.12708   0.09613   0.00000  Uiso   1.00
O96    O     0.46930   0.05141   0.04996   0.00000  Uiso   1.00
C97    C     0.75416   0.16667   0.16695   0.00000  Uiso   1.00
C98    C     0.68796   0.20862   0.16709   0.00000  Uiso   1.00
C99    C     0.95719   0.16671   0.16606   0.00000  Uiso   1.00
C100   C     0.70948   0.16671   0.16727   0.00000  Uiso   1.00
C101   C     0.81176   0.02462   0.13079   0.00000  Uiso   1.00
C102   C     0.85514   0.30864   0.20231   0.00000  Uiso   1.00
C103   C     0.85490   0.02462   0.20254   0.00000  Uiso   1.00
C104   C     0.81153   0.30864   0.13102   0.00000  Uiso   1.00
C105   C     0.78823   0.04851   0.09078   0.00000  Uiso   1.00
C106   C     0.87932   0.28459   0.24166   0.00000  Uiso   1.00
C107   C     0.87842   0.04851   0.24257   0.00000  Uiso   1.00
C108   C     0.91251   0.16667   0.16638   0.00000  Uiso   1.00
C109   C     0.78735   0.28458   0.09167   0.00000  Uiso   1.00
C110   C     0.83324   0.16667   0.07368   0.00000  Uiso   1.00
C111   C     0.83342   0.16667   0.25965   0.00000  Uiso   1.00
C112   C     0.83330   0.16666   0.02189   0.00000  Uiso   1.00
C113   C     0.83336   0.16666   0.31144   0.00000  Uiso   1.00
C114   C     0.68795   0.12481   0.16730   0.00000  Uiso   1.00
C115   C     0.97871   0.20862   0.16622   0.00000  Uiso   1.00
C116   C     0.97872   0.12481   0.16605   0.00000  Uiso   1.00
Cu117  Cu    0.83333   0.21355   0.16667   0.00000  Uiso   1.00
Cu118  Cu    0.83333   0.11978   0.16667   0.00000  Uiso   1.00
H119   H     0.70382   0.09199   0.16835   0.00000  Uiso   1.00
H120   H     0.96280   0.24145   0.16558   0.00000  Uiso   1.00
H121   H     0.96285   0.09199   0.16501   0.00000  Uiso   1.00
H122   H     0.70386   0.24145   0.16772   0.00000  Uiso   1.00
H123   H     0.73506   0.07874   0.06782   0.00000  Uiso   1.00
H124   H     0.88343   0.26539   0.31309   0.00000  Uiso   1.00
H125   H     0.93155   0.07881   0.26554   0.00000  Uiso   1.00
H126   H     0.78324   0.26539   0.02024   0.00000  Uiso   1.00
N127   N     0.83333   0.28402   0.16667   0.00000  Uiso   1.00
N128   N     0.83333   0.04931   0.16667   0.00000  Uiso   1.00
O129   O     0.77321   0.20625   0.16666   0.00000  Uiso   1.00
O130   O     0.74830   0.06386   0.09830   0.00000  Uiso   1.00
O131   O     0.91392   0.27062   0.23401   0.00000  Uiso   1.00
O132   O     0.86375   0.28148   0.28880   0.00000  Uiso   1.00
O133   O     0.86400   0.05139   0.28338   0.00000  Uiso   1.00
O134   O     0.91833   0.06392   0.23506   0.00000  Uiso   1.00
O135   O     0.75276   0.27060   0.09933   0.00000  Uiso   1.00
O136   O     0.80291   0.28149   0.04452   0.00000  Uiso   1.00
O137   O     0.89345   0.12709   0.16667   0.00000  Uiso   1.00
O138   O     0.89345   0.20625   0.16667   0.00000  Uiso   1.00
O139   O     0.77321   0.12709   0.16666   0.00000  Uiso   1.00
O140   O     0.83333   0.20625   0.09613   0.00000  Uiso   1.00
O141   O     0.83333   0.12708   0.23720   0.00000  Uiso   1.00
O142   O     0.83333   0.20625   0.23720   0.00000  Uiso   1.00
O143   O     0.83333   0.12708   0.09613   0.00000  Uiso   1.00
O144   O     0.80263   0.05141   0.04996   0.00000  Uiso   1.00
C145   C     0.08749   0.50001   0.16695   0.00000  Uiso   1.00
C146   C     0.02129   0.54196   0.16709   0.00000  Uiso   1.00
C147   C     0.29052   0.50004   0.16606   0.00000  Uiso   1.00
C148   C     0.04281   0.50004   0.16727   0.00000  Uiso   1.00
C149   C     0.14510   0.35796   0.13079   0.00000  Uiso   1.00
C150   C     0.18847   0.64197   0.20231   0.00000  Uiso   1.00
C151   C     0.18823   0.35796   0.20254   0.00000  Uiso   1.00
C152   C     0.14486   0.64197   0.13102   0.00000  Uiso   1.00
C153   C     0.12156   0.38184   0.09078   0.00000  Uiso   1.00
C154   C     0.21266   0.61792   0.24166   0.00000  Uiso   1.00
C155   C     0.21175   0.38184   0.24257   0.00000  Uiso   1.00
C156   C     0.24584   0.50001   0.16638   0.00000  Uiso   1.00
C157   C     0.12068   0.61792   0.09167   0.00000  Uiso   1.00
C158   C     0.16658   0.50000   0.07368   0.00000  Uiso   1.00
C159   C     0.16676   0.50000   0.25965   0.00000  Uiso   1.00
C160   C     0.16664   0.49999   0.02189   0.00000  Uiso   1.00
C161   C     0.16670   0.49999   0.31144   0.00000  Uiso   1.00
C162   C     0.02128   0.45815   0.16730   0.00000  Uiso   1.00
C163   C     0.31204   0.54196   0.16622   0.00000  Uiso   1.00
C164   C     0.31205   0.45815   0.16605   0.00000  Uiso   1.00
Cu165  Cu    0.16667   0.54689   0.16667   0.00000  Uiso   1.00
Cu166  Cu    0.16667   0.45311   0.16667   0.00000  Uiso   1.00
H167   H     0.03716   0.42532   0.16835   0.00000  Uiso   1.00
H168   H     0.29614   0.57478   0.16558   0.00000  Uiso   1.00
H169   H     0.29618   0.42532   0.16501   0.00000  Uiso   1.00
H170   H     0.03720   0.57478   0.16772   0.00000  Uiso   1.00
H171   H     0.06840   0.41208   0.06782   0.00000  Uiso   1.00
H172   H     0.21676   0.59872   0.31309   0.00000  Uiso   1.00
H173   H     0.26489   0.41214   0.26554   0.00000  Uiso   1.00
H174   H     0.11658   0.59872   0.02024   0.00000  Uiso   1.00
N175   N     0.16667   0.61736   0.16667   0.00000  Uiso   1.00
N176   N     0.16667   0.38264   0.16667   0.00000  Uiso   1.00
O177   O     0.10655   0.53958   0.16666   0.00000  Uiso   1.00
O178   O     0.08163   0.39719   0.09830   0.00000  Uiso   1.00
O179   O     0.24725   0.60395   0.23401   0.00000  Uiso   1.00
O180   O     0.19709   0.61481   0.28880   0.00000  Uiso   1.00
O181   O     0.19733   0.38472   0.28338   0.00000  Uiso   1.00
O182   O     0.25167   0.39725   0.23506   0.00000  Uiso   1.00
O183   O     0.08609   0.60393   0.09933   0.00000  Uiso   1.00
O184   O     0.13625   0.61482   0.04452   0.00000  Uiso   1.00
O185   O     0.22679   0.46042   0.16667   0.00000  Uiso   1.00
O186   O     0.22679   0.53958   0.16667   0.00000  Uiso   1.00
O187   O     0.10655   0.46042   0.16666   0.00000  Uiso   1.00
O188   O     0.16667   0.53959   0.09613   0.00000  Uiso   1.00
O189   O     0.16667   0.46041   0.23720   0.00000  Uiso   1.00
O190   O     0.16667   0.53959   0.23720   0.00000  Uiso   1.00
O191   O     0.16667   0.46041   0.09613   0.00000  Uiso   1.00
O192   O     0.13597   0.38475   0.04996   0.00000  Uiso   1.00
C193   C     0.42083   0.50001   0.16695   0.00000  Uiso   1.00
C194   C     0.35462   0.54196   0.16709   0.00000  Uiso   1.00
C195   C     0.62385   0.50004   0.16606   0.00000  Uiso   1.00
C196   C     0.37615   0.50004   0.16727   0.00000  Uiso   1.00
C197   C     0.47843   0.35796   0.13079   0.00000  Uiso   1.00
C198   C     0.52181   0.64197   0.20231   0.00000  Uiso   1.00
C199   C     0.52157   0.35796   0.20254   0.00000  Uiso   1.00
C200   C     0.47819   0.64197   0.13102   0.00000  Uiso   1.00
C201   C     0.45489   0.38184   0.09078   0.00000  Uiso   1.00
C202   C     0.54599   0.61792   0.24166   0.00000  Uiso   1.00
C203   C     0.54508   0.38184   0.24257   0.00000  Uiso   1.00
C204   C     0.57917   0.50001   0.16638   0.00000  Uiso   1.00
C205   C     0.45401   0.61792   0.09167   0.00000  Uiso   1.00
C206   C     0.49991   0.50000   0.07368   0.00000  Uiso   1.00
C207   C     0.50009   0.50000   0.25965   0.00000  Uiso   1.00
C208   C     0.49997   0.49999   0.02189   0.00000  Uiso   1.00
C209   C     0.50003   0.49999   0.31144   0.00000  Uiso   1.00
C210   C     0.35462   0.45815   0.16730   0.00000  Uiso   1.00
C211   C     0.64537   0.54196   0.16622   0.00000  Uiso   1.00
C212   C     0.64538   0.45815   0.16605   0.00000  Uiso   1.00
Cu213  Cu    0.50000   0.54689   0.16667   0.00000  Uiso   1.00
Cu214  Cu    0.50000   0.45311   0.16667   0.00000  Uiso   1.00
H215   H     0.37049   0.42532   0.16835   0.00000  Uiso   1.00
H216   H     0.62947   0.57478   0.16558   0.00000  Uiso   1.00
H217   H     0.62951   0.42532   0.16501   0.00000  Uiso   1.00
H218   H     0.37053   0.57478   0.16772   0.00000  Uiso   1.00
H219   H     0.40173   0.41208   0.06782   0.00000  Uiso   1.00
H220   H     0.55010   0.59872   0.31309   0.00000  Uiso   1.00
H221   H     0.59822   0.41214   0.26554   0.00000  Uiso   1.00
H222   H     0.44991   0.59872   0.02024   0.00000  Uiso   1.00
N223   N     0.50000   0.61736   0.16667   0.00000  Uiso   1.00
N224   N     0.50000   0.38264   0.16667   0.00000  Uiso   1.00
O225   O     0.43988   0.53958   0.16666   0.00000  Uiso   1.00
O226   O     0.41497   0.39719   0.09830   0.00000  Uiso   1.00
O227   O     0.58058   0.60395   0.23401   0.00000  Uiso   1.00
O228   O     0.53042   0.61481   0.28880   0.00000  Uiso   1.00
O229   O     0.53066   0.38472   0.28338   0.00000  Uiso   1.00
O230   O     0.58500   0.39725   0.23506   0.00000  Uiso   1.00
O231   O     0.41942   0.60393   0.09933   0.00000  Uiso   1.00
O232   O     0.46958   0.61482   0.04452   0.00000  Uiso   1.00
O233   O     0.56012   0.46042   0.16667   0.00000  Uiso   1.00
O234   O     0.56012   0.53958   0.16667   0.00000  Uiso   1.00
O235   O     0.43988   0.46042   0.16666   0.00000  Uiso   1.00
O236   O     0.50000   0.53959   0.09613   0.00000  Uiso   1.00
O237   O     0.50000   0.46041   0.23720   0.00000  Uiso   1.00
O238   O     0.50000   0.53959   0.23720   0.00000  Uiso   1.00
O239   O     0.50000   0.46041   0.09613   0.00000  Uiso   1.00
O240   O     0.46930   0.38475   0.04996   0.00000  Uiso   1.00
C241   C     0.75416   0.50001   0.16695   0.00000  Uiso   1.00
C242   C     0.68796   0.54196   0.16709   0.00000  Uiso   1.00
C243   C     0.95719   0.50004   0.16606   0.00000  Uiso   1.00
C244   C     0.70948   0.50004   0.16727   0.00000  Uiso   1.00
C245   C     0.81176   0.35796   0.13079   0.00000  Uiso   1.00
C246   C     0.85514   0.64197   0.20231   0.00000  Uiso   1.00
C247   C     0.85490   0.35796   0.20254   0.00000  Uiso   1.00
C248   C     0.81153   0.64197   0.13102   0.00000  Uiso   1.00
C249   C     0.78823   0.38184   0.09078   0.00000  Uiso   1.00
C250   C     0.87932   0.61792   0.24166   0.00000  Uiso   1.00
C251   C     0.87842   0.38184   0.24257   0.00000  Uiso   1.00
C252   C     0.91251   0.50001   0.16638   0.00000  Uiso   1.00
C253   C     0.78735   0.61792   0.09167   0.00000  Uiso   1.00
C254   C     0.83324   0.50000   0.07368   0.00000  Uiso   1.00
C255   C     0.83342   0.50000   0.25965   0.00000  Uiso   1.00
C256   C     0.83330   0.49999   0.02189   0.00000  Uiso   1.00
C257   C     0.83336   0.49999   0.31144   0.00000  Uiso   1.00
C258   C     0.68795   0.45815   0.16730   0.00000  Uiso   1.00
C259   C     0.97871   0.54196   0.16622   0.00000  Uiso   1.00
C260   C     0.97872   0.45815   0.16605   0.00000  Uiso   1.00
Cu261  Cu    0.83333   0.54689   0.16667   0.00000  Uiso   1.00
Cu262  Cu    0.83333   0.45311   0.16667   0.00000  Uiso   1.00
H263   H     0.70382   0.42532   0.16835   0.00000  Uiso   1.00
H264   H     0.96280   0.57478   0.16558   0.00000  Uiso   1.00
H265   H     0.96285   0.42532   0.16501   0.00000  Uiso   1.00
H266   H     0.70386   0.57478   0.16772   0.00000  Uiso   1.00
H267   H     0.73506   0.41208   0.06782   0.00000  Uiso   1.00
H268   H     0.88343   0.59872   0.31309   0.00000  Uiso   1.00
H269   H     0.93155   0.41214   0.26554   0.00000  Uiso   1.00
H270   H     0.78324   0.59872   0.02024   0.00000  Uiso   1.00
N271   N     0.83333   0.61736   0.16667   0.00000  Uiso   1.00
N272   N     0.83333   0.38264   0.16667   0.00000  Uiso   1.00
O273   O     0.77321   0.53958   0.16666   0.00000  Uiso   1.00
O274   O     0.74830   0.39719   0.09830   0.00000  Uiso   1.00
O275   O     0.91392   0.60395   0.23401   0.00000  Uiso   1.00
O276   O     0.86375   0.61481   0.28880   0.00000  Uiso   1.00
O277   O     0.86400   0.38472   0.28338   0.00000  Uiso   1.00
O278   O     0.91833   0.39725   0.23506   0.00000  Uiso   1.00
O279   O     0.75276   0.60393   0.09933   0.00000  Uiso   1.00
O280   O     0.80291   0.61482   0.04452   0.00000  Uiso   1.00
O281   O     0.89345   0.46042   0.16667   0.00000  Uiso   1.00
O282   O     0.89345   0.53958   0.16667   0.00000  Uiso   1.00
O283   O     0.77321   0.46042   0.16666   0.00000  Uiso   1.00
O284   O     0.83333   0.53959   0.09613   0.00000  Uiso   1.00
O285   O     0.83333   0.46041   0.23720   0.00000  Uiso   1.00
O286   O     0.83333   0.53959   0.23720   0.00000  Uiso   1.00
O287   O     0.83333   0.46041   0.09613   0.00000  Uiso   1.00
O288   O     0.80263   0.38475   0.04996   0.00000  Uiso   1.00
C289   C     0.08749   0.83334   0.16695   0.00000  Uiso   1.00
C290   C     0.02129   0.87529   0.16709   0.00000  Uiso   1.00
C291   C     0.29052   0.83337   0.16606   0.00000  Uiso   1.00
C292   C     0.04281   0.83337   0.16727   0.00000  Uiso   1.00
C293   C     0.14510   0.69129   0.13079   0.00000  Uiso   1.00
C294   C     0.18847   0.97531   0.20231   0.00000  Uiso   1.00
C295   C     0.18823   0.69129   0.20254   0.00000  Uiso   1.00
C296   C     0.14486   0.97531   0.13102   0.00000  Uiso   1.00
C297   C     0.12156   0.71518   0.09078   0.00000  Uiso   1.00
C298   C     0.21266   0.95125   0.24166   0.00000  Uiso   1.00
C299   C     0.21175   0.71518   0.24257   0.00000  Uiso   1.00
C300   C     0.24584   0.83334   0.16638   0.00000  Uiso   1.00
C301   C     0.12068   0.95125   0.09167   0.00000  Uiso   1.00
C302   C     0.16658   0.83333   0.07368   0.00000  Uiso   1.00
C303   C     0.16676   0.83333   0.25965   0.00000  Uiso   1.00
C304   C     0.16664   0.83333   0.02189   0.00000  Uiso   1.00
C305   C     0.16670   0.83333   0.31144   0.00000  Uiso   1.00
C306   C     0.02128   0.79148   0.16730   0.00000  Uiso   1.00
C307   C     0.31204   0.87529   0.16622   0.00000  Uiso   1.00
C308   C     0.31205   0.79148   0.16605   0.00000  Uiso   1.00
Cu309  Cu    0.16667   0.88022   0.16667   0.00000  Uiso   1.00
Cu310  Cu    0.16667   0.78645   0.16667   0.00000  Uiso   1.00
H311   H     0.03716   0.75865   0.16835   0.00000  Uiso   1.00
H312   H     0.29614   0.90811   0.16558   0.00000  Uiso   1.00
H313   H     0.29618   0.75865   0.16501   0.00000  Uiso   1.00
H314   H     0.03720   0.90812   0.16772   0.00000  Uiso   1.00
H315   H     0.06840   0.74541   0.06782   0.00000  Uiso   1.00
H316   H     0.21676   0.93206   0.31309   0.00000  Uiso   1.00
H317   H     0.26489   0.74548   0.26554   0.00000  Uiso   1.00
H318   H     0.11658   0.93205   0.02024   0.00000  Uiso   1.00
N319   N     0.16667   0.95069   0.16667   0.00000  Uiso   1.00
N320   N     0.16667   0.71598   0.16667   0.00000  Uiso   1.00
O321   O     0.10655   0.87291   0.16666   0.00000  Uiso   1.00
O322   O     0.08163   0.73052   0.09830   0.00000  Uiso   1.00
O323   O     0.24725   0.93729   0.23401   0.00000  Uiso   1.00
O324   O     0.19709   0.94814   0.28880   0.00000  Uiso   1.00
O325   O     0.19733   0.71805   0.28338   0.00000  Uiso   1.00
O326   O     0.25167   0.73058   0.23506   0.00000  Uiso   1.00
O327   O     0.08609   0.93727   0.09933   0.00000  Uiso   1.00
O328   O     0.13625   0.94815   0.04452   0.00000  Uiso   1.00
O329   O     0.22679   0.79375   0.16667   0.00000  Uiso   1.00
O330   O     0.22679   0.87291   0.16667   0.00000  Uiso   1.00
O331   O     0.10655   0.79375   0.16666   0.00000  Uiso   1.00
O332   O     0.16667   0.87292   0.09613   0.00000  Uiso   1.00
O333   O     0.16667   0.79375   0.23720   0.00000  Uiso   1.00
O334   O     0.16667   0.87292   0.23720   0.00000  Uiso   1.00
O335   O     0.16667   0.79375   0.09613   0.00000  Uiso   1.00
O336   O     0.13597   0.71808   0.04996   0.00000  Uiso   1.00
C337   C     0.42083   0.83334   0.16695   0.00000  Uiso   1.00
C338   C     0.35462   0.87529   0.16709   0.00000  Uiso   1.00
C339   C     0.62385   0.83337   0.16606   0.00000  Uiso   1.00
C340   C     0.37615   0.83337   0.16727   0.00000  Uiso   1.00
C341   C     0.47843   0.69129   0.13079   0.00000  Uiso   1.00
C342   C     0.52181   0.97531   0.20231   0.00000  Uiso   1.00
C343   C     0.52157   0.69129   0.20254   0.00000  Uiso   1.00
C344   C     0.47819   0.97531   0.13102   0.00000  Uiso   1.00
C345   C     0.45489   0.71518   0.09078   0.00000  Uiso   1.00
C346   C     0.54599   0.95125   0.24166   0.00000  Uiso   1.00
C347   C     0.54508   0.71518   0.24257   0.00000  Uiso   1.00
C348   C     0.57917   0.83334   0.16638   0.00000  Uiso   1.00
C349   C     0.45401   0.95125   0.09167   0.00000  Uiso   1.00
C350   C     0.49991   0.83333   0.07368   0.00000  Uiso   1.00
C351   C     0.50009   0.83333   0.25965   0.00000  Uiso   1.00
C352   C     0.49997   0.83333   0.02189   0.00000  Uiso   1.00
C353   C     0.50003   0.83333   0.31144   0.00000  Uiso   1.00
C354   C     0.35462   0.79148   0.16730   0.00000  Uiso   1.00
C355   C     0.64537   0.87529   0.16622   0.00000  Uiso   1.00
C356   C     0.64538   0.79148   0.16605   0.00000  Uiso   1.00
Cu357  Cu    0.50000   0.88022   0.16667   0.00000  Uiso   1.00
Cu358  Cu    0.50000   0.78645   0.16667   0.00000  Uiso   1.00
H359   H     0.37049   0.75865   0.16835   0.00000  Uiso   1.00
H360   H     0.62947   0.90811   0.16558   0.00000  Uiso   1.00
H361   H     0.62951   0.75865   0.16501   0.00000  Uiso   1.00
H362   H     0.37053   0.90812   0.16772   0.00000  Uiso   1.00
H363   H     0.40173   0.74541   0.06782   0.00000  Uiso   1.00
H364   H     0.55010   0.93206   0.31309   0.00000  Uiso   1.00
H365   H     0.59822   0.74548   0.26554   0.00000  Uiso   1.00
H366   H     0.44991   0.93205   0.02024   0.00000  Uiso   1.00
N367   N     0.50000   0.95069   0.16667   0.00000  Uiso   1.00
N368   N     0.50000   0.71598   0.16667   0.00000  Uiso   1.00
O369   O     0.43988   0.87291   0.16666   0.00000  Uiso   1.00
O370   O     0.41497   0.73052   0.09830   0.00000  Uiso   1.00
O371   O     0.58058   0.93729   0.23401   0.00000  Uiso   1.00
O372   O     0.53042   0.94814   0.28880   0.00000  Uiso   1.00
O373   O     0.53066   0.71805   0.28338   0.00000  Uiso   1.00
O374   O     0.58500   0.73058   0.23506   0.00000  Uiso   1.00
O375   O     0.41942   0.93727   0.09933   0.00000  Uiso   1.00
O376   O     0.46958   0.94815   0.04452   0.00000  Uiso   1.00
O377   O     0.56012   0.79375   0.16667   0.00000  Uiso   1.00
O378   O     0.56012   0.87291   0.16667   0.00000  Uiso   1.00
O379   O     0.43988   0.79375   0.16666   0.00000  Uiso   1.00
O380   O     0.50000   0.87292   0.09613   0.00000  Uiso   1.00
O381   O     0.50000   0.79375   0.23720   0.00000  Uiso   1.00
O382   O     0.50000   0.87292   0.23720   0.00000  Uiso   1.00
O383   O     0.50000   0.79375   0.09613   0.00000  Uiso   1.00
O384   O     0.46930   0.71808   0.04996   0.00000  Uiso   1.00
C385   C     0.75416   0.83334   0.16695   0.00000  Uiso   1.00
C386   C     0.68796   0.87529   0.16709   0.00000  Uiso   1.00
C387   C     0.95719   0.83337   0.16606   0.00000  Uiso   1.00
C388   C     0.70948   0.83337   0.16727   0.00000  Uiso   1.00
C389   C     0.81176   0.69129   0.13079   0.00000  Uiso   1.00
C390   C     0.85514   0.97531   0.20231   0.00000  Uiso   1.00
C391   C     0.85490   0.69129   0.20254   0.00000  Uiso   1.00
C392   C     0.81153   0.97531   0.13102   0.00000  Uiso   1.00
C393   C     0.78823   0.71518   0.09078   0.00000  Uiso   1.00
C394   C     0.87932   0.95125   0.24166   0.00000  Uiso   1.00
C395   C     0.87842   0.71518   0.24257   0.00000  Uiso   1.00
C396   C     0.91251   0.83334   0.16638   0.00000  Uiso   1.00
C397   C     0.78735   0.95125   0.09167   0.00000  Uiso   1.00
C398   C     0.83324   0.83333   0.07368   0.00000  Uiso   1.00
C399   C     0.83342   0.83333   0.25965   0.00000  Uiso   1.00
C400   C     0.83330   0.83333   0.02189   0.00000  Uiso   1.00
C401   C     0.83336   0.83333   0.31144   0.00000  Uiso   1.00
C402   C     0.68795   0.79148   0.16730   0.00000  Uiso   1.00
C403   C     0.97871   0.87529   0.16622   0.00000  Uiso   1.00
C404   C     0.97872   0.79148   0.16605   0.00000  Uiso   1.00
Cu405  Cu    0.83333   0.88022   0.16667   0.00000  Uiso   1.00
Cu406  Cu    0.83333   0.78645   0.16667   0.00000  Uiso   1.00
H407   H     0.70382   0.75865   0.16835   0.00000  Uiso   1.00
H408   H     0.96280   0.90811   0.16558   0.00000  Uiso   1.00
H409   H     0.96285   0.75865   0.16501   0.00000  Uiso   1.00
H410   H     0.70386   0.90812   0.16772   0.00000  Uiso   1.00
H411   H     0.73506   0.74541   0.06782   0.00000  Uiso   1.00
H412   H     0.88343   0.93206   0.31309   0.00000  Uiso   1.00
H413   H     0.93155   0.74548   0.26554   0.00000  Uiso   1.00
H414   H     0.78324   0.93205   0.02024   0.00000  Uiso   1.00
N415   N     0.83333   0.95069   0.16667   0.00000  Uiso   1.00
N416   N     0.83333   0.71598   0.16667   0.00000  Uiso   1.00
O417   O     0.77321   0.87291   0.16666   0.00000  Uiso   1.00
O418   O     0.74830   0.73052   0.09830   0.00000  Uiso   1.00
O419   O     0.91392   0.93729   0.23401   0.00000  Uiso   1.00
O420   O     0.86375   0.94814   0.28880   0.00000  Uiso   1.00
O421   O     0.86400   0.71805   0.28338   0.00000  Uiso   1.00
O422   O     0.91833   0.73058   0.23506   0.00000  Uiso   1.00
O423   O     0.75276   0.93727   0.09933   0.00000  Uiso   1.00
O424   O     0.80291   0.94815   0.04452   0.00000  Uiso   1.00
O425   O     0.89345   0.79375   0.16667   0.00000  Uiso   1.00
O426   O     0.89345   0.87291   0.16667   0.00000  Uiso   1.00
O427   O     0.77321   0.79375   0.16666   0.00000  Uiso   1.00
O428   O     0.83333   0.87292   0.09613   0.00000  Uiso   1.00
O429   O     0.83333   0.79375   0.23720   0.00000  Uiso   1.00
O430   O     0.83333   0.87292   0.23720   0.00000  Uiso   1.00
O431   O     0.83333   0.79375   0.09613   0.00000  Uiso   1.00
O432   O     0.80263   0.71808   0.04996   0.00000  Uiso   1.00
C433   C     0.08749   0.16667   0.50028   0.00000  Uiso   1.00
C434   C     0.02129   0.20862   0.50042   0.00000  Uiso   1.00
C435   C     0.29052   0.16671   0.49940   0.00000  Uiso   1.00
C436   C     0.04281   0.16671   0.50060   0.00000  Uiso   1.00
C437   C     0.14510   0.02462   0.46413   0.00000  Uiso   1.00
C438   C     0.18847   0.30864   0.53565   0.00000  Uiso   1.00
C439   C     0.18823   0.02462   0.53587   0.00000  Uiso   1.00
C440   C     0.14486   0.30864   0.46435   0.00000  Uiso   1.00
C441   C     0.12156   0.04851   0.42411   0.00000  Uiso   1.00
C442   C     0.21266   0.28459   0.57499   0.00000  Uiso   1.00
C443   C     0.21175   0.04851   0.57590   0.00000  Uiso   1.00
C444   C     0.24584   0.16667   0.49972   0.00000  Uiso   1.00
C445   C     0.12068   0.28458   0.42501   0.00000  Uiso   1.00
C446   C     0.16658   0.16667   0.40702   0.00000  Uiso   1.00
C447   C     0.16676   0.16667   0.59298   0.00000  Uiso   1.00
C448   C     0.16664   0.16666   0.35522   0.00000  Uiso   1.00
C449   C     0.16670   0.16666   0.64478   0.00000  Uiso   1.00
C450   C     0.02128   0.12481   0.50064   0.00000  Uiso   1.00
C451   C     0.31204   0.20862   0.49956   0.00000  Uiso   1.00
C452   C     0.31205   0.12481   0.49938   0.00000  Uiso   1.00
Cu453  Cu    0.16667   0.21355   0.50000   0.00000  Uiso   1.00
Cu454  Cu    0.16667   0.11978   0.50000   0.00000  Uiso   1.00
H455   H     0.03716   0.09199   0.50169   0.00000  Uiso   1.00
H456   H     0.29614   0.24145   0.49891   0.00000  Uiso   1.00
H457   H     0.29618   0.09199   0.49835   0.00000  Uiso   1.00
H458   H     0.03720   0.24145   0.50105   0.00000  Uiso   1.00
H459   H     0.06840   0.07874   0.40115   0.00000  Uiso   1.00
H460   H     0.21676   0.26539   0.64643   0.00000  Uiso   1.00
H461   H     0.26489   0.07881   0.59887   0.00000  Uiso   1.00
H462   H     0.11658   0.26539   0.35357   0.00000  Uiso   1.00
N463   N     0.16667   0.28402   0.50000   0.00000  Uiso   1.00
N464   N     0.16667   0.04931   0.50000   0.00000  Uiso   1.00
O465   O     0.10655   0.20625   0.50000   0.00000  Uiso   1.00
O466   O     0.08163   0.06386   0.43163   0.00000  Uiso   1.00
O467   O     0.24725   0.27062   0.56735   0.00000  Uiso   1.00
O468   O     0.19709   0.28148   0.62214   0.00000  Uiso   1.00
O469   O     0.19733   0.05139   0.61671   0.00000  Uiso   1.00
O470   O     0.25167   0.06392   0.56839   0.00000  Uiso   1.00
O471   O     0.08609   0.27060   0.43266   0.00000  Uiso   1.00
O472   O     0.13625   0.28149   0.37786   0.00000  Uiso   1.00
O473   O     0.22679   0.12709   0.50000   0.00000  Uiso   1.00
O474   O     0.22679   0.20625   0.50000   0.00000  Uiso   1.00
O475   O     0.10655   0.12709   0.50000   0.00000  Uiso   1.00
O476   O     0.16667   0.20625   0.42946   0.00000  Uiso   1.00
O477   O     0.16667   0.12708   0.57054   0.00000  Uiso   1.00
O478   O     0.16667   0.20625   0.57054   0.00000  Uiso   1.00
O479   O     0.16667   0.12708   0.42946   0.00000  Uiso   1.00
O480   O     0.13597   0.05141   0.38330   0.00000  Uiso   1.00
C481   C     0.42083   0.16667   0.50028   0.00000  Uiso   1.00
C482   C     0.35462   0.20862   0.50042   0.00000  Uiso   1.00
C483   C     0.62385   0.16671   0.49940   0.00000  Uiso   1.00
C484   C     0.37615   0.16671   0.50060   0.00000  Uiso   1.00
C485   C     0.47843   0.02462   0.46413   0.00000  Uiso   1.00
C486   C     0.52181   0.30864   0.53565   0.00000  Uiso   1.00
C487   C     0.52157   0.02462   0.53587   0.00000  Uiso   1.00
C488   C     0.47819   0.30864   0.46435   0.00000  Uiso   1.00
C489   C     0.45489   0.04851   0.42411   0.00000  Uiso   1.00
C490   C     0.54599   0.28459   0.57499   0.00000  Uiso   1.00
C491   C     0.54508   0.04851   0.57590   0.00000  Uiso   1.00
C492   C     0.57917   0.16667   0.49972   0.00000  Uiso   1.00
C493   C     0.45401   0.28458   0.42501   0.00000  Uiso   1.00
C494   C     0.49991   0.16667   0.40702   0.00000  Uiso   1.00
C495   C     0.50009   0.16667   0.59298   0.00000  Uiso   1.00
C496   C     0.49997   0.16666   0.35522   0.00000  Uiso   1.00
C497   C     0.50003   0.16666   0.64478   0.00000  Uiso   1.00
C498   C     0.35462   0.12481   0.50064   0.00000  Uiso   1.00
C499   C     0.64537   0.20862   0.49956   0.00000  Uiso   1.00
C500   C     0.64538   0.12481   0.49938   0.00000  Uiso   1.00
Cu501  Cu    0.50000   0.21355   0.50000   0.00000  Uiso   1.00
Cu502  Cu    0.50000   0.11978   0.50000   0.00000  Uiso   1.00
H503   H     0.37049   0.09199   0.50169   0.00000  Uiso   1.00
H504   H     0.62947   0.24145   0.49891   0.00000  Uiso   1.00
H505   H     0.62951   0.09199   0.49835   0.00000  Uiso   1.00
H506   H     0.37053   0.24145   0.50105   0.00000  Uiso   1.00
H507   H     0.40173   0.07874   0.40115   0.00000  Uiso   1.00
H508   H     0.55010   0.26539   0.64643   0.00000  Uiso   1.00
H509   H     0.59822   0.07881   0.59887   0.00000  Uiso   1.00
H510   H     0.44991   0.26539   0.35357   0.00000  Uiso   1.00
N511   N     0.50000   0.28402   0.50000   0.00000  Uiso   1.00
N512   N     0.50000   0.04931   0.50000   0.00000  Uiso   1.00
O513   O     0.43988   0.20625   0.50000   0.00000  Uiso   1.00
O514   O     0.41497   0.06386   0.43163   0.00000  Uiso   1.00
O515   O     0.58058   0.27062   0.56735   0.00000  Uiso   1.00
O516   O     0.53042   0.28148   0.62214   0.00000  Uiso   1.00
O517   O     0.53066   0.05139   0.61671   0.00000  Uiso   1.00
O518   O     0.58500   0.06392   0.56839   0.00000  Uiso   1.00
O519   O     0.41942   0.27060   0.43266   0.00000  Uiso   1.00
O520   O     0.46958   0.28149   0.37786   0.00000  Uiso   1.00
O521   O     0.56012   0.12709   0.50000   0.00000  Uiso   1.00
O522   O     0.56012   0.20625   0.50000   0.00000  Uiso   1.00
O523   O     0.43988   0.12709   0.50000   0.00000  Uiso   1.00
O524   O     0.50000   0.20625   0.42946   0.00000  Uiso   1.00
O525   O     0.50000   0.12708   0.57054   0.00000  Uiso   1.00
O526   O     0.50000   0.20625   0.57054   0.00000  Uiso   1.00
O527   O     0.50000   0.12708   0.42946   0.00000  Uiso   1.00
O528   O     0.46930   0.05141   0.38330   0.00000  Uiso   1.00
C529   C     0.75416   0.16667   0.50028   0.00000  Uiso   1.00
C530   C     0.68796   0.20862   0.50042   0.00000  Uiso   1.00
C531   C     0.95719   0.16671   0.49940   0.00000  Uiso   1.00
C532   C     0.70948   0.16671   0.50060   0.00000  Uiso   1.00
C533   C     0.81176   0.02462   0.46413   0.00000  Uiso   1.00
C534   C     0.85514   0.30864   0.53565   0.00000  Uiso   1.00
C535   C     0.85490   0.02462   0.53587   0.00000  Uiso   1.00
C536   C     0.81153   0.30864   0.46435   0.00000  Uiso   1.00
C537   C     0.78823   0.04851   0.42411   0.00000  Uiso   1.00
C538   C     0.87932   0.28459   0.57499   0.00000  Uiso   1.00
C539   C     0.87842   0.04851   0.57590   0.00000  Uiso   1.00
C540   C     0.91251   0.16667   0.49972   0.00000  Uiso   1.00
C541   C     0.78735   0.28458   0.42501   0.00000  Uiso   1.00
C542   C     0.83324   0.16667   0.40702   0.00000  Uiso   1.00
C543   C     0.83342   0.16667   0.59298   0.00000  Uiso   1.00
C544   C     0.83330   0.16666   0.35522   0.00000  Uiso   1.00
C545   C     0.83336   0.16666   0.64478   0.00000  Uiso   1.00
C546   C     0.68795   0.12481   0.50064   0.00000  Uiso   1.00
C547   C     0.97871   0.20862   0.49956   0.00000  Uiso   1.00
C548   C     0.97872   0.12481   0.49938   0.00000  Uiso   1.00
Cu549  Cu    0.83333   0.21355   0.50000   0.00000  Uiso   1.00
Cu550  Cu    0.83333   0.11978   0.50000   0.00000  Uiso   1.00
H551   H     0.70382   0.09199   0.50169   0.00000  Uiso   1.00
H552   H     0.96280   0.24145   0.49891   0.00000  Uiso   1.00
H553   H     0.96285   0.09199   0.49835   0.00000  Uiso   1.00
H554   H     0.70386   0.24145   0.50105   0.00000  Uiso   1.00
H555   H     0.73506   0.07874   0.40115   0.00000  Uiso   1.00
H556   H     0.88343   0.26539   0.64643   0.00000  Uiso   1.00
H557   H     0.93155   0.07881   0.59887   0.00000  Uiso   1.00
H558   H     0.78324   0.26539   0.35357   0.00000  Uiso   1.00
N559   N     0.83333   0.28402   0.50000   0.00000  Uiso   1.00
N560   N     0.83333   0.04931   0.50000   0.00000  Uiso   1.00
O561   O     0.77321   0.20625   0.50000   0.00000  Uiso   1.00
O562   O     0.74830   0.06386   0.43163   0.00000  Uiso   1.00
O563   O     0.91392   0.27062   0.56735   0.00000  Uiso   1.00
O564   O     0.86375   0.28148   0.62214   0.00000  Uiso   1.00
O565   O     0.86400   0.05139   0.61671   0.00000  Uiso   1.00
O566   O     0.91833   0.06392   0.56839   0.00000  Uiso   1.00
O567   O     0.75276   0.27060   0.43266   0.00000  Uiso   1.00
O568   O     0.80291   0.28149   0.37786   0.00000  Uiso   1.00
O569   O     0.89345   0.12709   0.50000   0.00000  Uiso   1.00
O570   O     0.89345   0.20625   0.50000   0.00000  Uiso   1.00
O571   O     0.77321   0.12709   0.50000   0.00000  Uiso   1.00
O572   O     0.83333   0.20625   0.42946   0.00000  Uiso   1.00
O573   O     0.83333   0.12708   0.57054   0.00000  Uiso   1.00
O574   O     0.83333   0.20625   0.57054   0.00000  Uiso   1.00
O575   O     0.83333   0.12708   0.42946   0.00000  Uiso   1.00
O576   O     0.80263   0.05141   0.38330   0.00000  Uiso   1.00
C577   C     0.08749   0.50001   0.50028   0.00000  Uiso   1.00
C578   C     0.02129   0.54196   0.50042   0.00000  Uiso   1.00
C579   C     0.29052   0.50004   0.49940   0.00000  Uiso   1.00
C580   C     0.04281   0.50004   0.50060   0.00000  Uiso   1.00
C581   C     0.14510   0.35796   0.46413   0.00000  Uiso   1.00
C582   C     0.18847   0.64197   0.53565   0.00000  Uiso   1.00
C583   C     0.18823   0.35796   0.53587   0.00000  Uiso   1.00
C584   C     0.14486   0.64197   0.46435   0.00000  Uiso   1.00
C585   C     0.12156   0.38184   0.42411   0.00000  Uiso   1.00
C586   C     0.21266   0.61792   0.57499   0.00000  Uiso   1.00
C587   C     0.21175   0.38184   0.57590   0.00000  Uiso   1.00
C588   C     0.24584   0.50001   0.49972   0.00000  Uiso   1.00
C589   C     0.12068   0.61792   0.42501   0.00000  Uiso   1.00
C590   C     0.16658   0.50000   0.40702   0.00000  Uiso   1.00
C591   C     0.16676   0.50000   0.59298   0.00000  Uiso   1.00
C592   C     0.16664   0.49999   0.35522   0.00000  Uiso   1.00
C593   C     0.16670   0.49999   0.64478   0.00000  Uiso   1.00
C594   C     0.02128   0.45815   0.50064   0.00000  Uiso   1.00
C595   C     0.31204   0.54196   0.49956   0.00000  Uiso   1.00
C596   C     0.31205   0.45815   0.49938   0.00000  Uiso   1.00
Cu597  Cu    0.16667   0.54689   0.50000   0.00000  Uiso   1.00
Cu598  Cu    0.16667   0.45311   0.50000   0.00000  Uiso   1.00
H599   H     0.03716   0.42532   0.50169   0.00000  Uiso   1.00
H600   H     0.29614   0.57478   0.49891   0.00000  Uiso   1.00
H601   H     0.29618   0.42532   0.49835   0.00000  Uiso   1.00
H602   H     0.03720   0.57478   0.50105   0.00000  Uiso   1.00
H603   H     0.06840   0.41208   0.40115   0.00000  Uiso   1.00
H604   H     0.21676   0.59872   0.64643   0.00000  Uiso   1.00
H605   H     0.26489   0.41214   0.59887   0.00000  Uiso   1.00
H606   H     0.11658   0.59872   0.35357   0.00000  Uiso   1.00
N607   N     0.16667   0.61736   0.50000   0.00000  Uiso   1.00
N608   N     0.16667   0.38264   0.50000   0.00000  Uiso   1.00
O609   O     0.10655   0.53958   0.50000   0.00000  Uiso   1.00
O610   O     0.08163   0.39719   0.43163   0.00000  Uiso   1.00
O611   O     0.24725   0.60395   0.56735   0.00000  Uiso   1.00
O612   O     0.19709   0.61481   0.62214   0.00000  Uiso   1.00
O613   O     0.19733   0.38472   0.61671   0.00000  Uiso   1.00
O614   O     0.25167   0.39725   0.56839   0.00000  Uiso   1.00
O615   O     0.08609   0.60393   0.43266   0.00000  Uiso   1.00
O616   O     0.13625   0.61482   0.37786   0.00000  Uiso   1.00
O617   O     0.22679   0.46042   0.50000   0.00000  Uiso   1.00
O618   O     0.22679   0.53958   0.50000   0.00000  Uiso   1.00
O619   O     0.10655   0.46042   0.50000   0.00000  Uiso   1.00
O620   O     0.16667   0.53959   0.42946   0.00000  Uiso   1.00
O621   O     0.16667   0.46041   0.57054   0.00000  Uiso   1.00
O622   O     0.16667   0.53959   0.57054   0.00000  Uiso   1.00
O623   O     0.16667   0.46041   0.42946   0.00000  Uiso   1.00
O624   O     0.13597   0.38475   0.38330   0.00000  Uiso   1.00
C625   C     0.42083   0.50001   0.50028   0.00000  Uiso   1.00
C626   C     0.35462   0.54196   0.50042   0.00000  Uiso   1.00
C627   C     0.62385   0.50004   0.49940   0.00000  Uiso   1.00
C628   C     0.37615   0.50004   0.50060   0.00000  Uiso   1.00
C629   C     0.47843   0.35796   0.46413   0.00000  Uiso   1.00
C630   C     0.52181   0.64197   0.53565   0.00000  Uiso   1.00
C631   C     0.52157   0.35796   0.53587   0.00000  Uiso   1.00
C632   C     0.47819   0.64197   0.46435   0.00000  Uiso   1.00
C633   C     0.45489   0.38184   0.42411   0.00000  Uiso   1.00
C634   C     0.54599   0.61792   0.57499   0.00000  Uiso   1.00
C635   C     0.54508   0.38184   0.57590   0.00000  Uiso   1.00
C636   C     0.57917   0.50001   0.49972   0.00000  Uiso   1.00
C637   C     0.45401   0.61792   0.42501   0.00000  Uiso   1.00
C638   C     0.49991   0.50000   0.40702   0.00000  Uiso   1.00
C639   C     0.50009   0.50000   0.59298   0.00000  Uiso   1.00
C640   C     0.49997   0.49999   0.35522   0.00000  Uiso   1.00
C641   C     0.50003   0.49999   0.64478   0.00000  Uiso   1.00
C642   C     0.35462   0.45815   0.50064   0.00000  Uiso   1.00
C643   C     0.64537   0.54196   0.49956   0.00000  Uiso   1.00
C644   C     0.64538   0.45815   0.49938   0.00000  Uiso   1.00
Cu645  Cu    0.50000   0.54689   0.50000   0.00000  Uiso   1.00
Cu646  Cu    0.50000   0.45311   0.50000   0.00000  Uiso   1.00
H647   H     0.37049   0.42532   0.50169   0.00000  Uiso   1.00
H648   H     0.62947   0.57478   0.49891   0.00000  Uiso   1.00
H649   H     0.62951   0.42532   0.49835   0.00000  Uiso   1.00
H650   H     0.37053   0.57478   0.50105   0.00000  Uiso   1.00
H651   H     0.40173   0.41208   0.40115   0.00000  Uiso   1.00
H652   H     0.55010   0.59872   0.64643   0.00000  Uiso   1.00
H653   H     0.59822   0.41214   0.59887   0.00000  Uiso   1.00
H654   H     0.44991   0.59872   0.35357   0.00000  Uiso   1.00
N655   N     0.50000   0.61736   0.50000   0.00000  Uiso   1.00
N656   N     0.50000   0.38264   0.50000   0.00000  Uiso   1.00
O657   O     0.43988   0.53958   0.50000   0.00000  Uiso   1.00
O658   O     0.41497   0.39719   0.43163   0.00000  Uiso   1.00
O659   O     0.58058   0.60395   0.56735   0.00000  Uiso   1.00
O660   O     0.53042   0.61481   0.62214   0.00000  Uiso   1.00
O661   O     0.53066   0.38472   0.61671   0.00000  Uiso   1.00
O662   O     0.58500   0.39725   0.56839   0.00000  Uiso   1.00
O663   O     0.41942   0.60393   0.43266   0.00000  Uiso   1.00
O664   O     0.46958   0.61482   0.37786   0.00000  Uiso   1.00
O665   O     0.56012   0.46042   0.50000   0.00000  Uiso   1.00
O666   O     0.56012   0.53958   0.50000   0.00000  Uiso   1.00
O667   O     0.43988   0.46042   0.50000   0.00000  Uiso   1.00
O668   O     0.50000   0.53959   0.42946   0.00000  Uiso   1.00
O669   O     0.50000   0.46041   0.57054   0.00000  Uiso   1.00
O670   O     0.50000   0.53959   0.57054   0.00000  Uiso   1.00
O671   O     0.50000   0.46041   0.42946   0.00000  Uiso   1.00
O672   O     0.46930   0.38475   0.38330   0.00000  Uiso   1.00
C673   C     0.75416   0.50001   0.50028   0.00000  Uiso   1.00
C674   C     0.68796   0.54196   0.50042   0.00000  Uiso   1.00
C675   C     0.95719   0.50004   0.49940   0.00000  Uiso   1.00
C676   C     0.70948   0.50004   0.50060   0.00000  Uiso   1.00
C677   C     0.81176   0.35796   0.46413   0.00000  Uiso   1.00
C678   C     0.85514   0.64197   0.53565   0.00000  Uiso   1.00
C679   C     0.85490   0.35796   0.53587   0.00000  Uiso   1.00
C680   C     0.81153   0.64197   0.46435   0.00000  Uiso   1.00
C681   C     0.78823   0.38184   0.42411   0.00000  Uiso   1.00
C682   C     0.87932   0.61792   0.57499   0.00000  Uiso   1.00
C683   C     0.87842   0.38184   0.57590   0.00000  Uiso   1.00
C684   C     0.91251   0.50001   0.49972   0.00000  Uiso   1.00
C685   C     0.78735   0.61792   0.42501   0.00000  Uiso   1.00
C686   C     0.83324   0.50000   0.40702   0.00000  Uiso   1.00
C687   C     0.83342   0.50000   0.59298   0.00000  Uiso   1.00
C688   C     0.83330   0.49999   0.35522   0.00000  Uiso   1.00
C689   C     0.83336   0.49999   0.64478   0.00000  Uiso   1.00
C690   C     0.68795   0.45815   0.50064   0.00000  Uiso   1.00
C691   C     0.97871   0.54196   0.49956   0.00000  Uiso   1.00
C692   C     0.97872   0.45815   0.49938   0.00000  Uiso   1.00
Cu693  Cu    0.83333   0.54689   0.50000   0.00000  Uiso   1.00
Cu694  Cu    0.83333   0.45311   0.50000   0.00000  Uiso   1.00
H695   H     0.70382   0.42532   0.50169   0.00000  Uiso   1.00
H696   H     0.96280   0.57478   0.49891   0.00000  Uiso   1.00
H697   H     0.96285   0.42532   0.49835   0.00000  Uiso   1.00
H698   H     0.70386   0.57478   0.50105   0.00000  Uiso   1.00
H699   H     0.73506   0.41208   0.40115   0.00000  Uiso   1.00
H700   H     0.88343   0.59872   0.64643   0.00000  Uiso   1.00
H701   H     0.93155   0.41214   0.59887   0.00000  Uiso   1.00
H702   H     0.78324   0.59872   0.35357   0.00000  Uiso   1.00
N703   N     0.83333   0.61736   0.50000   0.00000  Uiso   1.00
N704   N     0.83333   0.38264   0.50000   0.00000  Uiso   1.00
O705   O     0.77321   0.53958   0.50000   0.00000  Uiso   1.00
O706   O     0.74830   0.39719   0.43163   0.00000  Uiso   1.00
O707   O     0.91392   0.60395   0.56735   0.00000  Uiso   1.00
O708   O     0.86375   0.61481   0.62214   0.00000  Uiso   1.00
O709   O     0.86400   0.38472   0.61671   0.00000  Uiso   1.00
O710   O     0.91833   0.39725   0.56839   0.00000  Uiso   1.00
O711   O     0.75276   0.60393   0.43266   0.00000  Uiso   1.00
O712   O     0.80291   0.61482   0.37786   0.00000  Uiso   1.00
O713   O     0.89345   0.46042   0.50000   0.00000  Uiso   1.00
O714   O     0.89345   0.53958   0.50000   0.00000  Uiso   1.00
O715   O     0.77321   0.46042   0.50000   0.00000  Uiso   1.00
O716   O     0.83333   0.53959   0.42946   0.00000  Uiso   1.00
O717   O     0.83333   0.46041   0.57054   0.00000  Uiso   1.00
O718   O     0.83333   0.53959   0.57054   0.00000  Uiso   1.00
O719   O     0.83333   0.46041   0.42946   0.00000  Uiso   1.00
O720   O     0.80263   0.38475   0.38330   0.00000  Uiso   1.00
C721   C     0.08749   0.83334   0.50028   0.00000  Uiso   1.00
C722   C     0.02129   0.87529   0.50042   0.00000  Uiso   1.00
C723   C     0.29052   0.83337   0.49940   0.00000  Uiso   1.00
C724   C     0.04281   0.83337   0.50060   0.00000  Uiso   1.00
C725   C     0.14510   0.69129   0.46413   0.00000  Uiso   1.00
C726   C     0.18847   0.97531   0.53565   0.00000  Uiso   1.00
C727   C     0.18823   0.69129   0.53587   0.00000  Uiso   1.00
C728   C     0.14486   0.97531   0.46435   0.00000  Uiso   1.00
C729   C     0.12156   0.71518   0.42411   0.00000  Uiso   1.00
C730   C     0.21266   0.95125   0.57499   0.00000  Uiso   1.00
C731   C     0.21175   0.71518   0.57590   0.00000  Uiso   1.00
C732   C     0.24584   0.83334   0.49972   0.00000  Uiso   1.00
C733   C     0.12068   0.95125   0.42501   0.00000  Uiso   1.00
C734   C     0.16658   0.83333   0.40702   0.00000  Uiso   1.00
C735   C     0.16676   0.83333   0.59298   0.00000  Uiso   1.00
C736   C     0.16664   0.83333   0.35522   0.00000  Uiso   1.00
C737   C     0.16670   0.83333   0.64478   0.00000  Uiso   1.00
C738   C     0.02128   0.79148   0.50064   0.00000  Uiso   1.00
C739   C     0.31204   0.87529   0.49956   0.00000  Uiso   1.00
C740   C     0.31205   0.79148   0.49938   0.00000  Uiso   1.00
Cu741  Cu    0.16667   0.88022   0.50000   0.00000  Uiso   1.00
Cu742  Cu    0.16667   0.78645   0.50000   0.00000  Uiso   1.00
H743   H     0.03716   0.75865   0.50169   0.00000  Uiso   1.00
H744   H     0.29614   0.90811   0.49891   0.00000  Uiso   1.00
H745   H     0.29618   0.75865   0.49835   0.00000  Uiso   1.00
H746   H     0.03720   0.90812   0.50105   0.00000  Uiso   1.00
H747   H     0.06840   0.74541   0.40115   0.00000  Uiso   1.00
H748   H     0.21676   0.93206   0.64643   0.00000  Uiso   1.00
H749   H     0.26489   0.74548   0.59887   0.00000  Uiso   1.00
H750   H     0.11658   0.93205   0.35357   0.00000  Uiso   1.00
N751   N     0.16667   0.95069   0.50000   0.00000  Uiso   1.00
N752   N     0.16667   0.71598   0.50000   0.00000  Uiso   1.00
O753   O     0.10655   0.87291   0.50000   0.00000  Uiso   1.00
O754   O     0.08163   0.73052   0.43163   0.00000  Uiso   1.00
O755   O     0.24725   0.93729   0.56735   0.00000  Uiso   1.00
O756   O     0.19709   0.94814   0.62214   0.00000  Uiso   1.00
O757   O     0.19733   0.71805   0.61671   0.00000  Uiso   1.00
O758   O     0.25167   0.73058   0.56839   0.00000  Uiso   1.00
O759   O     0.08609   0.93727   0.43266   0.00000  Uiso   1.00
O760   O     0.13625   0.94815   0.37786   0.00000  Uiso   1.00
O761   O     0.22679   0.79375   0.50000   0.00000  Uiso   1.00
O762   O     0.22679   0.87291   0.50000   0.00000  Uiso   1.00
O763   O     0.10655   0.79375   0.50000   0.00000  Uiso   1.00
O764   O     0.16667   0.87292   0.42946   0.00000  Uiso   1.00
O765   O     0.16667   0.79375   0.57054   0.00000  Uiso   1.00
O766   O     0.16667   0.87292   0.57054   0.00000  Uiso   1.00
O767   O     0.16667   0.79375   0.42946   0.00000  Uiso   1.00
O768   O     0.13597   0.71808   0.38330   0.00000  Uiso   1.00
C769   C     0.42083   0.83334   0.50028   0.00000  Uiso   1.00
C770   C     0.35462   0.87529   0.50042   0.00000  Uiso   1.00
C771   C     0.62385   0.83337   0.49940   0.00000  Uiso   1.00
C772   C     0.37615   0.83337   0.50060   0.00000  Uiso   1.00
C773   C     0.47843   0.69129   0.46413   0.00000  Uiso   1.00
C774   C     0.52181   0.97531   0.53565   0.00000  Uiso   1.00
C775   C     0.52157   0.69129   0.53587   0.00000  Uiso   1.00
C776   C     0.47819   0.97531   0.46435   0.00000  Uiso   1.00
C777   C     0.45489   0.71518   0.42411   0.00000  Uiso   1.00
C778   C     0.54599   0.95125   0.57499   0.00000  Uiso   1.00
C779   C     0.54508   0.71518   0.57590   0.00000  Uiso   1.00
C780   C     0.57917   0.83334   0.49972   0.00000  Uiso   1.00
C781   C     0.45401   0.95125   0.42501   0.00000  Uiso   1.00
C782   C     0.49991   0.83333   0.40702   0.00000  Uiso   1.00
C783   C     0.50009   0.83333   0.59298   0.00000  Uiso   1.00
C784   C     0.49997   0.83333   0.35522   0.00000  Uiso   1.00
C785   C     0.50003   0.83333   0.64478   0.00000  Uiso   1.00
C786   C     0.35462   0.79148   0.50064   0.00000  Uiso   1.00
C787   C     0.64537   0.87529   0.49956   0.00000  Uiso   1.00
C788   C     0.64538   0.79148   0.49938   0.00000  Uiso   1.00
Cu789  Cu    0.50000   0.88022   0.50000   0.00000  Uiso   1.00
Cu790  Cu    0.50000   0.78645   0.50000   0.00000  Uiso   1.00
H791   H     0.37049   0.75865   0.50169   0.00000  Uiso   1.00
H792   H     0.62947   0.90811   0.49891   0.00000  Uiso   1.00
H793   H     0.62951   0.75865   0.49835   0.00000  Uiso   1.00
H794   H     0.37053   0.90812   0.50105   0.00000  Uiso   1.00
H795   H     0.40173   0.74541   0.40115   0.00000  Uiso   1.00
H796   H     0.55010   0.93206   0.64643   0.00000  Uiso   1.00
H797   H     0.59822   0.74548   0.59887   0.00000  Uiso   1.00
H798   H     0.44991   0.93205   0.35357   0.00000  Uiso   1.00
N799   N     0.50000   0.95069   0.50000   0.00000  Uiso   1.00
N800   N     0.50000   0.71598   0.50000   0.00000  Uiso   1.00
O801   O     0.43988   0.87291   0.50000   0.00000  Uiso   1.00
O802   O     0.41497   0.73052   0.43163   0.00000  Uiso   1.00
O803   O     0.58058   0.93729   0.56735   0.00000  Uiso   1.00
O804   O     0.53042   0.94814   0.62214   0.00000  Uiso   1.00
O805   O     0.53066   0.71805   0.61671   0.00000  Uiso   1.00
O806   O     0.58500   0.73058   0.56839   0.00000  Uiso   1.00
O807   O     0.41942   0.93727   0.43266   0.00000  Uiso   1.00
O808   O     0.46958   0.94815   0.37786   0.00000  Uiso   1.00
O809   O     0.56012   0.79375   0.50000   0.00000  Uiso   1.00
O810   O     0.56012   0.87291   0.50000   0.00000  Uiso   1.00
O811   O     0.43988   0.79375   0.50000   0.00000  Uiso   1.00
O812   O     0.50000   0.87292   0.42946   0.00000  Uiso   1.00
O813   O     0.50000   0.79375   0.57054   0.00000  Uiso   1.00
O814   O     0.50000   0.87292   0.57054   0.00000  Uiso   1.00
O815   O     0.50000   0.79375   0.42946   0.00000  Uiso   1.00
O816   O     0.46930   0.71808   0.38330   0.00000  Uiso   1.00
C817   C     0.75416   0.83334   0.50028   0.00000  Uiso   1.00
C818   C     0.68796   0.87529   0.50042   0.00000  Uiso   1.00
C819   C     0.95719   0.83337   0.49940   0.00000  Uiso   1.00
C820   C     0.70948   0.83337   0.50060   0.00000  Uiso   1.00
C821   C     0.81176   0.69129   0.46413   0.00000  Uiso   1.00
C822   C     0.85514   0.97531   0.53565   0.00000  Uiso   1.00
C823   C     0.85490   0.69129   0.53587   0.00000  Uiso   1.00
C824   C     0.81153   0.97531   0.46435   0.00000  Uiso   1.00
C825   C     0.78823   0.71518   0.42411   0.00000  Uiso   1.00
C826   C     0.87932   0.95125   0.57499   0.00000  Uiso   1.00
C827   C     0.87842   0.71518   0.57590   0.00000  Uiso   1.00
C828   C     0.91251   0.83334   0.49972   0.00000  Uiso   1.00
C829   C     0.78735   0.95125   0.42501   0.00000  Uiso   1.00
C830   C     0.83324   0.83333   0.40702   0.00000  Uiso   1.00
C831   C     0.83342   0.83333   0.59298   0.00000  Uiso   1.00
C832   C     0.83330   0.83333   0.35522   0.00000  Uiso   1.00
C833   C     0.83336   0.83333   0.64478   0.00000  Uiso   1.00
C834   C     0.68795   0.79148   0.50064   0.00000  Uiso   1.00
C835   C     0.97871   0.87529   0.49956   0.00000  Uiso   1.00
C836   C     0.97872   0.79148   0.49938   0.00000  Uiso   1.00
Cu837  Cu    0.83333   0.88022   0.50000   0.00000  Uiso   1.00
Cu838  Cu    0.83333   0.78645   0.50000   0.00000  Uiso   1.00
H839   H     0.70382   0.75865   0.50169   0.00000  Uiso   1.00
H840   H     0.96280   0.90811   0.49891   0.00000  Uiso   1.00
H841   H     0.96285   0.75865   0.49835   0.00000  Uiso   1.00
H842   H     0.70386   0.90812   0.50105   0.00000  Uiso   1.00
H843   H     0.73506   0.74541   0.40115   0.00000  Uiso   1.00
H844   H     0.88343   0.93206   0.64643   0.00000  Uiso   1.00
H845   H     0.93155   0.74548   0.59887   0.00000  Uiso   1.00
H846   H     0.78324   0.93205   0.35357   0.00000  Uiso   1.00
N847   N     0.83333   0.95069   0.50000   0.00000  Uiso   1.00
N848   N     0.83333   0.71598   0.50000   0.00000  Uiso   1.00
O849   O     0.77321   0.87291   0.50000   0.00000  Uiso   1.00
O850   O     0.74830   0.73052   0.43163   0.00000  Uiso   1.00
O851   O     0.91392   0.93729   0.56735   0.00000  Uiso   1.00
O852   O     0.86375   0.94814   0.62214   0.00000  Uiso   1.00
O853   O     0.86400   0.71805   0.61671   0.00000  Uiso   1.00
O854   O     0.91833   0.73058   0.56839   0.00000  Uiso   1.00
O855   O     0.75276   0.93727   0.43266   0.00000  Uiso   1.00
O856   O     0.80291   0.94815   0.37786   0.00000  Uiso   1.00
O857   O     0.89345   0.79375   0.50000   0.00000  Uiso   1.00
O858   O     0.89345   0.87291   0.50000   0.00000  Uiso   1.00
O859   O     0.77321   0.79375   0.50000   0.00000  Uiso   1.00
O860   O     0.83333   0.87292   0.42946   0.00000  Uiso   1.00
O861   O     0.83333   0.79375   0.57054   0.00000  Uiso   1.00
O862   O     0.83333   0.87292   0.57054   0.00000  Uiso   1.00
O863   O     0.83333   0.79375   0.42946   0.00000  Uiso   1.00
O864   O     0.80263   0.71808   0.38330   0.00000  Uiso   1.00
C865   C     0.08749   0.16667   0.83362   0.00000  Uiso   1.00
C866   C     0.02129   0.20862   0.83375   0.00000  Uiso   1.00
C867   C     0.29052   0.16671   0.83273   0.00000  Uiso   1.00
C868   C     0.04281   0.16671   0.83393   0.00000  Uiso   1.00
C869   C     0.14510   0.02462   0.79746   0.00000  Uiso   1.00
C870   C     0.18847   0.30864   0.86898   0.00000  Uiso   1.00
C871   C     0.18823   0.02462   0.86921   0.00000  Uiso   1.00
C872   C     0.14486   0.30864   0.79769   0.00000  Uiso   1.00
C873   C     0.12156   0.04851   0.75745   0.00000  Uiso   1.00
C874   C     0.21266   0.28459   0.90833   0.00000  Uiso   1.00
C875   C     0.21175   0.04851   0.90923   0.00000  Uiso   1.00
C876   C     0.24584   0.16667   0.83305   0.00000  Uiso   1.00
C877   C     0.12068   0.28458   0.75834   0.00000  Uiso   1.00
C878   C     0.16658   0.16667   0.74035   0.00000  Uiso   1.00
C879   C     0.16676   0.16667   0.92632   0.00000  Uiso   1.00
C880   C     0.16664   0.16666   0.68856   0.00000  Uiso   1.00
C881   C     0.16670   0.16666   0.97811   0.00000  Uiso   1.00
C882   C     0.02128   0.12481   0.83397   0.00000  Uiso   1.00
C883   C     0.31204   0.20862   0.83289   0.00000  Uiso   1.00
C884   C     0.31205   0.12481   0.83271   0.00000  Uiso   1.00
Cu885  Cu    0.16667   0.21355   0.83333   0.00000  Uiso   1.00
Cu886  Cu    0.16667   0.11978   0.83333   0.00000  Uiso   1.00
H887   H     0.03716   0.09199   0.83502   0.00000  Uiso   1.00
H888   H     0.29614   0.24145   0.83225   0.00000  Uiso   1.00
H889   H     0.29618   0.09199   0.83168   0.00000  Uiso   1.00
H890   H     0.03720   0.24145   0.83438   0.00000  Uiso   1.00
H891   H     0.06840   0.07874   0.73449   0.00000  Uiso   1.00
H892   H     0.21676   0.26539   0.97976   0.00000  Uiso   1.00
H893   H     0.26489   0.07881   0.93221   0.00000  Uiso   1.00
H894   H     0.11658   0.26539   0.68690   0.00000  Uiso   1.00
N895   N     0.16667   0.28402   0.83333   0.00000  Uiso   1.00
N896   N     0.16667   0.04931   0.83333   0.00000  Uiso   1.00
O897   O     0.10655   0.20625   0.83333   0.00000  Uiso   1.00
O898   O     0.08163   0.06386   0.76497   0.00000  Uiso   1.00
O899   O     0.24725   0.27062   0.90068   0.00000  Uiso   1.00
O900   O     0.19709   0.28148   0.95547   0.00000  Uiso   1.00
O901   O     0.19733   0.05139   0.95005   0.00000  Uiso   1.00
O902   O     0.25167   0.06392   0.90173   0.00000  Uiso   1.00
O903   O     0.08609   0.27060   0.76599   0.00000  Uiso   1.00
O904   O     0.13625   0.28149   0.71119   0.00000  Uiso   1.00
O905   O     0.22679   0.12709   0.83334   0.00000  Uiso   1.00
O906   O     0.22679   0.20625   0.83334   0.00000  Uiso   1.00
O907   O     0.10655   0.12709   0.83333   0.00000  Uiso   1.00
O908   O     0.16667   0.20625   0.76280   0.00000  Uiso   1.00
O909   O     0.16667   0.12708   0.90387   0.00000  Uiso   1.00
O910   O     0.16667   0.20625   0.90387   0.00000  Uiso   1.00
O911   O     0.16667   0.12708   0.76280   0.00000  Uiso   1.00
O912   O     0.13597   0.05141   0.71663   0.00000  Uiso   1.00
C913   C     0.42083   0.16667   0.83362   0.00000  Uiso   1.00
C914   C     0.35462   0.20862   0.83375   0.00000  Uiso   1.00
C915   C     0.62385   0.16671   0.83273   0.00000  Uiso   1.00
C916   C     0.37615   0.16671   0.83393   0.00000  Uiso   1.00
C917   C     0.47843   0.02462   0.79746   0.00000  Uiso   1.00
C918   C     0.52181   0.30864   0.86898   0.00000  Uiso   1.00
C919   C     0.52157   0.02462   0.86921   0.00000  Uiso   1.00
C920   C     0.47819   0.30864   0.79769   0.00000  Uiso   1.00
C921   C     0.45489   0.04851   0.75745   0.00000  Uiso   1.00
C922   C     0.54599   0.28459   0.90833   0.00000  Uiso   1.00
C923   C     0.54508   0.04851   0.90923   0.00000  Uiso   1.00
C924   C     0.57917   0.16667   0.83305   0.00000  Uiso   1.00
C925   C     0.45401   0.28458   0.75834   0.00000  Uiso   1.00
C926   C     0.49991   0.16667   0.74035   0.00000  Uiso   1.00
C927   C     0.50009   0.16667   0.92632   0.00000  Uiso   1.00
C928   C     0.49997   0.16666   0.68856   0.00000  Uiso   1.00
C929   C     0.50003   0.16666   0.97811   0.00000  Uiso   1.00
C930   C     0.35462   0.12481   0.83397   0.00000  Uiso   1.00
C931   C     0.64537   0.20862   0.83289   0.00000  Uiso   1.00
C932   C     0.64538   0.12481   0.83271   0.00000  Uiso   1.00
Cu933  Cu    0.50000   0.21355   0.83333   0.00000  Uiso   1.00
Cu934  Cu    0.50000   0.11978   0.83333   0.00000  Uiso   1.00
H935   H     0.37049   0.09199   0.83502   0.00000  Uiso   1.00
H936   H     0.62947   0.24145   0.83225   0.00000  Uiso   1.00
H937   H     0.62951   0.09199   0.83168   0.00000  Uiso   1.00
H938   H     0.37053   0.24145   0.83438   0.00000  Uiso   1.00
H939   H     0.40173   0.07874   0.73449   0.00000  Uiso   1.00
H940   H     0.55010   0.26539   0.97976   0.00000  Uiso   1.00
H941   H     0.59822   0.07881   0.93221   0.00000  Uiso   1.00
H942   H     0.44991   0.26539   0.68690   0.00000  Uiso   1.00
N943   N     0.50000   0.28402   0.83333   0.00000  Uiso   1.00
N944   N     0.50000   0.04931   0.83333   0.00000  Uiso   1.00
O945   O     0.43988   0.20625   0.83333   0.00000  Uiso   1.00
O946   O     0.41497   0.06386   0.76497   0.00000  Uiso   1.00
O947   O     0.58058   0.27062   0.90068   0.00000  Uiso   1.00
O948   O     0.53042   0.28148   0.95547   0.00000  Uiso   1.00
O949   O     0.53066   0.05139   0.95005   0.00000  Uiso   1.00
O950   O     0.58500   0.06392   0.90173   0.00000  Uiso   1.00
O951   O     0.41942   0.27060   0.76599   0.00000  Uiso   1.00
O952   O     0.46958   0.28149   0.71119   0.00000  Uiso   1.00
O953   O     0.56012   0.12709   0.83334   0.00000  Uiso   1.00
O954   O     0.56012   0.20625   0.83334   0.00000  Uiso   1.00
O955   O     0.43988   0.12709   0.83333   0.00000  Uiso   1.00
O956   O     0.50000   0.20625   0.76280   0.00000  Uiso   1.00
O957   O     0.50000   0.12708   0.90387   0.00000  Uiso   1.00
O958   O     0.50000   0.20625   0.90387   0.00000  Uiso   1.00
O959   O     0.50000   0.12708   0.76280   0.00000  Uiso   1.00
O960   O     0.46930   0.05141   0.71663   0.00000  Uiso   1.00
C961   C     0.75416   0.16667   0.83362   0.00000  Uiso   1.00
C962   C     0.68796   0.20862   0.83375   0.00000  Uiso   1.00
C963   C     0.95719   0.16671   0.83273   0.00000  Uiso   1.00
C964   C     0.70948   0.16671   0.83393   0.00000  Uiso   1.00
C965   C     0.81176   0.02462   0.79746   0.00000  Uiso   1.00
C966   C     0.85514   0.30864   0.86898   0.00000  Uiso   1.00
C967   C     0.85490   0.02462   0.86921   0.00000  Uiso   1.00
C968   C     0.81153   0.30864   0.79769   0.00000  Uiso   1.00
C969   C     0.78823   0.04851   0.75745   0.00000  Uiso   1.00
C970   C     0.87932   0.28459   0.90833   0.00000  Uiso   1.00
C971   C     0.87842   0.04851   0.90923   0.00000  Uiso   1.00
C972   C     0.91251   0.16667   0.83305   0.00000  Uiso   1.00
C973   C     0.78735   0.28458   0.75834   0.00000  Uiso   1.00
C974   C     0.83324   0.16667   0.74035   0.00000  Uiso   1.00
C975   C     0.83342   0.16667   0.92632   0.00000  Uiso   1.00
C976   C     0.83330   0.16666   0.68856   0.00000  Uiso   1.00
C977   C     0.83336   0.16666   0.97811   0.00000  Uiso   1.00
C978   C     0.68795   0.12481   0.83397   0.00000  Uiso   1.00
C979   C     0.97871   0.20862   0.83289   0.00000  Uiso   1.00
C980   C     0.97872   0.12481   0.83271   0.00000  Uiso   1.00
Cu981  Cu    0.83333   0.21355   0.83333   0.00000  Uiso   1.00
Cu982  Cu    0.83333   0.11978   0.83333   0.00000  Uiso   1.00
H983   H     0.70382   0.09199   0.83502   0.00000  Uiso   1.00
H984   H     0.96280   0.24145   0.83225   0.00000  Uiso   1.00
H985   H     0.96285   0.09199   0.83168   0.00000  Uiso   1.00
H986   H     0.70386   0.24145   0.83438   0.00000  Uiso   1.00
H987   H     0.73506   0.07874   0.73449   0.00000  Uiso   1.00
H988   H     0.88343   0.26539   0.97976   0.00000  Uiso   1.00
H989   H     0.93155   0.07881   0.93221   0.00000  Uiso   1.00
H990   H     0.78324   0.26539   0.68690   0.00000  Uiso   1.00
N991   N     0.83333   0.28402   0.83333   0.00000  Uiso   1.00
N992   N     0.83333   0.04931   0.83333   0.00000  Uiso   1.00
O993   O     0.77321   0.20625   0.83333   0.00000  Uiso   1.00
O994   O     0.74830   0.06386   0.76497   0.00000  Uiso   1.00
O995   O     0.91392   0.27062   0.90068   0.00000  Uiso   1.00
O996   O     0.86375   0.28148   0.95547   0.00000  Uiso   1.00
O997   O     0.86400   0.05139   0.95005   0.00000  Uiso   1.00
O998   O     0.91833   0.06392   0.90173   0.00000  Uiso   1.00
O999   O     0.75276   0.27060   0.76599   0.00000  Uiso   1.00
O1000  O     0.80291   0.28149   0.71119   0.00000  Uiso   1.00
O1001  O     0.89345   0.12709   0.83334   0.00000  Uiso   1.00
O1002  O     0.89345   0.20625   0.83334   0.00000  Uiso   1.00
O1003  O     0.77321   0.12709   0.83333   0.00000  Uiso   1.00
O1004  O     0.83333   0.20625   0.76280   0.00000  Uiso   1.00
O1005  O     0.83333   0.12708   0.90387   0.00000  Uiso   1.00
O1006  O     0.83333   0.20625   0.90387   0.00000  Uiso   1.00
O1007  O     0.83333   0.12708   0.76280   0.00000  Uiso   1.00
O1008  O     0.80263   0.05141   0.71663   0.00000  Uiso   1.00
C1009  C     0.08749   0.50001   0.83362   0.00000  Uiso   1.00
C1010  C     0.02129   0.54196   0.83375   0.00000  Uiso   1.00
C1011  C     0.29052   0.50004   0.83273   0.00000  Uiso   1.00
C1012  C     0.04281   0.50004   0.83393   0.00000  Uiso   1.00
C1013  C     0.14510   0.35796   0.79746   0.00000  Uiso   1.00
C1014  C     0.18847   0.64197   0.86898   0.00000  Uiso   1.00
C1015  C     0.18823   0.35796   0.86921   0.00000  Uiso   1.00
C1016  C     0.14486   0.64197   0.79769   0.00000  Uiso   1.00
C1017  C     0.12156   0.38184   0.75745   0.00000  Uiso   1.00
C1018  C     0.21266   0.61792   0.90833   0.00000  Uiso   1.00
C1019  C     0.21175   0.38184   0.90923   0.00000  Uiso   1.00
C1020  C     0.24584   0.50001   0.83305   0.00000  Uiso   1.00
C1021  C     0.12068   0.61792   0.75834   0.00000  Uiso   1.00
C1022  C     0.16658   0.50000   0.74035   0.00000  Uiso   1.00
C1023  C     0.16676   0.50000   0.92632   0.00000  Uiso   1.00
C1024  C     0.16664   0.49999   0.68856   0.00000  Uiso   1.00
C1025  C     0.16670   0.49999   0.97811   0.00000  Uiso   1.00
C1026  C     0.02128   0.45815   0.83397   0.00000  Uiso   1.00
C1027  C     0.31204   0.54196   0.83289   0.00000  Uiso   1.00
C1028  C     0.31205   0.45815   0.83271   0.00000  Uiso   1.00
Cu1029 Cu    0.16667   0.54689   0.83333   0.00000  Uiso   1.00
Cu1030 Cu    0.16667   0.45311   0.83333   0.00000  Uiso   1.00
H1031  H     0.03716   0.42532   0.83502   0.00000  Uiso   1.00
H1032  H     0.29614   0.57478   0.83225   0.00000  Uiso   1.00
H1033  H     0.29618   0.42532   0.83168   0.00000  Uiso   1.00
H1034  H     0.03720   0.57478   0.83438   0.00000  Uiso   1.00
H1035  H     0.06840   0.41208   0.73449   0.00000  Uiso   1.00
H1036  H     0.21676   0.59872   0.97976   0.00000  Uiso   1.00
H1037  H     0.26489   0.41214   0.93221   0.00000  Uiso   1.00
H1038  H     0.11658   0.59872   0.68690   0.00000  Uiso   1.00
N1039  N     0.16667   0.61736   0.83333   0.00000  Uiso   1.00
N1040  N     0.16667   0.38264   0.83333   0.00000  Uiso   1.00
O1041  O     0.10655   0.53958   0.83333   0.00000  Uiso   1.00
O1042  O     0.08163   0.39719   0.76497   0.00000  Uiso   1.00
O1043  O     0.24725   0.60395   0.90068   0.00000  Uiso   1.00
O1044  O     0.19709   0.61481   0.95547   0.00000  Uiso   1.00
O1045  O     0.19733   0.38472   0.95005   0.00000  Uiso   1.00
O1046  O     0.25167   0.39725   0.90173   0.00000  Uiso   1.00
O1047  O     0.08609   0.60393   0.76599   0.00000  Uiso   1.00
O1048  O     0.13625   0.61482   0.71119   0.00000  Uiso   1.00
O1049  O     0.22679   0.46042   0.83334   0.00000  Uiso   1.00
O1050  O     0.22679   0.53958   0.83334   0.00000  Uiso   1.00
O1051  O     0.10655   0.46042   0.83333   0.00000  Uiso   1.00
O1052  O     0.16667   0.53959   0.76280   0.00000  Uiso   1.00
O1053  O     0.16667   0.46041   0.90387   0.00000  Uiso   1.00
O1054  O     0.16667   0.53959   0.90387   0.00000  Uiso   1.00
O1055  O     0.16667   0.46041   0.76280   0.00000  Uiso   1.00
O1056  O     0.13597   0.38475   0.71663   0.00000  Uiso   1.00
C1057  C     0.42083   0.50001   0.83362   0.00000  Uiso   1.00
C1058  C     0.35462   0.54196   0.83375   0.00000  Uiso   1.00
C1059  C     0.62385   0.50004   0.83273   0.00000  Uiso   1.00
C1060  C     0.37615   0.50004   0.83393   0.00000  Uiso   1.00
C1061  C     0.47843   0.35796   0.79746   0.00000  Uiso   1.00
C1062  C     0.52181   0.64197   0.86898   0.00000  Uiso   1.00
C1063  C     0.52157   0.35796   0.86921   0.00000  Uiso   1.00
C1064  C     0.47819   0.64197   0.79769   0.00000  Uiso   1.00
C1065  C     0.45489   0.38184   0.75745   0.00000  Uiso   1.00
C1066  C     0.54599   0.61792   0.90833   0.00000  Uiso   1.00
C1067  C     0.54508   0.38184   0.90923   0.00000  Uiso   1.00
C1068  C     0.57917   0.50001   0.83305   0.00000  Uiso   1.00
C1069  C     0.45401   0.61792   0.75834   0.00000  Uiso   1.00
C1070  C     0.49991   0.50000   0.74035   0.00000  Uiso   1.00
C1071  C     0.50009   0.50000   0.92632   0.00000  Uiso   1.00
C1072  C     0.49997   0.49999   0.68856   0.00000  Uiso   1.00
C1073  C     0.50003   0.49999   0.97811   0.00000  Uiso   1.00
C1074  C     0.35462   0.45815   0.83397   0.00000  Uiso   1.00
C1075  C     0.64537   0.54196   0.83289   0.00000  Uiso   1.00
C1076  C     0.64538   0.45815   0.83271   0.00000  Uiso   1.00
Cu1077 Cu    0.50000   0.54689   0.83333   0.00000  Uiso   1.00
Cu1078 Cu    0.50000   0.45311   0.83333   0.00000  Uiso   1.00
H1079  H     0.37049   0.42532   0.83502   0.00000  Uiso   1.00
H1080  H     0.62947   0.57478   0.83225   0.00000  Uiso   1.00
H1081  H     0.62951   0.42532   0.83168   0.00000  Uiso   1.00
H1082  H     0.37053   0.57478   0.83438   0.00000  Uiso   1.00
H1083  H     0.40173   0.41208   0.73449   0.00000  Uiso   1.00
H1084  H     0.55010   0.59872   0.97976   0.00000  Uiso   1.00
H1085  H     0.59822   0.41214   0.93221   0.00000  Uiso   1.00
H1086  H     0.44991   0.59872   0.68690   0.00000  Uiso   1.00
N1087  N     0.50000   0.61736   0.83333   0.00000  Uiso   1.00
N1088  N     0.50000   0.38264   0.83333   0.00000  Uiso   1.00
O1089  O     0.43988   0.53958   0.83333   0.00000  Uiso   1.00
O1090  O     0.41497   0.39719   0.76497   0.00000  Uiso   1.00
O1091  O     0.58058   0.60395   0.90068   0.00000  Uiso   1.00
O1092  O     0.53042   0.61481   0.95547   0.00000  Uiso   1.00
O1093  O     0.53066   0.38472   0.95005   0.00000  Uiso   1.00
O1094  O     0.58500   0.39725   0.90173   0.00000  Uiso   1.00
O1095  O     0.41942   0.60393   0.76599   0.00000  Uiso   1.00
O1096  O     0.46958   0.61482   0.71119   0.00000  Uiso   1.00
O1097  O     0.56012   0.46042   0.83334   0.00000  Uiso   1.00
O1098  O     0.56012   0.53958   0.83334   0.00000  Uiso   1.00
O1099  O     0.43988   0.46042   0.83333   0.00000  Uiso   1.00
O1100  O     0.50000   0.53959   0.76280   0.00000  Uiso   1.00
O1101  O     0.50000   0.46041   0.90387   0.00000  Uiso   1.00
O1102  O     0.50000   0.53959   0.90387   0.00000  Uiso   1.00
O1103  O     0.50000   0.46041   0.76280   0.00000  Uiso   1.00
O1104  O     0.46930   0.38475   0.71663   0.00000  Uiso   1.00
C1105  C     0.75416   0.50001   0.83362   0.00000  Uiso   1.00
C1106  C     0.68796   0.54196   0.83375   0.00000  Uiso   1.00
C1107  C     0.95719   0.50004   0.83273   0.00000  Uiso   1.00
C1108  C     0.70948   0.50004   0.83393   0.00000  Uiso   1.00
C1109  C     0.81176   0.35796   0.79746   0.00000  Uiso   1.00
C1110  C     0.85514   0.64197   0.86898   0.00000  Uiso   1.00
C1111  C     0.85490   0.35796   0.86921   0.00000  Uiso   1.00
C1112  C     0.81153   0.64197   0.79769   0.00000  Uiso   1.00
C1113  C     0.78823   0.38184   0.75745   0.00000  Uiso   1.00
C1114  C     0.87932   0.61792   0.90833   0.00000  Uiso   1.00
C1115  C     0.87842   0.38184   0.90923   0.00000  Uiso   1.00
C1116  C     0.91251   0.50001   0.83305   0.00000  Uiso   1.00
C1117  C     0.78735   0.61792   0.75834   0.00000  Uiso   1.00
C1118  C     0.83324   0.50000   0.74035   0.00000  Uiso   1.00
C1119  C     0.83342   0.50000   0.92632   0.00000  Uiso   1.00
C1120  C     0.83330   0.49999   0.68856   0.00000  Uiso   1.00
C1121  C     0.83336   0.49999   0.97811   0.00000  Uiso   1.00
C1122  C     0.68795   0.45815   0.83397   0.00000  Uiso   1.00
C1123  C     0.97871   0.54196   0.83289   0.00000  Uiso   1.00
C1124  C     0.97872   0.45815   0.83271   0.00000  Uiso   1.00
Cu1125 Cu    0.83333   0.54689   0.83333   0.00000  Uiso   1.00
Cu1126 Cu    0.83333   0.45311   0.83333   0.00000  Uiso   1.00
H1127  H     0.70382   0.42532   0.83502   0.00000  Uiso   1.00
H1128  H     0.96280   0.57478   0.83225   0.00000  Uiso   1.00
H1129  H     0.96285   0.42532   0.83168   0.00000  Uiso   1.00
H1130  H     0.70386   0.57478   0.83438   0.00000  Uiso   1.00
H1131  H     0.73506   0.41208   0.73449   0.00000  Uiso   1.00
H1132  H     0.88343   0.59872   0.97976   0.00000  Uiso   1.00
H1133  H     0.93155   0.41214   0.93221   0.00000  Uiso   1.00
H1134  H     0.78324   0.59872   0.68690   0.00000  Uiso   1.00
N1135  N     0.83333   0.61736   0.83333   0.00000  Uiso   1.00
N1136  N     0.83333   0.38264   0.83333   0.00000  Uiso   1.00
O1137  O     0.77321   0.53958   0.83333   0.00000  Uiso   1.00
O1138  O     0.74830   0.39719   0.76497   0.00000  Uiso   1.00
O1139  O     0.91392   0.60395   0.90068   0.00000  Uiso   1.00
O1140  O     0.86375   0.61481   0.95547   0.00000  Uiso   1.00
O1141  O     0.86400   0.38472   0.95005   0.00000  Uiso   1.00
O1142  O     0.91833   0.39725   0.90173   0.00000  Uiso   1.00
O1143  O     0.75276   0.60393   0.76599   0.00000  Uiso   1.00
O1144  O     0.80291   0.61482   0.71119   0.00000  Uiso   1.00
O1145  O     0.89345   0.46042   0.83334   0.00000  Uiso   1.00
O1146  O     0.89345   0.53958   0.83334   0.00000  Uiso   1.00
O1147  O     0.77321   0.46042   0.83333   0.00000  Uiso   1.00
O1148  O     0.83333   0.53959   0.76280   0.00000  Uiso   1.00
O1149  O     0.83333   0.46041   0.90387   0.00000  Uiso   1.00
O1150  O     0.83333   0.53959   0.90387   0.00000  Uiso   1.00
O1151  O     0.83333   0.46041   0.76280   0.00000  Uiso   1.00
O1152  O     0.80263   0.38475   0.71663   0.00000  Uiso   1.00
C1153  C     0.08749   0.83334   0.83362   0.00000  Uiso   1.00
C1154  C     0.02129   0.87529   0.83375   0.00000  Uiso   1.00
C1155  C     0.29052   0.83337   0.83273   0.00000  Uiso   1.00
C1156  C     0.04281   0.83337   0.83393   0.00000  Uiso   1.00
C1157  C     0.14510   0.69129   0.79746   0.00000  Uiso   1.00
C1158  C     0.18847   0.97531   0.86898   0.00000  Uiso   1.00
C1159  C     0.18823   0.69129   0.86921   0.00000  Uiso   1.00
C1160  C     0.14486   0.97531   0.79769   0.00000  Uiso   1.00
C1161  C     0.12156   0.71518   0.75745   0.00000  Uiso   1.00
C1162  C     0.21266   0.95125   0.90833   0.00000  Uiso   1.00
C1163  C     0.21175   0.71518   0.90923   0.00000  Uiso   1.00
C1164  C     0.24584   0.83334   0.83305   0.00000  Uiso   1.00
C1165  C     0.12068   0.95125   0.75834   0.00000  Uiso   1.00
C1166  C     0.16658   0.83333   0.74035   0.00000  Uiso   1.00
C1167  C     0.16676   0.83333   0.92632   0.00000  Uiso   1.00
C1168  C     0.16664   0.83333   0.68856   0.00000  Uiso   1.00
C1169  C     0.16670   0.83333   0.97811   0.00000  Uiso   1.00
C1170  C     0.02128   0.79148   0.83397   0.00000  Uiso   1.00
C1171  C     0.31204   0.87529   0.83289   0.00000  Uiso   1.00
C1172  C     0.31205   0.79148   0.83271   0.00000  Uiso   1.00
Cu1173 Cu    0.16667   0.88022   0.83333   0.00000  Uiso   1.00
Cu1174 Cu    0.16667   0.78645   0.83333   0.00000  Uiso   1.00
H1175  H     0.03716   0.75865   0.83502   0.00000  Uiso   1.00
H1176  H     0.29614   0.90811   0.83225   0.00000  Uiso   1.00
H1177  H     0.29618   0.75865   0.83168   0.00000  Uiso   1.00
H1178  H     0.03720   0.90812   0.83438   0.00000  Uiso   1.00
H1179  H     0.06840   0.74541   0.73449   0.00000  Uiso   1.00
H1180  H     0.21676   0.93206   0.97976   0.00000  Uiso   1.00
H1181  H     0.26489   0.74548   0.93221   0.00000  Uiso   1.00
H1182  H     0.11658   0.93205   0.68690   0.00000  Uiso   1.00
N1183  N     0.16667   0.95069   0.83333   0.00000  Uiso   1.00
N1184  N     0.16667   0.71598   0.83333   0.00000  Uiso   1.00
O1185  O     0.10655   0.87291   0.83333   0.00000  Uiso   1.00
O1186  O     0.08163   0.73052   0.76497   0.00000  Uiso   1.00
O1187  O     0.24725   0.93729   0.90068   0.00000  Uiso   1.00
O1188  O     0.19709   0.94814   0.95547   0.00000  Uiso   1.00
O1189  O     0.19733   0.71805   0.95005   0.00000  Uiso   1.00
O1190  O     0.25167   0.73058   0.90173   0.00000  Uiso   1.00
O1191  O     0.08609   0.93727   0.76599   0.00000  Uiso   1.00
O1192  O     0.13625   0.94815   0.71119   0.00000  Uiso   1.00
O1193  O     0.22679   0.79375   0.83334   0.00000  Uiso   1.00
O1194  O     0.22679   0.87291   0.83334   0.00000  Uiso   1.00
O1195  O     0.10655   0.79375   0.83333   0.00000  Uiso   1.00
O1196  O     0.16667   0.87292   0.76280   0.00000  Uiso   1.00
O1197  O     0.16667   0.79375   0.90387   0.00000  Uiso   1.00
O1198  O     0.16667   0.87292   0.90387   0.00000  Uiso   1.00
O1199  O     0.16667   0.79375   0.76280   0.00000  Uiso   1.00
O1200  O     0.13597   0.71808   0.71663   0.00000  Uiso   1.00
C1201  C     0.42083   0.83334   0.83362   0.00000  Uiso   1.00
C1202  C     0.35462   0.87529   0.83375   0.00000  Uiso   1.00
C1203  C     0.62385   0.83337   0.83273   0.00000  Uiso   1.00
C1204  C     0.37615   0.83337   0.83393   0.00000  Uiso   1.00
C1205  C     0.47843   0.69129   0.79746   0.00000  Uiso   1.00
C1206  C     0.52181   0.97531   0.86898   0.00000  Uiso   1.00
C1207  C     0.52157   0.69129   0.86921   0.00000  Uiso   1.00
C1208  C     0.47819   0.97531   0.79769   0.00000  Uiso   1.00
C1209  C     0.45489   0.71518   0.75745   0.00000  Uiso   1.00
C1210  C     0.54599   0.95125   0.90833   0.00000  Uiso   1.00
C1211  C     0.54508   0.71518   0.90923   0.00000  Uiso   1.00
C1212  C     0.57917   0.83334   0.83305   0.00000  Uiso   1.00
C1213  C     0.45401   0.95125   0.75834   0.00000  Uiso   1.00
C1214  C     0.49991   0.83333   0.74035   0.00000  Uiso   1.00
C1215  C     0.50009   0.83333   0.92632   0.00000  Uiso   1.00
C1216  C     0.49997   0.83333   0.68856   0.00000  Uiso   1.00
C1217  C     0.50003   0.83333   0.97811   0.00000  Uiso   1.00
C1218  C     0.35462   0.79148   0.83397   0.00000  Uiso   1.00
C1219  C     0.64537   0.87529   0.83289   0.00000  Uiso   1.00
C1220  C     0.64538   0.79148   0.83271   0.00000  Uiso   1.00
Cu1221 Cu    0.50000   0.88022   0.83333   0.00000  Uiso   1.00
Cu1222 Cu    0.50000   0.78645   0.83333   0.00000  Uiso   1.00
H1223  H     0.37049   0.75865   0.83502   0.00000  Uiso   1.00
H1224  H     0.62947   0.90811   0.83225   0.00000  Uiso   1.00
H1225  H     0.62951   0.75865   0.83168   0.00000  Uiso   1.00
H1226  H     0.37053   0.90812   0.83438   0.00000  Uiso   1.00
H1227  H     0.40173   0.74541   0.73449   0.00000  Uiso   1.00
H1228  H     0.55010   0.93206   0.97976   0.00000  Uiso   1.00
H1229  H     0.59822   0.74548   0.93221   0.00000  Uiso   1.00
H1230  H     0.44991   0.93205   0.68690   0.00000  Uiso   1.00
N1231  N     0.50000   0.95069   0.83333   0.00000  Uiso   1.00
N1232  N     0.50000   0.71598   0.83333   0.00000  Uiso   1.00
O1233  O     0.43988   0.87291   0.83333   0.00000  Uiso   1.00
O1234  O     0.41497   0.73052   0.76497   0.00000  Uiso   1.00
O1235  O     0.58058   0.93729   0.90068   0.00000  Uiso   1.00
O1236  O     0.53042   0.94814   0.95547   0.00000  Uiso   1.00
O1237  O     0.53066   0.71805   0.95005   0.00000  Uiso   1.00
O1238  O     0.58500   0.73058   0.90173   0.00000  Uiso   1.00
O1239  O     0.41942   0.93727   0.76599   0.00000  Uiso   1.00
O1240  O     0.46958   0.94815   0.71119   0.00000  Uiso   1.00
O1241  O     0.56012   0.79375   0.83334   0.00000  Uiso   1.00
O1242  O     0.56012   0.87291   0.83334   0.00000  Uiso   1.00
O1243  O     0.43988   0.79375   0.83333   0.00000  Uiso   1.00
O1244  O     0.50000   0.87292   0.76280   0.00000  Uiso   1.00
O1245  O     0.50000   0.79375   0.90387   0.00000  Uiso   1.00
O1246  O     0.50000   0.87292   0.90387   0.00000  Uiso   1.00
O1247  O     0.50000   0.79375   0.76280   0.00000  Uiso   1.00
O1248  O     0.46930   0.71808   0.71663   0.00000  Uiso   1.00
C1249  C     0.75416   0.83334   0.83362   0.00000  Uiso   1.00
C1250  C     0.68796   0.87529   0.83375   0.00000  Uiso   1.00
C1251  C     0.95719   0.83337   0.83273   0.00000  Uiso   1.00
C1252  C     0.70948   0.83337   0.83393   0.00000  Uiso   1.00
C1253  C     0.81176   0.69129   0.79746   0.00000  Uiso   1.00
C1254  C     0.85514   0.97531   0.86898   0.00000  Uiso   1.00
C1255  C     0.85490   0.69129   0.86921   0.00000  Uiso   1.00
C1256  C     0.81153   0.97531   0.79769   0.00000  Uiso   1.00
C1257  C     0.78823   0.71518   0.75745   0.00000  Uiso   1.00
C1258  C     0.87932   0.95125   0.90833   0.00000  Uiso   1.00
C1259  C     0.87842   0.71518   0.90923   0.00000  Uiso   1.00
C1260  C     0.91251   0.83334   0.83305   0.00000  Uiso   1.00
C1261  C     0.78735   0.95125   0.75834   0.00000  Uiso   1.00
C1262  C     0.83324   0.83333   0.74035   0.00000  Uiso   1.00
C1263  C     0.83342   0.83333   0.92632   0.00000  Uiso   1.00
C1264  C     0.83330   0.83333   0.68856   0.00000  Uiso   1.00
C1265  C     0.83336   0.83333   0.97811   0.00000  Uiso   1.00
C1266  C     0.68795   0.79148   0.83397   0.00000  Uiso   1.00
C1267  C     0.97871   0.87529   0.83289   0.00000  Uiso   1.00
C1268  C     0.97872   0.79148   0.83271   0.00000  Uiso   1.00
Cu1269 Cu    0.83333   0.88022   0.83333   0.00000  Uiso   1.00
Cu1270 Cu    0.83333   0.78645   0.83333   0.00000  Uiso   1.00
H1271  H     0.70382   0.75865   0.83502   0.00000  Uiso   1.00
H1272  H     0.96280   0.90811   0.83225   0.00000  Uiso   1.00
H1273  H     0.96285   0.75865   0.83168   0.00000  Uiso   1.00
H1274  H     0.70386   0.90812   0.83438   0.00000  Uiso   1.00
H1275  H     0.73506   0.74541   0.73449   0.00000  Uiso   1.00
H1276  H     0.88343   0.93206   0.97976   0.00000  Uiso   1.00
H1277  H     0.93155   0.74548   0.93221   0.00000  Uiso   1.00
H1278  H     0.78324   0.93205   0.68690   0.00000  Uiso   1.00
N1279  N     0.83333   0.95069   0.83333   0.00000  Uiso   1.00
N1280  N     0.83333   0.71598   0.83333   0.00000  Uiso   1.00
O1281  O     0.77321   0.87291   0.83333   0.00000  Uiso   1.00
O1282  O     0.74830   0.73052   0.76497   0.00000  Uiso   1.00
O1283  O     0.91392   0.93729   0.90068   0.00000  Uiso   1.00
O1284  O     0.86375   0.94814   0.95547   0.00000  Uiso   1.00
O1285  O     0.86400   0.71805   0.95005   0.00000  Uiso   1.00
O1286  O     0.91833   0.73058   0.90173   0.00000  Uiso   1.00
O1287  O     0.75276   0.93727   0.76599   0.00000  Uiso   1.00
O1288  O     0.80291   0.94815   0.71119   0.00000  Uiso   1.00
O1289  O     0.89345   0.79375   0.83334   0.00000  Uiso   1.00
O1290  O     0.89345   0.87291   0.83334   0.00000  Uiso   1.00
O1291  O     0.77321   0.79375   0.83333   0.00000  Uiso   1.00
O1292  O     0.83333   0.87292   0.76280   0.00000  Uiso   1.00
O1293  O     0.83333   0.79375   0.90387   0.00000  Uiso   1.00
O1294  O     0.83333   0.87292   0.90387   0.00000  Uiso   1.00
O1295  O     0.83333   0.79375   0.76280   0.00000  Uiso   1.00
O1296  O     0.80263   0.71808   0.71663   0.00000  Uiso   1.00
loop_
_geom_bond_atom_site_label_1
_geom_bond_atom_site_label_2
_geom_bond_distance
_geom_bond_site_symmetry_2
_ccdc_geom_bond_type
C1     C4      1.453   .     S
C1     O33     1.303   .     A
C1     O43     1.303   .     A
C2     C4      1.401   .     A
C2     H26     1.082   .     S
C2     C115    1.384   1_455 S
C3     C19     1.401   .     A
C3     C20     1.401   .     A
C3     C12     1.453   .     S
C4     C18     1.401   .     A
C5     C9      1.476   .     S
C5     N32     1.378   .     A
C5     C296    1.428   1_545 S
C6     C10     1.476   .     S
C6     N31     1.376   .     A
C6     C151    1.428   .     S
C7     N32     1.378   .     A
C7     C11     1.476   .     S
C7     C294    1.428   1_545 S
C8     N31     1.376   .     A
C8     C13     1.476   .     S
C8     C149    1.428   .     S
C9     O34     1.395   .     S
C9     O48     1.223   .     D
C10    O36     1.398   .     S
C10    O35     1.221   .     D
C11    O38     1.395   .     S
C11    O37     1.223   .     D
C12    O41     1.303   .     A
C12    O42     1.303   .     A
C13    O39     1.221   .     D
C13    O40     1.398   .     S
C14    C16     1.406   .     S
C14    O44     1.298   .     A
C14    O47     1.298   .     A
C15    O45     1.298   .     A
C15    O46     1.298   .     A
C15    C17     1.406   .     S
C16    C881    1.189   1_554 S
C17    C448    1.189   .     S
C18    H23     1.082   .     S
C18    C116    1.383   1_455 S
C19    H24     1.082   .     S
C19    C50     1.384   .     S
C20    H25     1.082   .     S
C20    C66     1.383   .     S
Cu21   O44     1.927   .     S
Cu21   Cu22    2.716   .     S
Cu21   N31     2.041   .     S
Cu21   O33     1.966   .     S
Cu21   O42     1.966   .     S
Cu21   O46     1.927   .     S
Cu22   O43     1.966   .     S
Cu22   N32     2.041   .     S
Cu22   O47     1.927   .     S
Cu22   O41     1.966   .     S
Cu22   O45     1.927   .     S
H27    O34     1.014   .     S
H28    O36     1.014   .     S
H29    O38     1.014   .     S
H30    O40     1.014   .     S
C49    C52     1.453   .     S
C49    O81     1.303   .     A
C49    O91     1.303   .     A
C50    C52     1.401   .     A
C50    H74     1.082   .     S
C51    C67     1.401   .     A
C51    C68     1.401   .     A
C51    C60     1.453   .     S
C52    C66     1.401   .     A
C53    C57     1.476   .     S
C53    N80     1.378   .     A
C53    C344    1.428   1_545 S
C54    C58     1.476   .     S
C54    N79     1.376   .     A
C54    C199    1.428   .     S
C55    N80     1.378   .     A
C55    C59     1.476   .     S
C55    C342    1.428   1_545 S
C56    N79     1.376   .     A
C56    C61     1.476   .     S
C56    C197    1.428   .     S
C57    O82     1.395   .     S
C57    O96     1.223   .     D
C58    O84     1.398   .     S
C58    O83     1.221   .     D
C59    O86     1.395   .     S
C59    O85     1.223   .     D
C60    O89     1.303   .     A
C60    O90     1.303   .     A
C61    O87     1.221   .     D
C61    O88     1.398   .     S
C62    C64     1.406   .     S
C62    O92     1.298   .     A
C62    O95     1.298   .     A
C63    O93     1.298   .     A
C63    O94     1.298   .     A
C63    C65     1.406   .     S
C64    C929    1.189   1_554 S
C65    C496    1.189   .     S
C66    H71     1.082   .     S
C67    H72     1.082   .     S
C67    C98     1.384   .     S
C68    H73     1.082   .     S
C68    C114    1.383   .     S
Cu69   O92     1.927   .     S
Cu69   Cu70    2.716   .     S
Cu69   N79     2.041   .     S
Cu69   O81     1.966   .     S
Cu69   O90     1.966   .     S
Cu69   O94     1.927   .     S
Cu70   O91     1.966   .     S
Cu70   N80     2.041   .     S
Cu70   O95     1.927   .     S
Cu70   O89     1.966   .     S
Cu70   O93     1.927   .     S
H75    O82     1.014   .     S
H76    O84     1.014   .     S
H77    O86     1.014   .     S
H78    O88     1.014   .     S
C97    C100    1.453   .     S
C97    O129    1.303   .     A
C97    O139    1.303   .     A
C98    C100    1.401   .     A
C98    H122    1.082   .     S
C99    C115    1.401   .     A
C99    C116    1.401   .     A
C99    C108    1.453   .     S
C100   C114    1.401   .     A
C101   C105    1.476   .     S
C101   N128    1.378   .     A
C101   C392    1.428   1_545 S
C102   C106    1.476   .     S
C102   N127    1.376   .     A
C102   C247    1.428   .     S
C103   N128    1.378   .     A
C103   C107    1.476   .     S
C103   C390    1.428   1_545 S
C104   N127    1.376   .     A
C104   C109    1.476   .     S
C104   C245    1.428   .     S
C105   O130    1.395   .     S
C105   O144    1.223   .     D
C106   O132    1.398   .     S
C106   O131    1.221   .     D
C107   O134    1.395   .     S
C107   O133    1.223   .     D
C108   O137    1.303   .     A
C108   O138    1.303   .     A
C109   O135    1.221   .     D
C109   O136    1.398   .     S
C110   C112    1.406   .     S
C110   O140    1.298   .     A
C110   O143    1.298   .     A
C111   O141    1.298   .     A
C111   O142    1.298   .     A
C111   C113    1.406   .     S
C112   C977    1.189   1_554 S
C113   C544    1.189   .     S
C114   H119    1.082   .     S
C115   H120    1.082   .     S
C115   C2      1.384   1_655 S
C116   H121    1.082   .     S
C116   C18     1.383   1_655 S
Cu117  O140    1.927   .     S
Cu117  Cu118   2.716   .     S
Cu117  N127    2.041   .     S
Cu117  O129    1.966   .     S
Cu117  O138    1.966   .     S
Cu117  O142    1.927   .     S
Cu118  O139    1.966   .     S
Cu118  N128    2.041   .     S
Cu118  O143    1.927   .     S
Cu118  O137    1.966   .     S
Cu118  O141    1.927   .     S
H123   O130    1.014   .     S
H124   O132    1.014   .     S
H125   O134    1.014   .     S
H126   O136    1.014   .     S
C145   C148    1.453   .     S
C145   O177    1.303   .     A
C145   O187    1.303   .     A
C146   C148    1.401   .     A
C146   H170    1.082   .     S
C146   C259    1.384   1_455 S
C147   C163    1.401   .     A
C147   C164    1.401   .     A
C147   C156    1.453   .     S
C148   C162    1.401   .     A
C149   C153    1.476   .     S
C149   N176    1.378   .     A
C150   C154    1.476   .     S
C150   N175    1.376   .     A
C150   C295    1.428   .     S
C151   N176    1.378   .     A
C151   C155    1.476   .     S
C152   N175    1.376   .     A
C152   C157    1.476   .     S
C152   C293    1.428   .     S
C153   O178    1.395   .     S
C153   O192    1.223   .     D
C154   O180    1.398   .     S
C154   O179    1.221   .     D
C155   O182    1.395   .     S
C155   O181    1.223   .     D
C156   O185    1.303   .     A
C156   O186    1.303   .     A
C157   O183    1.221   .     D
C157   O184    1.398   .     S
C158   C160    1.406   .     S
C158   O188    1.298   .     A
C158   O191    1.298   .     A
C159   O189    1.298   .     A
C159   O190    1.298   .     A
C159   C161    1.406   .     S
C160   C1025   1.189   1_554 S
C161   C592    1.189   .     S
C162   H167    1.082   .     S
C162   C260    1.383   1_455 S
C163   H168    1.082   .     S
C163   C194    1.384   .     S
C164   H169    1.082   .     S
C164   C210    1.383   .     S
Cu165  O188    1.927   .     S
Cu165  Cu166   2.716   .     S
Cu165  N175    2.041   .     S
Cu165  O177    1.966   .     S
Cu165  O186    1.966   .     S
Cu165  O190    1.927   .     S
Cu166  O187    1.966   .     S
Cu166  N176    2.041   .     S
Cu166  O191    1.927   .     S
Cu166  O185    1.966   .     S
Cu166  O189    1.927   .     S
H171   O178    1.014   .     S
H172   O180    1.014   .     S
H173   O182    1.014   .     S
H174   O184    1.014   .     S
C193   C196    1.453   .     S
C193   O225    1.303   .     A
C193   O235    1.303   .     A
C194   C196    1.401   .     A
C194   H218    1.082   .     S
C195   C211    1.401   .     A
C195   C212    1.401   .     A
C195   C204    1.453   .     S
C196   C210    1.401   .     A
C197   C201    1.476   .     S
C197   N224    1.378   .     A
C198   C202    1.476   .     S
C198   N223    1.376   .     A
C198   C343    1.428   .     S
C199   N224    1.378   .     A
C199   C203    1.476   .     S
C200   N223    1.376   .     A
C200   C205    1.476   .     S
C200   C341    1.428   .     S
C201   O226    1.395   .     S
C201   O240    1.223   .     D
C202   O228    1.398   .     S
C202   O227    1.221   .     D
C203   O230    1.395   .     S
C203   O229    1.223   .     D
C204   O233    1.303   .     A
C204   O234    1.303   .     A
C205   O231    1.221   .     D
C205   O232    1.398   .     S
C206   C208    1.406   .     S
C206   O236    1.298   .     A
C206   O239    1.298   .     A
C207   O237    1.298   .     A
C207   O238    1.298   .     A
C207   C209    1.406   .     S
C208   C1073   1.189   1_554 S
C209   C640    1.189   .     S
C210   H215    1.082   .     S
C211   H216    1.082   .     S
C211   C242    1.384   .     S
C212   H217    1.082   .     S
C212   C258    1.383   .     S
Cu213  O236    1.927   .     S
Cu213  Cu214   2.716   .     S
Cu213  N223    2.041   .     S
Cu213  O225    1.966   .     S
Cu213  O234    1.966   .     S
Cu213  O238    1.927   .     S
Cu214  O235    1.966   .     S
Cu214  N224    2.041   .     S
Cu214  O239    1.927   .     S
Cu214  O233    1.966   .     S
Cu214  O237    1.927   .     S
H219   O226    1.014   .     S
H220   O228    1.014   .     S
H221   O230    1.014   .     S
H222   O232    1.014   .     S
C241   C244    1.453   .     S
C241   O273    1.303   .     A
C241   O283    1.303   .     A
C242   C244    1.401   .     A
C242   H266    1.082   .     S
C243   C259    1.401   .     A
C243   C260    1.401   .     A
C243   C252    1.453   .     S
C244   C258    1.401   .     A
C245   C249    1.476   .     S
C245   N272    1.378   .     A
C246   C250    1.476   .     S
C246   N271    1.376   .     A
C246   C391    1.428   .     S
C247   N272    1.378   .     A
C247   C251    1.476   .     S
C248   N271    1.376   .     A
C248   C253    1.476   .     S
C248   C389    1.428   .     S
C249   O274    1.395   .     S
C249   O288    1.223   .     D
C250   O276    1.398   .     S
C250   O275    1.221   .     D
C251   O278    1.395   .     S
C251   O277    1.223   .     D
C252   O281    1.303   .     A
C252   O282    1.303   .     A
C253   O279    1.221   .     D
C253   O280    1.398   .     S
C254   C256    1.406   .     S
C254   O284    1.298   .     A
C254   O287    1.298   .     A
C255   O285    1.298   .     A
C255   O286    1.298   .     A
C255   C257    1.406   .     S
C256   C1121   1.189   1_554 S
C257   C688    1.189   .     S
C258   H263    1.082   .     S
C259   H264    1.082   .     S
C259   C146    1.384   1_655 S
C260   H265    1.082   .     S
C260   C162    1.383   1_655 S
Cu261  O284    1.927   .     S
Cu261  Cu262   2.716   .     S
Cu261  N271    2.041   .     S
Cu261  O273    1.966   .     S
Cu261  O282    1.966   .     S
Cu261  O286    1.927   .     S
Cu262  O283    1.966   .     S
Cu262  N272    2.041   .     S
Cu262  O287    1.927   .     S
Cu262  O281    1.966   .     S
Cu262  O285    1.927   .     S
H267   O274    1.014   .     S
H268   O276    1.014   .     S
H269   O278    1.014   .     S
H270   O280    1.014   .     S
C289   C292    1.453   .     S
C289   O321    1.303   .     A
C289   O331    1.303   .     A
C290   C292    1.401   .     A
C290   H314    1.082   .     S
C290   C403    1.384   1_455 S
C291   C307    1.401   .     A
C291   C308    1.401   .     A
C291   C300    1.453   .     S
C292   C306    1.401   .     A
C293   C297    1.476   .     S
C293   N320    1.378   .     A
C294   C298    1.476   .     S
C294   N319    1.376   .     A
C294   C7      1.428   1_565 S
C295   N320    1.378   .     A
C295   C299    1.476   .     S
C296   N319    1.376   .     A
C296   C301    1.476   .     S
C296   C5      1.428   1_565 S
C297   O322    1.395   .     S
C297   O336    1.223   .     D
C298   O324    1.398   .     S
C298   O323    1.221   .     D
C299   O326    1.395   .     S
C299   O325    1.223   .     D
C300   O329    1.303   .     A
C300   O330    1.303   .     A
C301   O327    1.221   .     D
C301   O328    1.398   .     S
C302   C304    1.406   .     S
C302   O332    1.298   .     A
C302   O335    1.298   .     A
C303   O333    1.298   .     A
C303   O334    1.298   .     A
C303   C305    1.406   .     S
C304   C1169   1.189   1_554 S
C305   C736    1.189   .     S
C306   H311    1.082   .     S
C306   C404    1.383   1_455 S
C307   H312    1.082   .     S
C307   C338    1.384   .     S
C308   H313    1.082   .     S
C308   C354    1.383   .     S
Cu309  O332    1.927   .     S
Cu309  Cu310   2.716   .     S
Cu309  N319    2.041   .     S
Cu309  O321    1.966   .     S
Cu309  O330    1.966   .     S
Cu309  O334    1.927   .     S
Cu310  O331    1.966   .     S
Cu310  N320    2.041   .     S
Cu310  O335    1.927   .     S
Cu310  O329    1.966   .     S
Cu310  O333    1.927   .     S
H315   O322    1.014   .     S
H316   O324    1.014   .     S
H317   O326    1.014   .     S
H318   O328    1.014   .     S
C337   C340    1.453   .     S
C337   O369    1.303   .     A
C337   O379    1.303   .     A
C338   C340    1.401   .     A
C338   H362    1.082   .     S
C339   C355    1.401   .     A
C339   C356    1.401   .     A
C339   C348    1.453   .     S
C340   C354    1.401   .     A
C341   C345    1.476   .     S
C341   N368    1.378   .     A
C342   C346    1.476   .     S
C342   N367    1.376   .     A
C342   C55     1.428   1_565 S
C343   N368    1.378   .     A
C343   C347    1.476   .     S
C344   N367    1.376   .     A
C344   C349    1.476   .     S
C344   C53     1.428   1_565 S
C345   O370    1.395   .     S
C345   O384    1.223   .     D
C346   O372    1.398   .     S
C346   O371    1.221   .     D
C347   O374    1.395   .     S
C347   O373    1.223   .     D
C348   O377    1.303   .     A
C348   O378    1.303   .     A
C349   O375    1.221   .     D
C349   O376    1.398   .     S
C350   C352    1.406   .     S
C350   O380    1.298   .     A
C350   O383    1.298   .     A
C351   O381    1.298   .     A
C351   O382    1.298   .     A
C351   C353    1.406   .     S
C352   C1217   1.189   1_554 S
C353   C784    1.189   .     S
C354   H359    1.082   .     S
C355   H360    1.082   .     S
C355   C386    1.384   .     S
C356   H361    1.082   .     S
C356   C402    1.383   .     S
Cu357  O380    1.927   .     S
Cu357  Cu358   2.716   .     S
Cu357  N367    2.041   .     S
Cu357  O369    1.966   .     S
Cu357  O378    1.966   .     S
Cu357  O382    1.927   .     S
Cu358  O379    1.966   .     S
Cu358  N368    2.041   .     S
Cu358  O383    1.927   .     S
Cu358  O377    1.966   .     S
Cu358  O381    1.927   .     S
H363   O370    1.014   .     S
H364   O372    1.014   .     S
H365   O374    1.014   .     S
H366   O376    1.014   .     S
C385   C388    1.453   .     S
C385   O417    1.303   .     A
C385   O427    1.303   .     A
C386   C388    1.401   .     A
C386   H410    1.082   .     S
C387   C403    1.401   .     A
C387   C404    1.401   .     A
C387   C396    1.453   .     S
C388   C402    1.401   .     A
C389   C393    1.476   .     S
C389   N416    1.378   .     A
C390   C394    1.476   .     S
C390   N415    1.376   .     A
C390   C103    1.428   1_565 S
C391   N416    1.378   .     A
C391   C395    1.476   .     S
C392   N415    1.376   .     A
C392   C397    1.476   .     S
C392   C101    1.428   1_565 S
C393   O418    1.395   .     S
C393   O432    1.223   .     D
C394   O420    1.398   .     S
C394   O419    1.221   .     D
C395   O422    1.395   .     S
C395   O421    1.223   .     D
C396   O425    1.303   .     A
C396   O426    1.303   .     A
C397   O423    1.221   .     D
C397   O424    1.398   .     S
C398   C400    1.406   .     S
C398   O428    1.298   .     A
C398   O431    1.298   .     A
C399   O429    1.298   .     A
C399   O430    1.298   .     A
C399   C401    1.406   .     S
C400   C1265   1.189   1_554 S
C401   C832    1.189   .     S
C402   H407    1.082   .     S
C403   H408    1.082   .     S
C403   C290    1.384   1_655 S
C404   H409    1.082   .     S
C404   C306    1.383   1_655 S
Cu405  O428    1.927   .     S
Cu405  Cu406   2.716   .     S
Cu405  N415    2.041   .     S
Cu405  O417    1.966   .     S
Cu405  O426    1.966   .     S
Cu405  O430    1.927   .     S
Cu406  O427    1.966   .     S
Cu406  N416    2.041   .     S
Cu406  O431    1.927   .     S
Cu406  O425    1.966   .     S
Cu406  O429    1.927   .     S
H411   O418    1.014   .     S
H412   O420    1.014   .     S
H413   O422    1.014   .     S
H414   O424    1.014   .     S
C433   C436    1.453   .     S
C433   O465    1.303   .     A
C433   O475    1.303   .     A
C434   C436    1.401   .     A
C434   H458    1.082   .     S
C434   C547    1.384   1_455 S
C435   C451    1.401   .     A
C435   C452    1.401   .     A
C435   C444    1.453   .     S
C436   C450    1.401   .     A
C437   C441    1.476   .     S
C437   N464    1.378   .     A
C437   C728    1.428   1_545 S
C438   C442    1.476   .     S
C438   N463    1.376   .     A
C438   C583    1.428   .     S
C439   N464    1.378   .     A
C439   C443    1.476   .     S
C439   C726    1.428   1_545 S
C440   N463    1.376   .     A
C440   C445    1.476   .     S
C440   C581    1.428   .     S
C441   O466    1.395   .     S
C441   O480    1.223   .     D
C442   O468    1.398   .     S
C442   O467    1.221   .     D
C443   O470    1.395   .     S
C443   O469    1.223   .     D
C444   O473    1.303   .     A
C444   O474    1.303   .     A
C445   O471    1.221   .     D
C445   O472    1.398   .     S
C446   C448    1.406   .     S
C446   O476    1.298   .     A
C446   O479    1.298   .     A
C447   O477    1.298   .     A
C447   O478    1.298   .     A
C447   C449    1.406   .     S
C449   C880    1.189   .     S
C450   H455    1.082   .     S
C450   C548    1.383   1_455 S
C451   H456    1.082   .     S
C451   C482    1.384   .     S
C452   H457    1.082   .     S
C452   C498    1.383   .     S
Cu453  O476    1.927   .     S
Cu453  Cu454   2.716   .     S
Cu453  N463    2.041   .     S
Cu453  O465    1.966   .     S
Cu453  O474    1.966   .     S
Cu453  O478    1.927   .     S
Cu454  O475    1.966   .     S
Cu454  N464    2.041   .     S
Cu454  O479    1.927   .     S
Cu454  O473    1.966   .     S
Cu454  O477    1.927   .     S
H459   O466    1.014   .     S
H460   O468    1.014   .     S
H461   O470    1.014   .     S
H462   O472    1.014   .     S
C481   C484    1.453   .     S
C481   O513    1.303   .     A
C481   O523    1.303   .     A
C482   C484    1.401   .     A
C482   H506    1.082   .     S
C483   C499    1.401   .     A
C483   C500    1.401   .     A
C483   C492    1.453   .     S
C484   C498    1.401   .     A
C485   C489    1.476   .     S
C485   N512    1.378   .     A
C485   C776    1.428   1_545 S
C486   C490    1.476   .     S
C486   N511    1.376   .     A
C486   C631    1.428   .     S
C487   N512    1.378   .     A
C487   C491    1.476   .     S
C487   C774    1.428   1_545 S
C488   N511    1.376   .     A
C488   C493    1.476   .     S
C488   C629    1.428   .     S
C489   O514    1.395   .     S
C489   O528    1.223   .     D
C490   O516    1.398   .     S
C490   O515    1.221   .     D
C491   O518    1.395   .     S
C491   O517    1.223   .     D
C492   O521    1.303   .     A
C492   O522    1.303   .     A
C493   O519    1.221   .     D
C493   O520    1.398   .     S
C494   C496    1.406   .     S
C494   O524    1.298   .     A
C494   O527    1.298   .     A
C495   O525    1.298   .     A
C495   O526    1.298   .     A
C495   C497    1.406   .     S
C497   C928    1.189   .     S
C498   H503    1.082   .     S
C499   H504    1.082   .     S
C499   C530    1.384   .     S
C500   H505    1.082   .     S
C500   C546    1.383   .     S
Cu501  O524    1.927   .     S
Cu501  Cu502   2.716   .     S
Cu501  N511    2.041   .     S
Cu501  O513    1.966   .     S
Cu501  O522    1.966   .     S
Cu501  O526    1.927   .     S
Cu502  O523    1.966   .     S
Cu502  N512    2.041   .     S
Cu502  O527    1.927   .     S
Cu502  O521    1.966   .     S
Cu502  O525    1.927   .     S
H507   O514    1.014   .     S
H508   O516    1.014   .     S
H509   O518    1.014   .     S
H510   O520    1.014   .     S
C529   C532    1.453   .     S
C529   O561    1.303   .     A
C529   O571    1.303   .     A
C530   C532    1.401   .     A
C530   H554    1.082   .     S
C531   C547    1.401   .     A
C531   C548    1.401   .     A
C531   C540    1.453   .     S
C532   C546    1.401   .     A
C533   C537    1.476   .     S
C533   N560    1.378   .     A
C533   C824    1.428   1_545 S
C534   C538    1.476   .     S
C534   N559    1.376   .     A
C534   C679    1.428   .     S
C535   N560    1.378   .     A
C535   C539    1.476   .     S
C535   C822    1.428   1_545 S
C536   N559    1.376   .     A
C536   C541    1.476   .     S
C536   C677    1.428   .     S
C537   O562    1.395   .     S
C537   O576    1.223   .     D
C538   O564    1.398   .     S
C538   O563    1.221   .     D
C539   O566    1.395   .     S
C539   O565    1.223   .     D
C540   O569    1.303   .     A
C540   O570    1.303   .     A
C541   O567    1.221   .     D
C541   O568    1.398   .     S
C542   C544    1.406   .     S
C542   O572    1.298   .     A
C542   O575    1.298   .     A
C543   O573    1.298   .     A
C543   O574    1.298   .     A
C543   C545    1.406   .     S
C545   C976    1.189   .     S
C546   H551    1.082   .     S
C547   H552    1.082   .     S
C547   C434    1.384   1_655 S
C548   H553    1.082   .     S
C548   C450    1.383   1_655 S
Cu549  O572    1.927   .     S
Cu549  Cu550   2.716   .     S
Cu549  N559    2.041   .     S
Cu549  O561    1.966   .     S
Cu549  O570    1.966   .     S
Cu549  O574    1.927   .     S
Cu550  O571    1.966   .     S
Cu550  N560    2.041   .     S
Cu550  O575    1.927   .     S
Cu550  O569    1.966   .     S
Cu550  O573    1.927   .     S
H555   O562    1.014   .     S
H556   O564    1.014   .     S
H557   O566    1.014   .     S
H558   O568    1.014   .     S
C577   C580    1.453   .     S
C577   O609    1.303   .     A
C577   O619    1.303   .     A
C578   C580    1.401   .     A
C578   H602    1.082   .     S
C578   C691    1.384   1_455 S
C579   C595    1.401   .     A
C579   C596    1.401   .     A
C579   C588    1.453   .     S
C580   C594    1.401   .     A
C581   C585    1.476   .     S
C581   N608    1.378   .     A
C582   C586    1.476   .     S
C582   N607    1.376   .     A
C582   C727    1.428   .     S
C583   N608    1.378   .     A
C583   C587    1.476   .     S
C584   N607    1.376   .     A
C584   C589    1.476   .     S
C584   C725    1.428   .     S
C585   O610    1.395   .     S
C585   O624    1.223   .     D
C586   O612    1.398   .     S
C586   O611    1.221   .     D
C587   O614    1.395   .     S
C587   O613    1.223   .     D
C588   O617    1.303   .     A
C588   O618    1.303   .     A
C589   O615    1.221   .     D
C589   O616    1.398   .     S
C590   C592    1.406   .     S
C590   O620    1.298   .     A
C590   O623    1.298   .     A
C591   O621    1.298   .     A
C591   O622    1.298   .     A
C591   C593    1.406   .     S
C593   C1024   1.189   .     S
C594   H599    1.082   .     S
C594   C692    1.383   1_455 S
C595   H600    1.082   .     S
C595   C626    1.384   .     S
C596   H601    1.082   .     S
C596   C642    1.383   .     S
Cu597  O620    1.927   .     S
Cu597  Cu598   2.716   .     S
Cu597  N607    2.041   .     S
Cu597  O609    1.966   .     S
Cu597  O618    1.966   .     S
Cu597  O622    1.927   .     S
Cu598  O619    1.966   .     S
Cu598  N608    2.041   .     S
Cu598  O623    1.927   .     S
Cu598  O617    1.966   .     S
Cu598  O621    1.927   .     S
H603   O610    1.014   .     S
H604   O612    1.014   .     S
H605   O614    1.014   .     S
H606   O616    1.014   .     S
C625   C628    1.453   .     S
C625   O657    1.303   .     A
C625   O667    1.303   .     A
C626   C628    1.401   .     A
C626   H650    1.082   .     S
C627   C643    1.401   .     A
C627   C644    1.401   .     A
C627   C636    1.453   .     S
C628   C642    1.401   .     A
C629   C633    1.476   .     S
C629   N656    1.378   .     A
C630   C634    1.476   .     S
C630   N655    1.376   .     A
C630   C775    1.428   .     S
C631   N656    1.378   .     A
C631   C635    1.476   .     S
C632   N655    1.376   .     A
C632   C637    1.476   .     S
C632   C773    1.428   .     S
C633   O658    1.395   .     S
C633   O672    1.223   .     D
C634   O660    1.398   .     S
C634   O659    1.221   .     D
C635   O662    1.395   .     S
C635   O661    1.223   .     D
C636   O665    1.303   .     A
C636   O666    1.303   .     A
C637   O663    1.221   .     D
C637   O664    1.398   .     S
C638   C640    1.406   .     S
C638   O668    1.298   .     A
C638   O671    1.298   .     A
C639   O669    1.298   .     A
C639   O670    1.298   .     A
C639   C641    1.406   .     S
C641   C1072   1.189   .     S
C642   H647    1.082   .     S
C643   H648    1.082   .     S
C643   C674    1.384   .     S
C644   H649    1.082   .     S
C644   C690    1.383   .     S
Cu645  O668    1.927   .     S
Cu645  Cu646   2.716   .     S
Cu645  N655    2.041   .     S
Cu645  O657    1.966   .     S
Cu645  O666    1.966   .     S
Cu645  O670    1.927   .     S
Cu646  O667    1.966   .     S
Cu646  N656    2.041   .     S
Cu646  O671    1.927   .     S
Cu646  O665    1.966   .     S
Cu646  O669    1.927   .     S
H651   O658    1.014   .     S
H652   O660    1.014   .     S
H653   O662    1.014   .     S
H654   O664    1.014   .     S
C673   C676    1.453   .     S
C673   O705    1.303   .     A
C673   O715    1.303   .     A
C674   C676    1.401   .     A
C674   H698    1.082   .     S
C675   C691    1.401   .     A
C675   C692    1.401   .     A
C675   C684    1.453   .     S
C676   C690    1.401   .     A
C677   C681    1.476   .     S
C677   N704    1.378   .     A
C678   C682    1.476   .     S
C678   N703    1.376   .     A
C678   C823    1.428   .     S
C679   N704    1.378   .     A
C679   C683    1.476   .     S
C680   N703    1.376   .     A
C680   C685    1.476   .     S
C680   C821    1.428   .     S
C681   O706    1.395   .     S
C681   O720    1.223   .     D
C682   O708    1.398   .     S
C682   O707    1.221   .     D
C683   O710    1.395   .     S
C683   O709    1.223   .     D
C684   O713    1.303   .     A
C684   O714    1.303   .     A
C685   O711    1.221   .     D
C685   O712    1.398   .     S
C686   C688    1.406   .     S
C686   O716    1.298   .     A
C686   O719    1.298   .     A
C687   O717    1.298   .     A
C687   O718    1.298   .     A
C687   C689    1.406   .     S
C689   C1120   1.189   .     S
C690   H695    1.082   .     S
C691   H696    1.082   .     S
C691   C578    1.384   1_655 S
C692   H697    1.082   .     S
C692   C594    1.383   1_655 S
Cu693  O716    1.927   .     S
Cu693  Cu694   2.716   .     S
Cu693  N703    2.041   .     S
Cu693  O705    1.966   .     S
Cu693  O714    1.966   .     S
Cu693  O718    1.927   .     S
Cu694  O715    1.966   .     S
Cu694  N704    2.041   .     S
Cu694  O719    1.927   .     S
Cu694  O713    1.966   .     S
Cu694  O717    1.927   .     S
H699   O706    1.014   .     S
H700   O708    1.014   .     S
H701   O710    1.014   .     S
H702   O712    1.014   .     S
C721   C724    1.453   .     S
C721   O753    1.303   .     A
C721   O763    1.303   .     A
C722   C724    1.401   .     A
C722   H746    1.082   .     S
C722   C835    1.384   1_455 S
C723   C739    1.401   .     A
C723   C740    1.401   .     A
C723   C732    1.453   .     S
C724   C738    1.401   .     A
C725   C729    1.476   .     S
C725   N752    1.378   .     A
C726   C730    1.476   .     S
C726   N751    1.376   .     A
C726   C439    1.428   1_565 S
C727   N752    1.378   .     A
C727   C731    1.476   .     S
C728   N751    1.376   .     A
C728   C733    1.476   .     S
C728   C437    1.428   1_565 S
C729   O754    1.395   .     S
C729   O768    1.223   .     D
C730   O756    1.398   .     S
C730   O755    1.221   .     D
C731   O758    1.395   .     S
C731   O757    1.223   .     D
C732   O761    1.303   .     A
C732   O762    1.303   .     A
C733   O759    1.221   .     D
C733   O760    1.398   .     S
C734   C736    1.406   .     S
C734   O764    1.298   .     A
C734   O767    1.298   .     A
C735   O765    1.298   .     A
C735   O766    1.298   .     A
C735   C737    1.406   .     S
C737   C1168   1.189   .     S
C738   H743    1.082   .     S
C738   C836    1.383   1_455 S
C739   H744    1.082   .     S
C739   C770    1.384   .     S
C740   H745    1.082   .     S
C740   C786    1.383   .     S
Cu741  O764    1.927   .     S
Cu741  Cu742   2.716   .     S
Cu741  N751    2.041   .     S
Cu741  O753    1.966   .     S
Cu741  O762    1.966   .     S
Cu741  O766    1.927   .     S
Cu742  O763    1.966   .     S
Cu742  N752    2.041   .     S
Cu742  O767    1.927   .     S
Cu742  O761    1.966   .     S
Cu742  O765    1.927   .     S
H747   O754    1.014   .     S
H748   O756    1.014   .     S
H749   O758    1.014   .     S
H750   O760    1.014   .     S
C769   C772    1.453   .     S
C769   O801    1.303   .     A
C769   O811    1.303   .     A
C770   C772    1.401   .     A
C770   H794    1.082   .     S
C771   C787    1.401   .     A
C771   C788    1.401   .     A
C771   C780    1.453   .     S
C772   C786    1.401   .     A
C773   C777    1.476   .     S
C773   N800    1.378   .     A
C774   C778    1.476   .     S
C774   N799    1.376   .     A
C774   C487    1.428   1_565 S
C775   N800    1.378   .     A
C775   C779    1.476   .     S
C776   N799    1.376   .     A
C776   C781    1.476   .     S
C776   C485    1.428   1_565 S
C777   O802    1.395   .     S
C777   O816    1.223   .     D
C778   O804    1.398   .     S
C778   O803    1.221   .     D
C779   O806    1.395   .     S
C779   O805    1.223   .     D
C780   O809    1.303   .     A
C780   O810    1.303   .     A
C781   O807    1.221   .     D
C781   O808    1.398   .     S
C782   C784    1.406   .     S
C782   O812    1.298   .     A
C782   O815    1.298   .     A
C783   O813    1.298   .     A
C783   O814    1.298   .     A
C783   C785    1.406   .     S
C785   C1216   1.189   .     S
C786   H791    1.082   .     S
C787   H792    1.082   .     S
C787   C818    1.384   .     S
C788   H793    1.082   .     S
C788   C834    1.383   .     S
Cu789  O812    1.927   .     S
Cu789  Cu790   2.716   .     S
Cu789  N799    2.041   .     S
Cu789  O801    1.966   .     S
Cu789  O810    1.966   .     S
Cu789  O814    1.927   .     S
Cu790  O811    1.966   .     S
Cu790  N800    2.041   .     S
Cu790  O815    1.927   .     S
Cu790  O809    1.966   .     S
Cu790  O813    1.927   .     S
H795   O802    1.014   .     S
H796   O804    1.014   .     S
H797   O806    1.014   .     S
H798   O808    1.014   .     S
C817   C820    1.453   .     S
C817   O849    1.303   .     A
C817   O859    1.303   .     A
C818   C820    1.401   .     A
C818   H842    1.082   .     S
C819   C835    1.401   .     A
C819   C836    1.401   .     A
C819   C828    1.453   .     S
C820   C834    1.401   .     A
C821   C825    1.476   .     S
C821   N848    1.378   .     A
C822   C826    1.476   .     S
C822   N847    1.376   .     A
C822   C535    1.428   1_565 S
C823   N848    1.378   .     A
C823   C827    1.476   .     S
C824   N847    1.376   .     A
C824   C829    1.476   .     S
C824   C533    1.428   1_565 S
C825   O850    1.395   .     S
C825   O864    1.223   .     D
C826   O852    1.398   .     S
C826   O851    1.221   .     D
C827   O854    1.395   .     S
C827   O853    1.223   .     D
C828   O857    1.303   .     A
C828   O858    1.303   .     A
C829   O855    1.221   .     D
C829   O856    1.398   .     S
C830   C832    1.406   .     S
C830   O860    1.298   .     A
C830   O863    1.298   .     A
C831   O861    1.298   .     A
C831   O862    1.298   .     A
C831   C833    1.406   .     S
C833   C1264   1.189   .     S
C834   H839    1.082   .     S
C835   H840    1.082   .     S
C835   C722    1.384   1_655 S
C836   H841    1.082   .     S
C836   C738    1.383   1_655 S
Cu837  O860    1.927   .     S
Cu837  Cu838   2.716   .     S
Cu837  N847    2.041   .     S
Cu837  O849    1.966   .     S
Cu837  O858    1.966   .     S
Cu837  O862    1.927   .     S
Cu838  O859    1.966   .     S
Cu838  N848    2.041   .     S
Cu838  O863    1.927   .     S
Cu838  O857    1.966   .     S
Cu838  O861    1.927   .     S
H843   O850    1.014   .     S
H844   O852    1.014   .     S
H845   O854    1.014   .     S
H846   O856    1.014   .     S
C865   C868    1.453   .     S
C865   O897    1.303   .     A
C865   O907    1.303   .     A
C866   C868    1.401   .     A
C866   H890    1.082   .     S
C866   C979    1.384   1_455 S
C867   C883    1.401   .     A
C867   C884    1.401   .     A
C867   C876    1.453   .     S
C868   C882    1.401   .     A
C869   C873    1.476   .     S
C869   N896    1.378   .     A
C869   C1160   1.428   1_545 S
C870   C874    1.476   .     S
C870   N895    1.376   .     A
C870   C1015   1.428   .     S
C871   N896    1.378   .     A
C871   C875    1.476   .     S
C871   C1158   1.428   1_545 S
C872   N895    1.376   .     A
C872   C877    1.476   .     S
C872   C1013   1.428   .     S
C873   O898    1.395   .     S
C873   O912    1.223   .     D
C874   O900    1.398   .     S
C874   O899    1.221   .     D
C875   O902    1.395   .     S
C875   O901    1.223   .     D
C876   O905    1.303   .     A
C876   O906    1.303   .     A
C877   O903    1.221   .     D
C877   O904    1.398   .     S
C878   C880    1.406   .     S
C878   O908    1.298   .     A
C878   O911    1.298   .     A
C879   O909    1.298   .     A
C879   O910    1.298   .     A
C879   C881    1.406   .     S
C881   C16     1.189   1_556 S
C882   H887    1.082   .     S
C882   C980    1.383   1_455 S
C883   H888    1.082   .     S
C883   C914    1.384   .     S
C884   H889    1.082   .     S
C884   C930    1.383   .     S
Cu885  O908    1.927   .     S
Cu885  Cu886   2.716   .     S
Cu885  N895    2.041   .     S
Cu885  O897    1.966   .     S
Cu885  O906    1.966   .     S
Cu885  O910    1.927   .     S
Cu886  O907    1.966   .     S
Cu886  N896    2.041   .     S
Cu886  O911    1.927   .     S
Cu886  O905    1.966   .     S
Cu886  O909    1.927   .     S
H891   O898    1.014   .     S
H892   O900    1.014   .     S
H893   O902    1.014   .     S
H894   O904    1.014   .     S
C913   C916    1.453   .     S
C913   O945    1.303   .     A
C913   O955    1.303   .     A
C914   C916    1.401   .     A
C914   H938    1.082   .     S
C915   C931    1.401   .     A
C915   C932    1.401   .     A
C915   C924    1.453   .     S
C916   C930    1.401   .     A
C917   C921    1.476   .     S
C917   N944    1.378   .     A
C917   C1208   1.428   1_545 S
C918   C922    1.476   .     S
C918   N943    1.376   .     A
C918   C1063   1.428   .     S
C919   N944    1.378   .     A
C919   C923    1.476   .     S
C919   C1206   1.428   1_545 S
C920   N943    1.376   .     A
C920   C925    1.476   .     S
C920   C1061   1.428   .     S
C921   O946    1.395   .     S
C921   O960    1.223   .     D
C922   O948    1.398   .     S
C922   O947    1.221   .     D
C923   O950    1.395   .     S
C923   O949    1.223   .     D
C924   O953    1.303   .     A
C924   O954    1.303   .     A
C925   O951    1.221   .     D
C925   O952    1.398   .     S
C926   C928    1.406   .     S
C926   O956    1.298   .     A
C926   O959    1.298   .     A
C927   O957    1.298   .     A
C927   O958    1.298   .     A
C927   C929    1.406   .     S
C929   C64     1.189   1_556 S
C930   H935    1.082   .     S
C931   H936    1.082   .     S
C931   C962    1.384   .     S
C932   H937    1.082   .     S
C932   C978    1.383   .     S
Cu933  O956    1.927   .     S
Cu933  Cu934   2.716   .     S
Cu933  N943    2.041   .     S
Cu933  O945    1.966   .     S
Cu933  O954    1.966   .     S
Cu933  O958    1.927   .     S
Cu934  O955    1.966   .     S
Cu934  N944    2.041   .     S
Cu934  O959    1.927   .     S
Cu934  O953    1.966   .     S
Cu934  O957    1.927   .     S
H939   O946    1.014   .     S
H940   O948    1.014   .     S
H941   O950    1.014   .     S
H942   O952    1.014   .     S
C961   C964    1.453   .     S
C961   O993    1.303   .     A
C961   O1003   1.303   .     A
C962   C964    1.401   .     A
C962   H986    1.082   .     S
C963   C979    1.401   .     A
C963   C980    1.401   .     A
C963   C972    1.453   .     S
C964   C978    1.401   .     A
C965   C969    1.476   .     S
C965   N992    1.378   .     A
C965   C1256   1.428   1_545 S
C966   C970    1.476   .     S
C966   N991    1.376   .     A
C966   C1111   1.428   .     S
C967   N992    1.378   .     A
C967   C971    1.476   .     S
C967   C1254   1.428   1_545 S
C968   N991    1.376   .     A
C968   C973    1.476   .     S
C968   C1109   1.428   .     S
C969   O994    1.395   .     S
C969   O1008   1.223   .     D
C970   O996    1.398   .     S
C970   O995    1.221   .     D
C971   O998    1.395   .     S
C971   O997    1.223   .     D
C972   O1001   1.303   .     A
C972   O1002   1.303   .     A
C973   O999    1.221   .     D
C973   O1000   1.398   .     S
C974   C976    1.406   .     S
C974   O1004   1.298   .     A
C974   O1007   1.298   .     A
C975   O1005   1.298   .     A
C975   O1006   1.298   .     A
C975   C977    1.406   .     S
C977   C112    1.189   1_556 S
C978   H983    1.082   .     S
C979   H984    1.082   .     S
C979   C866    1.384   1_655 S
C980   H985    1.082   .     S
C980   C882    1.383   1_655 S
Cu981  O1004   1.927   .     S
Cu981  Cu982   2.716   .     S
Cu981  N991    2.041   .     S
Cu981  O993    1.966   .     S
Cu981  O1002   1.966   .     S
Cu981  O1006   1.927   .     S
Cu982  O1003   1.966   .     S
Cu982  N992    2.041   .     S
Cu982  O1007   1.927   .     S
Cu982  O1001   1.966   .     S
Cu982  O1005   1.927   .     S
H987   O994    1.014   .     S
H988   O996    1.014   .     S
H989   O998    1.014   .     S
H990   O1000   1.014   .     S
C1009  C1012   1.453   .     S
C1009  O1041   1.303   .     A
C1009  O1051   1.303   .     A
C1010  C1012   1.401   .     A
C1010  H1034   1.082   .     S
C1010  C1123   1.384   1_455 S
C1011  C1027   1.401   .     A
C1011  C1028   1.401   .     A
C1011  C1020   1.453   .     S
C1012  C1026   1.401   .     A
C1013  C1017   1.476   .     S
C1013  N1040   1.378   .     A
C1014  C1018   1.476   .     S
C1014  N1039   1.376   .     A
C1014  C1159   1.428   .     S
C1015  N1040   1.378   .     A
C1015  C1019   1.476   .     S
C1016  N1039   1.376   .     A
C1016  C1021   1.476   .     S
C1016  C1157   1.428   .     S
C1017  O1042   1.395   .     S
C1017  O1056   1.223   .     D
C1018  O1044   1.398   .     S
C1018  O1043   1.221   .     D
C1019  O1046   1.395   .     S
C1019  O1045   1.223   .     D
C1020  O1049   1.303   .     A
C1020  O1050   1.303   .     A
C1021  O1047   1.221   .     D
C1021  O1048   1.398   .     S
C1022  C1024   1.406   .     S
C1022  O1052   1.298   .     A
C1022  O1055   1.298   .     A
C1023  O1053   1.298   .     A
C1023  O1054   1.298   .     A
C1023  C1025   1.406   .     S
C1025  C160    1.189   1_556 S
C1026  H1031   1.082   .     S
C1026  C1124   1.383   1_455 S
C1027  H1032   1.082   .     S
C1027  C1058   1.384   .     S
C1028  H1033   1.082   .     S
C1028  C1074   1.383   .     S
Cu1029 O1052   1.927   .     S
Cu1029 Cu1030  2.716   .     S
Cu1029 N1039   2.041   .     S
Cu1029 O1041   1.966   .     S
Cu1029 O1050   1.966   .     S
Cu1029 O1054   1.927   .     S
Cu1030 O1051   1.966   .     S
Cu1030 N1040   2.041   .     S
Cu1030 O1055   1.927   .     S
Cu1030 O1049   1.966   .     S
Cu1030 O1053   1.927   .     S
H1035  O1042   1.014   .     S
H1036  O1044   1.014   .     S
H1037  O1046   1.014   .     S
H1038  O1048   1.014   .     S
C1057  C1060   1.453   .     S
C1057  O1089   1.303   .     A
C1057  O1099   1.303   .     A
C1058  C1060   1.401   .     A
C1058  H1082   1.082   .     S
C1059  C1075   1.401   .     A
C1059  C1076   1.401   .     A
C1059  C1068   1.453   .     S
C1060  C1074   1.401   .     A
C1061  C1065   1.476   .     S
C1061  N1088   1.378   .     A
C1062  C1066   1.476   .     S
C1062  N1087   1.376   .     A
C1062  C1207   1.428   .     S
C1063  N1088   1.378   .     A
C1063  C1067   1.476   .     S
C1064  N1087   1.376   .     A
C1064  C1069   1.476   .     S
C1064  C1205   1.428   .     S
C1065  O1090   1.395   .     S
C1065  O1104   1.223   .     D
C1066  O1092   1.398   .     S
C1066  O1091   1.221   .     D
C1067  O1094   1.395   .     S
C1067  O1093   1.223   .     D
C1068  O1097   1.303   .     A
C1068  O1098   1.303   .     A
C1069  O1095   1.221   .     D
C1069  O1096   1.398   .     S
C1070  C1072   1.406   .     S
C1070  O1100   1.298   .     A
C1070  O1103   1.298   .     A
C1071  O1101   1.298   .     A
C1071  O1102   1.298   .     A
C1071  C1073   1.406   .     S
C1073  C208    1.189   1_556 S
C1074  H1079   1.082   .     S
C1075  H1080   1.082   .     S
C1075  C1106   1.384   .     S
C1076  H1081   1.082   .     S
C1076  C1122   1.383   .     S
Cu1077 O1100   1.927   .     S
Cu1077 Cu1078  2.716   .     S
Cu1077 N1087   2.041   .     S
Cu1077 O1089   1.966   .     S
Cu1077 O1098   1.966   .     S
Cu1077 O1102   1.927   .     S
Cu1078 O1099   1.966   .     S
Cu1078 N1088   2.041   .     S
Cu1078 O1103   1.927   .     S
Cu1078 O1097   1.966   .     S
Cu1078 O1101   1.927   .     S
H1083  O1090   1.014   .     S
H1084  O1092   1.014   .     S
H1085  O1094   1.014   .     S
H1086  O1096   1.014   .     S
C1105  C1108   1.453   .     S
C1105  O1137   1.303   .     A
C1105  O1147   1.303   .     A
C1106  C1108   1.401   .     A
C1106  H1130   1.082   .     S
C1107  C1123   1.401   .     A
C1107  C1124   1.401   .     A
C1107  C1116   1.453   .     S
C1108  C1122   1.401   .     A
C1109  C1113   1.476   .     S
C1109  N1136   1.378   .     A
C1110  C1114   1.476   .     S
C1110  N1135   1.376   .     A
C1110  C1255   1.428   .     S
C1111  N1136   1.378   .     A
C1111  C1115   1.476   .     S
C1112  N1135   1.376   .     A
C1112  C1117   1.476   .     S
C1112  C1253   1.428   .     S
C1113  O1138   1.395   .     S
C1113  O1152   1.223   .     D
C1114  O1140   1.398   .     S
C1114  O1139   1.221   .     D
C1115  O1142   1.395   .     S
C1115  O1141   1.223   .     D
C1116  O1145   1.303   .     A
C1116  O1146   1.303   .     A
C1117  O1143   1.221   .     D
C1117  O1144   1.398   .     S
C1118  C1120   1.406   .     S
C1118  O1148   1.298   .     A
C1118  O1151   1.298   .     A
C1119  O1149   1.298   .     A
C1119  O1150   1.298   .     A
C1119  C1121   1.406   .     S
C1121  C256    1.189   1_556 S
C1122  H1127   1.082   .     S
C1123  H1128   1.082   .     S
C1123  C1010   1.384   1_655 S
C1124  H1129   1.082   .     S
C1124  C1026   1.383   1_655 S
Cu1125 O1148   1.927   .     S
Cu1125 Cu1126  2.716   .     S
Cu1125 N1135   2.041   .     S
Cu1125 O1137   1.966   .     S
Cu1125 O1146   1.966   .     S
Cu1125 O1150   1.927   .     S
Cu1126 O1147   1.966   .     S
Cu1126 N1136   2.041   .     S
Cu1126 O1151   1.927   .     S
Cu1126 O1145   1.966   .     S
Cu1126 O1149   1.927   .     S
H1131  O1138   1.014   .     S
H1132  O1140   1.014   .     S
H1133  O1142   1.014   .     S
H1134  O1144   1.014   .     S
C1153  C1156   1.453   .     S
C1153  O1185   1.303   .     A
C1153  O1195   1.303   .     A
C1154  C1156   1.401   .     A
C1154  H1178   1.082   .     S
C1154  C1267   1.384   1_455 S
C1155  C1171   1.401   .     A
C1155  C1172   1.401   .     A
C1155  C1164   1.453   .     S
C1156  C1170   1.401   .     A
C1157  C1161   1.476   .     S
C1157  N1184   1.378   .     A
C1158  C1162   1.476   .     S
C1158  N1183   1.376   .     A
C1158  C871    1.428   1_565 S
C1159  N1184   1.378   .     A
C1159  C1163   1.476   .     S
C1160  N1183   1.376   .     A
C1160  C1165   1.476   .     S
C1160  C869    1.428   1_565 S
C1161  O1186   1.395   .     S
C1161  O1200   1.223   .     D
C1162  O1188   1.398   .     S
C1162  O1187   1.221   .     D
C1163  O1190   1.395   .     S
C1163  O1189   1.223   .     D
C1164  O1193   1.303   .     A
C1164  O1194   1.303   .     A
C1165  O1191   1.221   .     D
C1165  O1192   1.398   .     S
C1166  C1168   1.406   .     S
C1166  O1196   1.298   .     A
C1166  O1199   1.298   .     A
C1167  O1197   1.298   .     A
C1167  O1198   1.298   .     A
C1167  C1169   1.406   .     S
C1169  C304    1.189   1_556 S
C1170  H1175   1.082   .     S
C1170  C1268   1.383   1_455 S
C1171  H1176   1.082   .     S
C1171  C1202   1.384   .     S
C1172  H1177   1.082   .     S
C1172  C1218   1.383   .     S
Cu1173 O1196   1.927   .     S
Cu1173 Cu1174  2.716   .     S
Cu1173 N1183   2.041   .     S
Cu1173 O1185   1.966   .     S
Cu1173 O1194   1.966   .     S
Cu1173 O1198   1.927   .     S
Cu1174 O1195   1.966   .     S
Cu1174 N1184   2.041   .     S
Cu1174 O1199   1.927   .     S
Cu1174 O1193   1.966   .     S
Cu1174 O1197   1.927   .     S
H1179  O1186   1.014   .     S
H1180  O1188   1.014   .     S
H1181  O1190   1.014   .     S
H1182  O1192   1.014   .     S
C1201  C1204   1.453   .     S
C1201  O1233   1.303   .     A
C1201  O1243   1.303   .     A
C1202  C1204   1.401   .     A
C1202  H1226   1.082   .     S
C1203  C1219   1.401   .     A
C1203  C1220   1.401   .     A
C1203  C1212   1.453   .     S
C1204  C1218   1.401   .     A
C1205  C1209   1.476   .     S
C1205  N1232   1.378   .     A
C1206  C1210   1.476   .     S
C1206  N1231   1.376   .     A
C1206  C919    1.428   1_565 S
C1207  N1232   1.378   .     A
C1207  C1211   1.476   .     S
C1208  N1231   1.376   .     A
C1208  C1213   1.476   .     S
C1208  C917    1.428   1_565 S
C1209  O1234   1.395   .     S
C1209  O1248   1.223   .     D
C1210  O1236   1.398   .     S
C1210  O1235   1.221   .     D
C1211  O1238   1.395   .     S
C1211  O1237   1.223   .     D
C1212  O1241   1.303   .     A
C1212  O1242   1.303   .     A
C1213  O1239   1.221   .     D
C1213  O1240   1.398   .     S
C1214  C1216   1.406   .     S
C1214  O1244   1.298   .     A
C1214  O1247   1.298   .     A
C1215  O1245   1.298   .     A
C1215  O1246   1.298   .     A
C1215  C1217   1.406   .     S
C1217  C352    1.189   1_556 S
C1218  H1223   1.082   .     S
C1219  H1224   1.082   .     S
C1219  C1250   1.384   .     S
C1220  H1225   1.082   .     S
C1220  C1266   1.383   .     S
Cu1221 O1244   1.927   .     S
Cu1221 Cu1222  2.716   .     S
Cu1221 N1231   2.041   .     S
Cu1221 O1233   1.966   .     S
Cu1221 O1242   1.966   .     S
Cu1221 O1246   1.927   .     S
Cu1222 O1243   1.966   .     S
Cu1222 N1232   2.041   .     S
Cu1222 O1247   1.927   .     S
Cu1222 O1241   1.966   .     S
Cu1222 O1245   1.927   .     S
H1227  O1234   1.014   .     S
H1228  O1236   1.014   .     S
H1229  O1238   1.014   .     S
H1230  O1240   1.014   .     S
C1249  C1252   1.453   .     S
C1249  O1281   1.303   .     A
C1249  O1291   1.303   .     A
C1250  C1252   1.401   .     A
C1250  H1274   1.082   .     S
C1251  C1267   1.401   .     A
C1251  C1268   1.401   .     A
C1251  C1260   1.453   .     S
C1252  C1266   1.401   .     A
C1253  C1257   1.476   .     S
C1253  N1280   1.378   .     A
C1254  C1258   1.476   .     S
C1254  N1279   1.376   .     A
C1254  C967    1.428   1_565 S
C1255  N1280   1.378   .     A
C1255  C1259   1.476   .     S
C1256  N1279   1.376   .     A
C1256  C1261   1.476   .     S
C1256  C965    1.428   1_565 S
C1257  O1282   1.395   .     S
C1257  O1296   1.223   .     D
C1258  O1284   1.398   .     S
C1258  O1283   1.221   .     D
C1259  O1286   1.395   .     S
C1259  O1285   1.223   .     D
C1260  O1289   1.303   .     A
C1260  O1290   1.303   .     A
C1261  O1287   1.221   .     D
C1261  O1288   1.398   .     S
C1262  C1264   1.406   .     S
C1262  O1292   1.298   .     A
C1262  O1295   1.298   .     A
C1263  O1293   1.298   .     A
C1263  O1294   1.298   .     A
C1263  C1265   1.406   .     S
C1265  C400    1.189   1_556 S
C1266  H1271   1.082   .     S
C1267  H1272   1.082   .     S
C1267  C1154   1.384   1_655 S
C1268  H1273   1.082   .     S
C1268  C1170   1.383   1_655 S
Cu1269 O1292   1.927   .     S
Cu1269 Cu1270  2.716   .     S
Cu1269 N1279   2.041   .     S
Cu1269 O1281   1.966   .     S
Cu1269 O1290   1.966   .     S
Cu1269 O1294   1.927   .     S
Cu1270 O1291   1.966   .     S
Cu1270 N1280   2.041   .     S
Cu1270 O1295   1.927   .     S
Cu1270 O1289   1.966   .     S
Cu1270 O1293   1.927   .     S
H1275  O1282   1.014   .     S
H1276  O1284   1.014   .     S
H1277  O1286   1.014   .     S
H1278  O1288   1.014   .     S
