data_str_m2_o1_o17_pcu_sym.88
_audit_creation_date              2020-01-03
_audit_creation_method            'Materials Studio'
_symmetry_space_group_name_H-M    'P1'
_symmetry_Int_Tables_number       1
_symmetry_cell_setting            triclinic
loop_
_symmetry_equiv_pos_as_xyz
  x,y,z
_cell_length_a                    32.7411
_cell_length_b                    28.5727
_cell_length_c                    30.1539
_cell_angle_alpha                 89.7884
_cell_angle_beta                  89.9675
_cell_angle_gamma                 89.7992
loop_
_atom_site_label
_atom_site_type_symbol
_atom_site_fract_x
_atom_site_fract_y
_atom_site_fract_z
_atom_site_U_iso_or_equiv
_atom_site_adp_type
_atom_site_occupancy
Br1    Br    0.07896   0.16778   0.37319   0.00000  Uiso   1.00
Br2    Br    0.25438   0.16556   0.12681   0.00000  Uiso   1.00
C3     C     0.08746   0.16667   0.24976   0.00000  Uiso   1.00
C4     C     0.04278   0.16653   0.24967   0.00000  Uiso   1.00
C5     C     0.14992   0.02498   0.21560   0.00000  Uiso   1.00
C6     C     0.18341   0.30835   0.28440   0.00000  Uiso   1.00
C7     C     0.18321   0.02455   0.28450   0.00000  Uiso   1.00
C8     C     0.15012   0.30878   0.21550   0.00000  Uiso   1.00
C9     C     0.16669   0.16665   0.16456   0.00000  Uiso   1.00
C10    C     0.16665   0.16668   0.33544   0.00000  Uiso   1.00
C11    C     0.20407   0.16986   0.40653   0.00000  Uiso   1.00
C12    C     0.12927   0.16347   0.09347   0.00000  Uiso   1.00
C13    C     0.16678   0.16698   0.38365   0.00000  Uiso   1.00
C14    C     0.24588   0.16666   0.25024   0.00000  Uiso   1.00
C15    C     0.16656   0.16635   0.11635   0.00000  Uiso   1.00
C16    C     0.12943   0.16588   0.40649   0.00000  Uiso   1.00
C17    C     0.20390   0.16745   0.09351   0.00000  Uiso   1.00
C18    C     0.12924   0.16523   0.45309   0.00000  Uiso   1.00
C19    C     0.20409   0.16811   0.04691   0.00000  Uiso   1.00
C20    C     0.16670   0.16686   0.47653   0.00000  Uiso   1.00
C21    C     0.16664   0.16647   0.02347   0.00000  Uiso   1.00
C22    C     0.20420   0.16929   0.45320   0.00000  Uiso   1.00
C23    C     0.12914   0.16405   0.04680   0.00000  Uiso   1.00
C24    C     0.09244   0.16294   0.47687   0.00000  Uiso   1.00
C25    C     0.09237   0.16226   0.02285   0.00000  Uiso   1.00
C26    C     0.24089   0.17039   0.02313   0.00000  Uiso   1.00
C27    C     0.24190   0.17509   0.38186   0.00000  Uiso   1.00
C28    C     0.09144   0.15824   0.11814   0.00000  Uiso   1.00
C29    C     0.04287   0.09225   0.29417   0.00000  Uiso   1.00
C30    C     0.29046   0.24108   0.20583   0.00000  Uiso   1.00
C31    C     0.29106   0.09447   0.29738   0.00000  Uiso   1.00
C32    C     0.04227   0.23886   0.20262   0.00000  Uiso   1.00
C33    C     0.24096   0.17107   0.47715   0.00000  Uiso   1.00
C34    C     0.02145   0.13007   0.27142   0.00000  Uiso   1.00
C35    C     0.31189   0.20326   0.22858   0.00000  Uiso   1.00
C36    C     0.31214   0.13048   0.27209   0.00000  Uiso   1.00
C37    C     0.02119   0.20285   0.22791   0.00000  Uiso   1.00
C38    C     0.29055   0.16680   0.25033   0.00000  Uiso   1.00
Cu39   Cu    0.16667   0.21355   0.25000   0.00000  Uiso   1.00
Cu40   Cu    0.16667   0.11978   0.25000   0.00000  Uiso   1.00
H41    H     0.06317   0.16140   0.46042   0.00000  Uiso   1.00
H42    H     0.27017   0.17193   0.03958   0.00000  Uiso   1.00
H43    H     0.06307   0.16049   0.03941   0.00000  Uiso   1.00
H44    H     0.27026   0.17284   0.46059   0.00000  Uiso   1.00
H45    H     0.13629   0.04366   0.18806   0.00000  Uiso   1.00
H46    H     0.19704   0.28968   0.31194   0.00000  Uiso   1.00
H47    H     0.19620   0.04290   0.31234   0.00000  Uiso   1.00
H48    H     0.13713   0.29044   0.18766   0.00000  Uiso   1.00
N49    N     0.16667   0.28402   0.25000   0.00000  Uiso   1.00
N50    N     0.16667   0.04931   0.25000   0.00000  Uiso   1.00
N51    N     0.27210   0.17965   0.36242   0.00000  Uiso   1.00
N52    N     0.06123   0.15368   0.13758   0.00000  Uiso   1.00
N53    N     0.05980   0.06209   0.31224   0.00000  Uiso   1.00
N54    N     0.27353   0.27125   0.18776   0.00000  Uiso   1.00
N55    N     0.27470   0.06573   0.31777   0.00000  Uiso   1.00
N56    N     0.05863   0.26760   0.18223   0.00000  Uiso   1.00
O57    O     0.10655   0.20625   0.25000   0.00000  Uiso   1.00
O58    O     0.22679   0.12709   0.25001   0.00000  Uiso   1.00
O59    O     0.22679   0.20625   0.25001   0.00000  Uiso   1.00
O60    O     0.10655   0.12709   0.25000   0.00000  Uiso   1.00
O61    O     0.16666   0.20627   0.18513   0.00000  Uiso   1.00
O62    O     0.16668   0.12707   0.31487   0.00000  Uiso   1.00
O63    O     0.16668   0.20627   0.31487   0.00000  Uiso   1.00
O64    O     0.16666   0.12707   0.18513   0.00000  Uiso   1.00
Br65   Br    0.41229   0.16778   0.37319   0.00000  Uiso   1.00
Br66   Br    0.58771   0.16556   0.12681   0.00000  Uiso   1.00
C67    C     0.42079   0.16667   0.24976   0.00000  Uiso   1.00
C68    C     0.37612   0.16653   0.24967   0.00000  Uiso   1.00
C69    C     0.48326   0.02498   0.21560   0.00000  Uiso   1.00
C70    C     0.51674   0.30835   0.28440   0.00000  Uiso   1.00
C71    C     0.51654   0.02455   0.28450   0.00000  Uiso   1.00
C72    C     0.48346   0.30878   0.21550   0.00000  Uiso   1.00
C73    C     0.50002   0.16665   0.16456   0.00000  Uiso   1.00
C74    C     0.49998   0.16668   0.33544   0.00000  Uiso   1.00
C75    C     0.53740   0.16986   0.40653   0.00000  Uiso   1.00
C76    C     0.46260   0.16347   0.09347   0.00000  Uiso   1.00
C77    C     0.50011   0.16698   0.38365   0.00000  Uiso   1.00
C78    C     0.57921   0.16666   0.25024   0.00000  Uiso   1.00
C79    C     0.49989   0.16635   0.11635   0.00000  Uiso   1.00
C80    C     0.46276   0.16588   0.40649   0.00000  Uiso   1.00
C81    C     0.53724   0.16745   0.09351   0.00000  Uiso   1.00
C82    C     0.46258   0.16523   0.45309   0.00000  Uiso   1.00
C83    C     0.53742   0.16811   0.04691   0.00000  Uiso   1.00
C84    C     0.50003   0.16686   0.47653   0.00000  Uiso   1.00
C85    C     0.49997   0.16647   0.02347   0.00000  Uiso   1.00
C86    C     0.53753   0.16929   0.45320   0.00000  Uiso   1.00
C87    C     0.46247   0.16405   0.04680   0.00000  Uiso   1.00
C88    C     0.42577   0.16294   0.47687   0.00000  Uiso   1.00
C89    C     0.42570   0.16226   0.02285   0.00000  Uiso   1.00
C90    C     0.57423   0.17039   0.02313   0.00000  Uiso   1.00
C91    C     0.57523   0.17509   0.38186   0.00000  Uiso   1.00
C92    C     0.42477   0.15824   0.11814   0.00000  Uiso   1.00
C93    C     0.37621   0.09225   0.29417   0.00000  Uiso   1.00
C94    C     0.62379   0.24108   0.20583   0.00000  Uiso   1.00
C95    C     0.62439   0.09447   0.29738   0.00000  Uiso   1.00
C96    C     0.37561   0.23886   0.20262   0.00000  Uiso   1.00
C97    C     0.57430   0.17107   0.47715   0.00000  Uiso   1.00
C98    C     0.35478   0.13007   0.27142   0.00000  Uiso   1.00
C99    C     0.64522   0.20326   0.22858   0.00000  Uiso   1.00
C100   C     0.64547   0.13048   0.27209   0.00000  Uiso   1.00
C101   C     0.35453   0.20285   0.22791   0.00000  Uiso   1.00
C102   C     0.62388   0.16680   0.25033   0.00000  Uiso   1.00
Cu103  Cu    0.50000   0.21355   0.25000   0.00000  Uiso   1.00
Cu104  Cu    0.50000   0.11978   0.25000   0.00000  Uiso   1.00
H105   H     0.39650   0.16140   0.46042   0.00000  Uiso   1.00
H106   H     0.60350   0.17193   0.03958   0.00000  Uiso   1.00
H107   H     0.39640   0.16049   0.03941   0.00000  Uiso   1.00
H108   H     0.60360   0.17284   0.46059   0.00000  Uiso   1.00
H109   H     0.46962   0.04366   0.18806   0.00000  Uiso   1.00
H110   H     0.53038   0.28968   0.31194   0.00000  Uiso   1.00
H111   H     0.52954   0.04290   0.31234   0.00000  Uiso   1.00
H112   H     0.47046   0.29044   0.18766   0.00000  Uiso   1.00
N113   N     0.50000   0.28402   0.25000   0.00000  Uiso   1.00
N114   N     0.50000   0.04931   0.25000   0.00000  Uiso   1.00
N115   N     0.60544   0.17965   0.36242   0.00000  Uiso   1.00
N116   N     0.39456   0.15368   0.13758   0.00000  Uiso   1.00
N117   N     0.39313   0.06209   0.31224   0.00000  Uiso   1.00
N118   N     0.60687   0.27125   0.18776   0.00000  Uiso   1.00
N119   N     0.60803   0.06573   0.31777   0.00000  Uiso   1.00
N120   N     0.39197   0.26760   0.18223   0.00000  Uiso   1.00
O121   O     0.43988   0.20625   0.25000   0.00000  Uiso   1.00
O122   O     0.56012   0.12709   0.25001   0.00000  Uiso   1.00
O123   O     0.56012   0.20625   0.25001   0.00000  Uiso   1.00
O124   O     0.43988   0.12709   0.25000   0.00000  Uiso   1.00
O125   O     0.49999   0.20627   0.18513   0.00000  Uiso   1.00
O126   O     0.50001   0.12707   0.31487   0.00000  Uiso   1.00
O127   O     0.50001   0.20627   0.31487   0.00000  Uiso   1.00
O128   O     0.49999   0.12707   0.18513   0.00000  Uiso   1.00
Br129  Br    0.74562   0.16778   0.37319   0.00000  Uiso   1.00
Br130  Br    0.92104   0.16556   0.12681   0.00000  Uiso   1.00
C131   C     0.75412   0.16667   0.24976   0.00000  Uiso   1.00
C132   C     0.70945   0.16653   0.24967   0.00000  Uiso   1.00
C133   C     0.81659   0.02498   0.21560   0.00000  Uiso   1.00
C134   C     0.85008   0.30835   0.28440   0.00000  Uiso   1.00
C135   C     0.84988   0.02455   0.28450   0.00000  Uiso   1.00
C136   C     0.81679   0.30878   0.21550   0.00000  Uiso   1.00
C137   C     0.83335   0.16665   0.16456   0.00000  Uiso   1.00
C138   C     0.83332   0.16668   0.33544   0.00000  Uiso   1.00
C139   C     0.87074   0.16986   0.40653   0.00000  Uiso   1.00
C140   C     0.79593   0.16347   0.09347   0.00000  Uiso   1.00
C141   C     0.83344   0.16698   0.38365   0.00000  Uiso   1.00
C142   C     0.91255   0.16666   0.25024   0.00000  Uiso   1.00
C143   C     0.83322   0.16635   0.11635   0.00000  Uiso   1.00
C144   C     0.79610   0.16588   0.40649   0.00000  Uiso   1.00
C145   C     0.87057   0.16745   0.09351   0.00000  Uiso   1.00
C146   C     0.79591   0.16523   0.45309   0.00000  Uiso   1.00
C147   C     0.87076   0.16811   0.04691   0.00000  Uiso   1.00
C148   C     0.83336   0.16686   0.47653   0.00000  Uiso   1.00
C149   C     0.83330   0.16647   0.02347   0.00000  Uiso   1.00
C150   C     0.87086   0.16929   0.45320   0.00000  Uiso   1.00
C151   C     0.79580   0.16405   0.04680   0.00000  Uiso   1.00
C152   C     0.75911   0.16294   0.47687   0.00000  Uiso   1.00
C153   C     0.75904   0.16226   0.02285   0.00000  Uiso   1.00
C154   C     0.90756   0.17039   0.02313   0.00000  Uiso   1.00
C155   C     0.90856   0.17509   0.38186   0.00000  Uiso   1.00
C156   C     0.75810   0.15824   0.11814   0.00000  Uiso   1.00
C157   C     0.70954   0.09225   0.29417   0.00000  Uiso   1.00
C158   C     0.95713   0.24108   0.20583   0.00000  Uiso   1.00
C159   C     0.95773   0.09447   0.29738   0.00000  Uiso   1.00
C160   C     0.70894   0.23886   0.20262   0.00000  Uiso   1.00
C161   C     0.90763   0.17107   0.47715   0.00000  Uiso   1.00
C162   C     0.68811   0.13007   0.27142   0.00000  Uiso   1.00
C163   C     0.97855   0.20326   0.22858   0.00000  Uiso   1.00
C164   C     0.97881   0.13048   0.27209   0.00000  Uiso   1.00
C165   C     0.68786   0.20285   0.22791   0.00000  Uiso   1.00
C166   C     0.95722   0.16680   0.25033   0.00000  Uiso   1.00
Cu167  Cu    0.83333   0.21355   0.25000   0.00000  Uiso   1.00
Cu168  Cu    0.83333   0.11978   0.25000   0.00000  Uiso   1.00
H169   H     0.72983   0.16140   0.46042   0.00000  Uiso   1.00
H170   H     0.93683   0.17193   0.03958   0.00000  Uiso   1.00
H171   H     0.72974   0.16049   0.03941   0.00000  Uiso   1.00
H172   H     0.93693   0.17284   0.46059   0.00000  Uiso   1.00
H173   H     0.80296   0.04366   0.18806   0.00000  Uiso   1.00
H174   H     0.86371   0.28968   0.31194   0.00000  Uiso   1.00
H175   H     0.86287   0.04290   0.31234   0.00000  Uiso   1.00
H176   H     0.80380   0.29044   0.18766   0.00000  Uiso   1.00
N177   N     0.83333   0.28402   0.25000   0.00000  Uiso   1.00
N178   N     0.83333   0.04931   0.25000   0.00000  Uiso   1.00
N179   N     0.93877   0.17965   0.36242   0.00000  Uiso   1.00
N180   N     0.72790   0.15368   0.13758   0.00000  Uiso   1.00
N181   N     0.72647   0.06209   0.31224   0.00000  Uiso   1.00
N182   N     0.94020   0.27125   0.18776   0.00000  Uiso   1.00
N183   N     0.94137   0.06573   0.31777   0.00000  Uiso   1.00
N184   N     0.72530   0.26760   0.18223   0.00000  Uiso   1.00
O185   O     0.77321   0.20625   0.25000   0.00000  Uiso   1.00
O186   O     0.89345   0.12709   0.25001   0.00000  Uiso   1.00
O187   O     0.89345   0.20625   0.25001   0.00000  Uiso   1.00
O188   O     0.77321   0.12709   0.25000   0.00000  Uiso   1.00
O189   O     0.83332   0.20627   0.18513   0.00000  Uiso   1.00
O190   O     0.83334   0.12707   0.31487   0.00000  Uiso   1.00
O191   O     0.83334   0.20627   0.31487   0.00000  Uiso   1.00
O192   O     0.83332   0.12707   0.18513   0.00000  Uiso   1.00
Br193  Br    0.07896   0.50111   0.37319   0.00000  Uiso   1.00
Br194  Br    0.25438   0.49889   0.12681   0.00000  Uiso   1.00
C195   C     0.08746   0.50001   0.24976   0.00000  Uiso   1.00
C196   C     0.04278   0.49987   0.24967   0.00000  Uiso   1.00
C197   C     0.14992   0.35831   0.21560   0.00000  Uiso   1.00
C198   C     0.18341   0.64168   0.28440   0.00000  Uiso   1.00
C199   C     0.18321   0.35789   0.28450   0.00000  Uiso   1.00
C200   C     0.15012   0.64211   0.21550   0.00000  Uiso   1.00
C201   C     0.16669   0.49999   0.16456   0.00000  Uiso   1.00
C202   C     0.16665   0.50001   0.33544   0.00000  Uiso   1.00
C203   C     0.20407   0.50319   0.40653   0.00000  Uiso   1.00
C204   C     0.12927   0.49681   0.09347   0.00000  Uiso   1.00
C205   C     0.16678   0.50031   0.38365   0.00000  Uiso   1.00
C206   C     0.24588   0.49999   0.25024   0.00000  Uiso   1.00
C207   C     0.16656   0.49969   0.11635   0.00000  Uiso   1.00
C208   C     0.12943   0.49921   0.40649   0.00000  Uiso   1.00
C209   C     0.20390   0.50079   0.09351   0.00000  Uiso   1.00
C210   C     0.12924   0.49856   0.45309   0.00000  Uiso   1.00
C211   C     0.20409   0.50144   0.04691   0.00000  Uiso   1.00
C212   C     0.16670   0.50019   0.47653   0.00000  Uiso   1.00
C213   C     0.16664   0.49981   0.02347   0.00000  Uiso   1.00
C214   C     0.20420   0.50262   0.45320   0.00000  Uiso   1.00
C215   C     0.12914   0.49738   0.04680   0.00000  Uiso   1.00
C216   C     0.09244   0.49628   0.47687   0.00000  Uiso   1.00
C217   C     0.09237   0.49560   0.02285   0.00000  Uiso   1.00
C218   C     0.24089   0.50372   0.02313   0.00000  Uiso   1.00
C219   C     0.24190   0.50842   0.38186   0.00000  Uiso   1.00
C220   C     0.09144   0.49158   0.11814   0.00000  Uiso   1.00
C221   C     0.04287   0.42559   0.29417   0.00000  Uiso   1.00
C222   C     0.29046   0.57441   0.20583   0.00000  Uiso   1.00
C223   C     0.29106   0.42781   0.29738   0.00000  Uiso   1.00
C224   C     0.04227   0.57219   0.20262   0.00000  Uiso   1.00
C225   C     0.24096   0.50440   0.47715   0.00000  Uiso   1.00
C226   C     0.02145   0.46340   0.27142   0.00000  Uiso   1.00
C227   C     0.31189   0.53660   0.22858   0.00000  Uiso   1.00
C228   C     0.31214   0.46382   0.27209   0.00000  Uiso   1.00
C229   C     0.02119   0.53618   0.22791   0.00000  Uiso   1.00
C230   C     0.29055   0.50013   0.25033   0.00000  Uiso   1.00
Cu231  Cu    0.16667   0.54689   0.25000   0.00000  Uiso   1.00
Cu232  Cu    0.16667   0.45311   0.25000   0.00000  Uiso   1.00
H233   H     0.06317   0.49474   0.46042   0.00000  Uiso   1.00
H234   H     0.27017   0.50526   0.03958   0.00000  Uiso   1.00
H235   H     0.06307   0.49382   0.03941   0.00000  Uiso   1.00
H236   H     0.27026   0.50618   0.46059   0.00000  Uiso   1.00
H237   H     0.13629   0.37699   0.18806   0.00000  Uiso   1.00
H238   H     0.19704   0.62301   0.31194   0.00000  Uiso   1.00
H239   H     0.19620   0.37623   0.31234   0.00000  Uiso   1.00
H240   H     0.13713   0.62377   0.18766   0.00000  Uiso   1.00
N241   N     0.16667   0.61736   0.25000   0.00000  Uiso   1.00
N242   N     0.16667   0.38264   0.25000   0.00000  Uiso   1.00
N243   N     0.27210   0.51298   0.36242   0.00000  Uiso   1.00
N244   N     0.06123   0.48702   0.13758   0.00000  Uiso   1.00
N245   N     0.05980   0.39542   0.31224   0.00000  Uiso   1.00
N246   N     0.27353   0.60458   0.18776   0.00000  Uiso   1.00
N247   N     0.27470   0.39906   0.31777   0.00000  Uiso   1.00
N248   N     0.05863   0.60094   0.18223   0.00000  Uiso   1.00
O249   O     0.10655   0.53958   0.25000   0.00000  Uiso   1.00
O250   O     0.22679   0.46042   0.25001   0.00000  Uiso   1.00
O251   O     0.22679   0.53958   0.25001   0.00000  Uiso   1.00
O252   O     0.10655   0.46042   0.25000   0.00000  Uiso   1.00
O253   O     0.16666   0.53960   0.18513   0.00000  Uiso   1.00
O254   O     0.16668   0.46040   0.31487   0.00000  Uiso   1.00
O255   O     0.16668   0.53960   0.31487   0.00000  Uiso   1.00
O256   O     0.16666   0.46040   0.18513   0.00000  Uiso   1.00
Br257  Br    0.41229   0.50111   0.37319   0.00000  Uiso   1.00
Br258  Br    0.58771   0.49889   0.12681   0.00000  Uiso   1.00
C259   C     0.42079   0.50001   0.24976   0.00000  Uiso   1.00
C260   C     0.37612   0.49987   0.24967   0.00000  Uiso   1.00
C261   C     0.48326   0.35831   0.21560   0.00000  Uiso   1.00
C262   C     0.51674   0.64168   0.28440   0.00000  Uiso   1.00
C263   C     0.51654   0.35789   0.28450   0.00000  Uiso   1.00
C264   C     0.48346   0.64211   0.21550   0.00000  Uiso   1.00
C265   C     0.50002   0.49999   0.16456   0.00000  Uiso   1.00
C266   C     0.49998   0.50001   0.33544   0.00000  Uiso   1.00
C267   C     0.53740   0.50319   0.40653   0.00000  Uiso   1.00
C268   C     0.46260   0.49681   0.09347   0.00000  Uiso   1.00
C269   C     0.50011   0.50031   0.38365   0.00000  Uiso   1.00
C270   C     0.57921   0.49999   0.25024   0.00000  Uiso   1.00
C271   C     0.49989   0.49969   0.11635   0.00000  Uiso   1.00
C272   C     0.46276   0.49921   0.40649   0.00000  Uiso   1.00
C273   C     0.53724   0.50079   0.09351   0.00000  Uiso   1.00
C274   C     0.46258   0.49856   0.45309   0.00000  Uiso   1.00
C275   C     0.53742   0.50144   0.04691   0.00000  Uiso   1.00
C276   C     0.50003   0.50019   0.47653   0.00000  Uiso   1.00
C277   C     0.49997   0.49981   0.02347   0.00000  Uiso   1.00
C278   C     0.53753   0.50262   0.45320   0.00000  Uiso   1.00
C279   C     0.46247   0.49738   0.04680   0.00000  Uiso   1.00
C280   C     0.42577   0.49628   0.47687   0.00000  Uiso   1.00
C281   C     0.42570   0.49560   0.02285   0.00000  Uiso   1.00
C282   C     0.57423   0.50372   0.02313   0.00000  Uiso   1.00
C283   C     0.57523   0.50842   0.38186   0.00000  Uiso   1.00
C284   C     0.42477   0.49158   0.11814   0.00000  Uiso   1.00
C285   C     0.37621   0.42559   0.29417   0.00000  Uiso   1.00
C286   C     0.62379   0.57441   0.20583   0.00000  Uiso   1.00
C287   C     0.62439   0.42781   0.29738   0.00000  Uiso   1.00
C288   C     0.37561   0.57219   0.20262   0.00000  Uiso   1.00
C289   C     0.57430   0.50440   0.47715   0.00000  Uiso   1.00
C290   C     0.35478   0.46340   0.27142   0.00000  Uiso   1.00
C291   C     0.64522   0.53660   0.22858   0.00000  Uiso   1.00
C292   C     0.64547   0.46382   0.27209   0.00000  Uiso   1.00
C293   C     0.35453   0.53618   0.22791   0.00000  Uiso   1.00
C294   C     0.62388   0.50013   0.25033   0.00000  Uiso   1.00
Cu295  Cu    0.50000   0.54689   0.25000   0.00000  Uiso   1.00
Cu296  Cu    0.50000   0.45311   0.25000   0.00000  Uiso   1.00
H297   H     0.39650   0.49474   0.46042   0.00000  Uiso   1.00
H298   H     0.60350   0.50526   0.03958   0.00000  Uiso   1.00
H299   H     0.39640   0.49382   0.03941   0.00000  Uiso   1.00
H300   H     0.60360   0.50618   0.46059   0.00000  Uiso   1.00
H301   H     0.46962   0.37699   0.18806   0.00000  Uiso   1.00
H302   H     0.53038   0.62301   0.31194   0.00000  Uiso   1.00
H303   H     0.52954   0.37623   0.31234   0.00000  Uiso   1.00
H304   H     0.47046   0.62377   0.18766   0.00000  Uiso   1.00
N305   N     0.50000   0.61736   0.25000   0.00000  Uiso   1.00
N306   N     0.50000   0.38264   0.25000   0.00000  Uiso   1.00
N307   N     0.60544   0.51298   0.36242   0.00000  Uiso   1.00
N308   N     0.39456   0.48702   0.13758   0.00000  Uiso   1.00
N309   N     0.39313   0.39542   0.31224   0.00000  Uiso   1.00
N310   N     0.60687   0.60458   0.18776   0.00000  Uiso   1.00
N311   N     0.60803   0.39906   0.31777   0.00000  Uiso   1.00
N312   N     0.39197   0.60094   0.18223   0.00000  Uiso   1.00
O313   O     0.43988   0.53958   0.25000   0.00000  Uiso   1.00
O314   O     0.56012   0.46042   0.25001   0.00000  Uiso   1.00
O315   O     0.56012   0.53958   0.25001   0.00000  Uiso   1.00
O316   O     0.43988   0.46042   0.25000   0.00000  Uiso   1.00
O317   O     0.49999   0.53960   0.18513   0.00000  Uiso   1.00
O318   O     0.50001   0.46040   0.31487   0.00000  Uiso   1.00
O319   O     0.50001   0.53960   0.31487   0.00000  Uiso   1.00
O320   O     0.49999   0.46040   0.18513   0.00000  Uiso   1.00
Br321  Br    0.74562   0.50111   0.37319   0.00000  Uiso   1.00
Br322  Br    0.92104   0.49889   0.12681   0.00000  Uiso   1.00
C323   C     0.75412   0.50001   0.24976   0.00000  Uiso   1.00
C324   C     0.70945   0.49987   0.24967   0.00000  Uiso   1.00
C325   C     0.81659   0.35831   0.21560   0.00000  Uiso   1.00
C326   C     0.85008   0.64168   0.28440   0.00000  Uiso   1.00
C327   C     0.84988   0.35789   0.28450   0.00000  Uiso   1.00
C328   C     0.81679   0.64211   0.21550   0.00000  Uiso   1.00
C329   C     0.83335   0.49999   0.16456   0.00000  Uiso   1.00
C330   C     0.83332   0.50001   0.33544   0.00000  Uiso   1.00
C331   C     0.87074   0.50319   0.40653   0.00000  Uiso   1.00
C332   C     0.79593   0.49681   0.09347   0.00000  Uiso   1.00
C333   C     0.83344   0.50031   0.38365   0.00000  Uiso   1.00
C334   C     0.91255   0.49999   0.25024   0.00000  Uiso   1.00
C335   C     0.83322   0.49969   0.11635   0.00000  Uiso   1.00
C336   C     0.79610   0.49921   0.40649   0.00000  Uiso   1.00
C337   C     0.87057   0.50079   0.09351   0.00000  Uiso   1.00
C338   C     0.79591   0.49856   0.45309   0.00000  Uiso   1.00
C339   C     0.87076   0.50144   0.04691   0.00000  Uiso   1.00
C340   C     0.83336   0.50019   0.47653   0.00000  Uiso   1.00
C341   C     0.83330   0.49981   0.02347   0.00000  Uiso   1.00
C342   C     0.87086   0.50262   0.45320   0.00000  Uiso   1.00
C343   C     0.79580   0.49738   0.04680   0.00000  Uiso   1.00
C344   C     0.75911   0.49628   0.47687   0.00000  Uiso   1.00
C345   C     0.75904   0.49560   0.02285   0.00000  Uiso   1.00
C346   C     0.90756   0.50372   0.02313   0.00000  Uiso   1.00
C347   C     0.90856   0.50842   0.38186   0.00000  Uiso   1.00
C348   C     0.75810   0.49158   0.11814   0.00000  Uiso   1.00
C349   C     0.70954   0.42559   0.29417   0.00000  Uiso   1.00
C350   C     0.95713   0.57441   0.20583   0.00000  Uiso   1.00
C351   C     0.95773   0.42781   0.29738   0.00000  Uiso   1.00
C352   C     0.70894   0.57219   0.20262   0.00000  Uiso   1.00
C353   C     0.90763   0.50440   0.47715   0.00000  Uiso   1.00
C354   C     0.68811   0.46340   0.27142   0.00000  Uiso   1.00
C355   C     0.97855   0.53660   0.22858   0.00000  Uiso   1.00
C356   C     0.97881   0.46382   0.27209   0.00000  Uiso   1.00
C357   C     0.68786   0.53618   0.22791   0.00000  Uiso   1.00
C358   C     0.95722   0.50013   0.25033   0.00000  Uiso   1.00
Cu359  Cu    0.83333   0.54689   0.25000   0.00000  Uiso   1.00
Cu360  Cu    0.83333   0.45311   0.25000   0.00000  Uiso   1.00
H361   H     0.72983   0.49474   0.46042   0.00000  Uiso   1.00
H362   H     0.93683   0.50526   0.03958   0.00000  Uiso   1.00
H363   H     0.72974   0.49382   0.03941   0.00000  Uiso   1.00
H364   H     0.93693   0.50618   0.46059   0.00000  Uiso   1.00
H365   H     0.80296   0.37699   0.18806   0.00000  Uiso   1.00
H366   H     0.86371   0.62301   0.31194   0.00000  Uiso   1.00
H367   H     0.86287   0.37623   0.31234   0.00000  Uiso   1.00
H368   H     0.80380   0.62377   0.18766   0.00000  Uiso   1.00
N369   N     0.83333   0.61736   0.25000   0.00000  Uiso   1.00
N370   N     0.83333   0.38264   0.25000   0.00000  Uiso   1.00
N371   N     0.93877   0.51298   0.36242   0.00000  Uiso   1.00
N372   N     0.72790   0.48702   0.13758   0.00000  Uiso   1.00
N373   N     0.72647   0.39542   0.31224   0.00000  Uiso   1.00
N374   N     0.94020   0.60458   0.18776   0.00000  Uiso   1.00
N375   N     0.94137   0.39906   0.31777   0.00000  Uiso   1.00
N376   N     0.72530   0.60094   0.18223   0.00000  Uiso   1.00
O377   O     0.77321   0.53958   0.25000   0.00000  Uiso   1.00
O378   O     0.89345   0.46042   0.25001   0.00000  Uiso   1.00
O379   O     0.89345   0.53958   0.25001   0.00000  Uiso   1.00
O380   O     0.77321   0.46042   0.25000   0.00000  Uiso   1.00
O381   O     0.83332   0.53960   0.18513   0.00000  Uiso   1.00
O382   O     0.83334   0.46040   0.31487   0.00000  Uiso   1.00
O383   O     0.83334   0.53960   0.31487   0.00000  Uiso   1.00
O384   O     0.83332   0.46040   0.18513   0.00000  Uiso   1.00
Br385  Br    0.07896   0.83444   0.37319   0.00000  Uiso   1.00
Br386  Br    0.25438   0.83222   0.12681   0.00000  Uiso   1.00
C387   C     0.08746   0.83334   0.24976   0.00000  Uiso   1.00
C388   C     0.04278   0.83320   0.24967   0.00000  Uiso   1.00
C389   C     0.14992   0.69165   0.21560   0.00000  Uiso   1.00
C390   C     0.18341   0.97502   0.28440   0.00000  Uiso   1.00
C391   C     0.18321   0.69122   0.28450   0.00000  Uiso   1.00
C392   C     0.15012   0.97544   0.21550   0.00000  Uiso   1.00
C393   C     0.16669   0.83332   0.16456   0.00000  Uiso   1.00
C394   C     0.16665   0.83335   0.33544   0.00000  Uiso   1.00
C395   C     0.20407   0.83653   0.40653   0.00000  Uiso   1.00
C396   C     0.12927   0.83014   0.09347   0.00000  Uiso   1.00
C397   C     0.16678   0.83365   0.38365   0.00000  Uiso   1.00
C398   C     0.24588   0.83333   0.25024   0.00000  Uiso   1.00
C399   C     0.16656   0.83302   0.11635   0.00000  Uiso   1.00
C400   C     0.12943   0.83255   0.40649   0.00000  Uiso   1.00
C401   C     0.20390   0.83412   0.09351   0.00000  Uiso   1.00
C402   C     0.12924   0.83189   0.45309   0.00000  Uiso   1.00
C403   C     0.20409   0.83477   0.04691   0.00000  Uiso   1.00
C404   C     0.16670   0.83352   0.47653   0.00000  Uiso   1.00
C405   C     0.16664   0.83314   0.02347   0.00000  Uiso   1.00
C406   C     0.20420   0.83595   0.45320   0.00000  Uiso   1.00
C407   C     0.12914   0.83071   0.04680   0.00000  Uiso   1.00
C408   C     0.09244   0.82961   0.47687   0.00000  Uiso   1.00
C409   C     0.09237   0.82893   0.02285   0.00000  Uiso   1.00
C410   C     0.24089   0.83706   0.02313   0.00000  Uiso   1.00
C411   C     0.24190   0.84176   0.38186   0.00000  Uiso   1.00
C412   C     0.09144   0.82491   0.11814   0.00000  Uiso   1.00
C413   C     0.04287   0.75892   0.29417   0.00000  Uiso   1.00
C414   C     0.29046   0.90775   0.20583   0.00000  Uiso   1.00
C415   C     0.29106   0.76114   0.29738   0.00000  Uiso   1.00
C416   C     0.04227   0.90553   0.20262   0.00000  Uiso   1.00
C417   C     0.24096   0.83774   0.47715   0.00000  Uiso   1.00
C418   C     0.02145   0.79674   0.27142   0.00000  Uiso   1.00
C419   C     0.31189   0.86993   0.22858   0.00000  Uiso   1.00
C420   C     0.31214   0.79715   0.27209   0.00000  Uiso   1.00
C421   C     0.02119   0.86952   0.22791   0.00000  Uiso   1.00
C422   C     0.29055   0.83347   0.25033   0.00000  Uiso   1.00
Cu423  Cu    0.16667   0.88022   0.25000   0.00000  Uiso   1.00
Cu424  Cu    0.16667   0.78645   0.25000   0.00000  Uiso   1.00
H425   H     0.06317   0.82807   0.46042   0.00000  Uiso   1.00
H426   H     0.27017   0.83860   0.03958   0.00000  Uiso   1.00
H427   H     0.06307   0.82716   0.03941   0.00000  Uiso   1.00
H428   H     0.27026   0.83951   0.46059   0.00000  Uiso   1.00
H429   H     0.13629   0.71032   0.18806   0.00000  Uiso   1.00
H430   H     0.19704   0.95634   0.31194   0.00000  Uiso   1.00
H431   H     0.19620   0.70956   0.31234   0.00000  Uiso   1.00
H432   H     0.13713   0.95710   0.18766   0.00000  Uiso   1.00
N433   N     0.16667   0.95069   0.25000   0.00000  Uiso   1.00
N434   N     0.16667   0.71598   0.25000   0.00000  Uiso   1.00
N435   N     0.27210   0.84632   0.36242   0.00000  Uiso   1.00
N436   N     0.06123   0.82035   0.13758   0.00000  Uiso   1.00
N437   N     0.05980   0.72875   0.31224   0.00000  Uiso   1.00
N438   N     0.27353   0.93791   0.18776   0.00000  Uiso   1.00
N439   N     0.27470   0.73239   0.31777   0.00000  Uiso   1.00
N440   N     0.05863   0.93427   0.18223   0.00000  Uiso   1.00
O441   O     0.10655   0.87291   0.25000   0.00000  Uiso   1.00
O442   O     0.22679   0.79375   0.25001   0.00000  Uiso   1.00
O443   O     0.22679   0.87291   0.25001   0.00000  Uiso   1.00
O444   O     0.10655   0.79375   0.25000   0.00000  Uiso   1.00
O445   O     0.16666   0.87293   0.18513   0.00000  Uiso   1.00
O446   O     0.16668   0.79373   0.31487   0.00000  Uiso   1.00
O447   O     0.16668   0.87293   0.31487   0.00000  Uiso   1.00
O448   O     0.16666   0.79373   0.18513   0.00000  Uiso   1.00
Br449  Br    0.41229   0.83444   0.37319   0.00000  Uiso   1.00
Br450  Br    0.58771   0.83222   0.12681   0.00000  Uiso   1.00
C451   C     0.42079   0.83334   0.24976   0.00000  Uiso   1.00
C452   C     0.37612   0.83320   0.24967   0.00000  Uiso   1.00
C453   C     0.48326   0.69165   0.21560   0.00000  Uiso   1.00
C454   C     0.51674   0.97502   0.28440   0.00000  Uiso   1.00
C455   C     0.51654   0.69122   0.28450   0.00000  Uiso   1.00
C456   C     0.48346   0.97544   0.21550   0.00000  Uiso   1.00
C457   C     0.50002   0.83332   0.16456   0.00000  Uiso   1.00
C458   C     0.49998   0.83335   0.33544   0.00000  Uiso   1.00
C459   C     0.53740   0.83653   0.40653   0.00000  Uiso   1.00
C460   C     0.46260   0.83014   0.09347   0.00000  Uiso   1.00
C461   C     0.50011   0.83365   0.38365   0.00000  Uiso   1.00
C462   C     0.57921   0.83333   0.25024   0.00000  Uiso   1.00
C463   C     0.49989   0.83302   0.11635   0.00000  Uiso   1.00
C464   C     0.46276   0.83255   0.40649   0.00000  Uiso   1.00
C465   C     0.53724   0.83412   0.09351   0.00000  Uiso   1.00
C466   C     0.46258   0.83189   0.45309   0.00000  Uiso   1.00
C467   C     0.53742   0.83477   0.04691   0.00000  Uiso   1.00
C468   C     0.50003   0.83352   0.47653   0.00000  Uiso   1.00
C469   C     0.49997   0.83314   0.02347   0.00000  Uiso   1.00
C470   C     0.53753   0.83595   0.45320   0.00000  Uiso   1.00
C471   C     0.46247   0.83071   0.04680   0.00000  Uiso   1.00
C472   C     0.42577   0.82961   0.47687   0.00000  Uiso   1.00
C473   C     0.42570   0.82893   0.02285   0.00000  Uiso   1.00
C474   C     0.57423   0.83706   0.02313   0.00000  Uiso   1.00
C475   C     0.57523   0.84176   0.38186   0.00000  Uiso   1.00
C476   C     0.42477   0.82491   0.11814   0.00000  Uiso   1.00
C477   C     0.37621   0.75892   0.29417   0.00000  Uiso   1.00
C478   C     0.62379   0.90775   0.20583   0.00000  Uiso   1.00
C479   C     0.62439   0.76114   0.29738   0.00000  Uiso   1.00
C480   C     0.37561   0.90553   0.20262   0.00000  Uiso   1.00
C481   C     0.57430   0.83774   0.47715   0.00000  Uiso   1.00
C482   C     0.35478   0.79674   0.27142   0.00000  Uiso   1.00
C483   C     0.64522   0.86993   0.22858   0.00000  Uiso   1.00
C484   C     0.64547   0.79715   0.27209   0.00000  Uiso   1.00
C485   C     0.35453   0.86952   0.22791   0.00000  Uiso   1.00
C486   C     0.62388   0.83347   0.25033   0.00000  Uiso   1.00
Cu487  Cu    0.50000   0.88022   0.25000   0.00000  Uiso   1.00
Cu488  Cu    0.50000   0.78645   0.25000   0.00000  Uiso   1.00
H489   H     0.39650   0.82807   0.46042   0.00000  Uiso   1.00
H490   H     0.60350   0.83860   0.03958   0.00000  Uiso   1.00
H491   H     0.39640   0.82716   0.03941   0.00000  Uiso   1.00
H492   H     0.60360   0.83951   0.46059   0.00000  Uiso   1.00
H493   H     0.46962   0.71032   0.18806   0.00000  Uiso   1.00
H494   H     0.53038   0.95634   0.31194   0.00000  Uiso   1.00
H495   H     0.52954   0.70956   0.31234   0.00000  Uiso   1.00
H496   H     0.47046   0.95710   0.18766   0.00000  Uiso   1.00
N497   N     0.50000   0.95069   0.25000   0.00000  Uiso   1.00
N498   N     0.50000   0.71598   0.25000   0.00000  Uiso   1.00
N499   N     0.60544   0.84632   0.36242   0.00000  Uiso   1.00
N500   N     0.39456   0.82035   0.13758   0.00000  Uiso   1.00
N501   N     0.39313   0.72875   0.31224   0.00000  Uiso   1.00
N502   N     0.60687   0.93791   0.18776   0.00000  Uiso   1.00
N503   N     0.60803   0.73239   0.31777   0.00000  Uiso   1.00
N504   N     0.39197   0.93427   0.18223   0.00000  Uiso   1.00
O505   O     0.43988   0.87291   0.25000   0.00000  Uiso   1.00
O506   O     0.56012   0.79375   0.25001   0.00000  Uiso   1.00
O507   O     0.56012   0.87291   0.25001   0.00000  Uiso   1.00
O508   O     0.43988   0.79375   0.25000   0.00000  Uiso   1.00
O509   O     0.49999   0.87293   0.18513   0.00000  Uiso   1.00
O510   O     0.50001   0.79373   0.31487   0.00000  Uiso   1.00
O511   O     0.50001   0.87293   0.31487   0.00000  Uiso   1.00
O512   O     0.49999   0.79373   0.18513   0.00000  Uiso   1.00
Br513  Br    0.74562   0.83444   0.37319   0.00000  Uiso   1.00
Br514  Br    0.92104   0.83222   0.12681   0.00000  Uiso   1.00
C515   C     0.75412   0.83334   0.24976   0.00000  Uiso   1.00
C516   C     0.70945   0.83320   0.24967   0.00000  Uiso   1.00
C517   C     0.81659   0.69165   0.21560   0.00000  Uiso   1.00
C518   C     0.85008   0.97502   0.28440   0.00000  Uiso   1.00
C519   C     0.84988   0.69122   0.28450   0.00000  Uiso   1.00
C520   C     0.81679   0.97544   0.21550   0.00000  Uiso   1.00
C521   C     0.83335   0.83332   0.16456   0.00000  Uiso   1.00
C522   C     0.83332   0.83335   0.33544   0.00000  Uiso   1.00
C523   C     0.87074   0.83653   0.40653   0.00000  Uiso   1.00
C524   C     0.79593   0.83014   0.09347   0.00000  Uiso   1.00
C525   C     0.83344   0.83365   0.38365   0.00000  Uiso   1.00
C526   C     0.91255   0.83333   0.25024   0.00000  Uiso   1.00
C527   C     0.83322   0.83302   0.11635   0.00000  Uiso   1.00
C528   C     0.79610   0.83255   0.40649   0.00000  Uiso   1.00
C529   C     0.87057   0.83412   0.09351   0.00000  Uiso   1.00
C530   C     0.79591   0.83189   0.45309   0.00000  Uiso   1.00
C531   C     0.87076   0.83477   0.04691   0.00000  Uiso   1.00
C532   C     0.83336   0.83352   0.47653   0.00000  Uiso   1.00
C533   C     0.83330   0.83314   0.02347   0.00000  Uiso   1.00
C534   C     0.87086   0.83595   0.45320   0.00000  Uiso   1.00
C535   C     0.79580   0.83071   0.04680   0.00000  Uiso   1.00
C536   C     0.75911   0.82961   0.47687   0.00000  Uiso   1.00
C537   C     0.75904   0.82893   0.02285   0.00000  Uiso   1.00
C538   C     0.90756   0.83706   0.02313   0.00000  Uiso   1.00
C539   C     0.90856   0.84176   0.38186   0.00000  Uiso   1.00
C540   C     0.75810   0.82491   0.11814   0.00000  Uiso   1.00
C541   C     0.70954   0.75892   0.29417   0.00000  Uiso   1.00
C542   C     0.95713   0.90775   0.20583   0.00000  Uiso   1.00
C543   C     0.95773   0.76114   0.29738   0.00000  Uiso   1.00
C544   C     0.70894   0.90553   0.20262   0.00000  Uiso   1.00
C545   C     0.90763   0.83774   0.47715   0.00000  Uiso   1.00
C546   C     0.68811   0.79674   0.27142   0.00000  Uiso   1.00
C547   C     0.97855   0.86993   0.22858   0.00000  Uiso   1.00
C548   C     0.97881   0.79715   0.27209   0.00000  Uiso   1.00
C549   C     0.68786   0.86952   0.22791   0.00000  Uiso   1.00
C550   C     0.95722   0.83347   0.25033   0.00000  Uiso   1.00
Cu551  Cu    0.83333   0.88022   0.25000   0.00000  Uiso   1.00
Cu552  Cu    0.83333   0.78645   0.25000   0.00000  Uiso   1.00
H553   H     0.72983   0.82807   0.46042   0.00000  Uiso   1.00
H554   H     0.93683   0.83860   0.03958   0.00000  Uiso   1.00
H555   H     0.72974   0.82716   0.03941   0.00000  Uiso   1.00
H556   H     0.93693   0.83951   0.46059   0.00000  Uiso   1.00
H557   H     0.80296   0.71032   0.18806   0.00000  Uiso   1.00
H558   H     0.86371   0.95634   0.31194   0.00000  Uiso   1.00
H559   H     0.86287   0.70956   0.31234   0.00000  Uiso   1.00
H560   H     0.80380   0.95710   0.18766   0.00000  Uiso   1.00
N561   N     0.83333   0.95069   0.25000   0.00000  Uiso   1.00
N562   N     0.83333   0.71598   0.25000   0.00000  Uiso   1.00
N563   N     0.93877   0.84632   0.36242   0.00000  Uiso   1.00
N564   N     0.72790   0.82035   0.13758   0.00000  Uiso   1.00
N565   N     0.72647   0.72875   0.31224   0.00000  Uiso   1.00
N566   N     0.94020   0.93791   0.18776   0.00000  Uiso   1.00
N567   N     0.94137   0.73239   0.31777   0.00000  Uiso   1.00
N568   N     0.72530   0.93427   0.18223   0.00000  Uiso   1.00
O569   O     0.77321   0.87291   0.25000   0.00000  Uiso   1.00
O570   O     0.89345   0.79375   0.25001   0.00000  Uiso   1.00
O571   O     0.89345   0.87291   0.25001   0.00000  Uiso   1.00
O572   O     0.77321   0.79375   0.25000   0.00000  Uiso   1.00
O573   O     0.83332   0.87293   0.18513   0.00000  Uiso   1.00
O574   O     0.83334   0.79373   0.31487   0.00000  Uiso   1.00
O575   O     0.83334   0.87293   0.31487   0.00000  Uiso   1.00
O576   O     0.83332   0.79373   0.18513   0.00000  Uiso   1.00
Br577  Br    0.07896   0.16778   0.87319   0.00000  Uiso   1.00
Br578  Br    0.25438   0.16556   0.62681   0.00000  Uiso   1.00
C579   C     0.08746   0.16667   0.74976   0.00000  Uiso   1.00
C580   C     0.04278   0.16653   0.74967   0.00000  Uiso   1.00
C581   C     0.14992   0.02498   0.71560   0.00000  Uiso   1.00
C582   C     0.18341   0.30835   0.78440   0.00000  Uiso   1.00
C583   C     0.18321   0.02455   0.78450   0.00000  Uiso   1.00
C584   C     0.15012   0.30878   0.71550   0.00000  Uiso   1.00
C585   C     0.16669   0.16665   0.66456   0.00000  Uiso   1.00
C586   C     0.16665   0.16668   0.83544   0.00000  Uiso   1.00
C587   C     0.20407   0.16986   0.90653   0.00000  Uiso   1.00
C588   C     0.12927   0.16347   0.59347   0.00000  Uiso   1.00
C589   C     0.16678   0.16698   0.88365   0.00000  Uiso   1.00
C590   C     0.24588   0.16666   0.75024   0.00000  Uiso   1.00
C591   C     0.16656   0.16635   0.61635   0.00000  Uiso   1.00
C592   C     0.12943   0.16588   0.90649   0.00000  Uiso   1.00
C593   C     0.20390   0.16745   0.59351   0.00000  Uiso   1.00
C594   C     0.12924   0.16523   0.95309   0.00000  Uiso   1.00
C595   C     0.20409   0.16811   0.54691   0.00000  Uiso   1.00
C596   C     0.16670   0.16686   0.97653   0.00000  Uiso   1.00
C597   C     0.16664   0.16647   0.52347   0.00000  Uiso   1.00
C598   C     0.20420   0.16929   0.95320   0.00000  Uiso   1.00
C599   C     0.12914   0.16405   0.54680   0.00000  Uiso   1.00
C600   C     0.09244   0.16294   0.97687   0.00000  Uiso   1.00
C601   C     0.09237   0.16226   0.52285   0.00000  Uiso   1.00
C602   C     0.24089   0.17039   0.52313   0.00000  Uiso   1.00
C603   C     0.24190   0.17509   0.88186   0.00000  Uiso   1.00
C604   C     0.09144   0.15824   0.61814   0.00000  Uiso   1.00
C605   C     0.04287   0.09225   0.79417   0.00000  Uiso   1.00
C606   C     0.29046   0.24108   0.70583   0.00000  Uiso   1.00
C607   C     0.29106   0.09447   0.79738   0.00000  Uiso   1.00
C608   C     0.04227   0.23886   0.70262   0.00000  Uiso   1.00
C609   C     0.24096   0.17107   0.97715   0.00000  Uiso   1.00
C610   C     0.02145   0.13007   0.77142   0.00000  Uiso   1.00
C611   C     0.31189   0.20326   0.72858   0.00000  Uiso   1.00
C612   C     0.31214   0.13048   0.77209   0.00000  Uiso   1.00
C613   C     0.02119   0.20285   0.72791   0.00000  Uiso   1.00
C614   C     0.29055   0.16680   0.75033   0.00000  Uiso   1.00
Cu615  Cu    0.16667   0.21355   0.75000   0.00000  Uiso   1.00
Cu616  Cu    0.16667   0.11978   0.75000   0.00000  Uiso   1.00
H617   H     0.06317   0.16140   0.96042   0.00000  Uiso   1.00
H618   H     0.27017   0.17193   0.53958   0.00000  Uiso   1.00
H619   H     0.06307   0.16049   0.53941   0.00000  Uiso   1.00
H620   H     0.27026   0.17284   0.96059   0.00000  Uiso   1.00
H621   H     0.13629   0.04366   0.68806   0.00000  Uiso   1.00
H622   H     0.19704   0.28968   0.81194   0.00000  Uiso   1.00
H623   H     0.19620   0.04290   0.81234   0.00000  Uiso   1.00
H624   H     0.13713   0.29044   0.68766   0.00000  Uiso   1.00
N625   N     0.16667   0.28402   0.75000   0.00000  Uiso   1.00
N626   N     0.16667   0.04931   0.75000   0.00000  Uiso   1.00
N627   N     0.27210   0.17965   0.86242   0.00000  Uiso   1.00
N628   N     0.06123   0.15368   0.63758   0.00000  Uiso   1.00
N629   N     0.05980   0.06209   0.81224   0.00000  Uiso   1.00
N630   N     0.27353   0.27125   0.68776   0.00000  Uiso   1.00
N631   N     0.27470   0.06573   0.81777   0.00000  Uiso   1.00
N632   N     0.05863   0.26760   0.68223   0.00000  Uiso   1.00
O633   O     0.10655   0.20625   0.75000   0.00000  Uiso   1.00
O634   O     0.22679   0.12709   0.75001   0.00000  Uiso   1.00
O635   O     0.22679   0.20625   0.75001   0.00000  Uiso   1.00
O636   O     0.10655   0.12709   0.75000   0.00000  Uiso   1.00
O637   O     0.16666   0.20627   0.68513   0.00000  Uiso   1.00
O638   O     0.16668   0.12707   0.81487   0.00000  Uiso   1.00
O639   O     0.16668   0.20627   0.81487   0.00000  Uiso   1.00
O640   O     0.16666   0.12707   0.68513   0.00000  Uiso   1.00
Br641  Br    0.41229   0.16778   0.87319   0.00000  Uiso   1.00
Br642  Br    0.58771   0.16556   0.62681   0.00000  Uiso   1.00
C643   C     0.42079   0.16667   0.74976   0.00000  Uiso   1.00
C644   C     0.37612   0.16653   0.74967   0.00000  Uiso   1.00
C645   C     0.48326   0.02498   0.71560   0.00000  Uiso   1.00
C646   C     0.51674   0.30835   0.78440   0.00000  Uiso   1.00
C647   C     0.51654   0.02455   0.78450   0.00000  Uiso   1.00
C648   C     0.48346   0.30878   0.71550   0.00000  Uiso   1.00
C649   C     0.50002   0.16665   0.66456   0.00000  Uiso   1.00
C650   C     0.49998   0.16668   0.83544   0.00000  Uiso   1.00
C651   C     0.53740   0.16986   0.90653   0.00000  Uiso   1.00
C652   C     0.46260   0.16347   0.59347   0.00000  Uiso   1.00
C653   C     0.50011   0.16698   0.88365   0.00000  Uiso   1.00
C654   C     0.57921   0.16666   0.75024   0.00000  Uiso   1.00
C655   C     0.49989   0.16635   0.61635   0.00000  Uiso   1.00
C656   C     0.46276   0.16588   0.90649   0.00000  Uiso   1.00
C657   C     0.53724   0.16745   0.59351   0.00000  Uiso   1.00
C658   C     0.46258   0.16523   0.95309   0.00000  Uiso   1.00
C659   C     0.53742   0.16811   0.54691   0.00000  Uiso   1.00
C660   C     0.50003   0.16686   0.97653   0.00000  Uiso   1.00
C661   C     0.49997   0.16647   0.52347   0.00000  Uiso   1.00
C662   C     0.53753   0.16929   0.95320   0.00000  Uiso   1.00
C663   C     0.46247   0.16405   0.54680   0.00000  Uiso   1.00
C664   C     0.42577   0.16294   0.97687   0.00000  Uiso   1.00
C665   C     0.42570   0.16226   0.52285   0.00000  Uiso   1.00
C666   C     0.57423   0.17039   0.52313   0.00000  Uiso   1.00
C667   C     0.57523   0.17509   0.88186   0.00000  Uiso   1.00
C668   C     0.42477   0.15824   0.61814   0.00000  Uiso   1.00
C669   C     0.37621   0.09225   0.79417   0.00000  Uiso   1.00
C670   C     0.62379   0.24108   0.70583   0.00000  Uiso   1.00
C671   C     0.62439   0.09447   0.79738   0.00000  Uiso   1.00
C672   C     0.37561   0.23886   0.70262   0.00000  Uiso   1.00
C673   C     0.57430   0.17107   0.97715   0.00000  Uiso   1.00
C674   C     0.35478   0.13007   0.77142   0.00000  Uiso   1.00
C675   C     0.64522   0.20326   0.72858   0.00000  Uiso   1.00
C676   C     0.64547   0.13048   0.77209   0.00000  Uiso   1.00
C677   C     0.35453   0.20285   0.72791   0.00000  Uiso   1.00
C678   C     0.62388   0.16680   0.75033   0.00000  Uiso   1.00
Cu679  Cu    0.50000   0.21355   0.75000   0.00000  Uiso   1.00
Cu680  Cu    0.50000   0.11978   0.75000   0.00000  Uiso   1.00
H681   H     0.39650   0.16140   0.96042   0.00000  Uiso   1.00
H682   H     0.60350   0.17193   0.53958   0.00000  Uiso   1.00
H683   H     0.39640   0.16049   0.53941   0.00000  Uiso   1.00
H684   H     0.60360   0.17284   0.96059   0.00000  Uiso   1.00
H685   H     0.46962   0.04366   0.68806   0.00000  Uiso   1.00
H686   H     0.53038   0.28968   0.81194   0.00000  Uiso   1.00
H687   H     0.52954   0.04290   0.81234   0.00000  Uiso   1.00
H688   H     0.47046   0.29044   0.68766   0.00000  Uiso   1.00
N689   N     0.50000   0.28402   0.75000   0.00000  Uiso   1.00
N690   N     0.50000   0.04931   0.75000   0.00000  Uiso   1.00
N691   N     0.60544   0.17965   0.86242   0.00000  Uiso   1.00
N692   N     0.39456   0.15368   0.63758   0.00000  Uiso   1.00
N693   N     0.39313   0.06209   0.81224   0.00000  Uiso   1.00
N694   N     0.60687   0.27125   0.68776   0.00000  Uiso   1.00
N695   N     0.60803   0.06573   0.81777   0.00000  Uiso   1.00
N696   N     0.39197   0.26760   0.68223   0.00000  Uiso   1.00
O697   O     0.43988   0.20625   0.75000   0.00000  Uiso   1.00
O698   O     0.56012   0.12709   0.75001   0.00000  Uiso   1.00
O699   O     0.56012   0.20625   0.75001   0.00000  Uiso   1.00
O700   O     0.43988   0.12709   0.75000   0.00000  Uiso   1.00
O701   O     0.49999   0.20627   0.68513   0.00000  Uiso   1.00
O702   O     0.50001   0.12707   0.81487   0.00000  Uiso   1.00
O703   O     0.50001   0.20627   0.81487   0.00000  Uiso   1.00
O704   O     0.49999   0.12707   0.68513   0.00000  Uiso   1.00
Br705  Br    0.74562   0.16778   0.87319   0.00000  Uiso   1.00
Br706  Br    0.92104   0.16556   0.62681   0.00000  Uiso   1.00
C707   C     0.75412   0.16667   0.74976   0.00000  Uiso   1.00
C708   C     0.70945   0.16653   0.74967   0.00000  Uiso   1.00
C709   C     0.81659   0.02498   0.71560   0.00000  Uiso   1.00
C710   C     0.85008   0.30835   0.78440   0.00000  Uiso   1.00
C711   C     0.84988   0.02455   0.78450   0.00000  Uiso   1.00
C712   C     0.81679   0.30878   0.71550   0.00000  Uiso   1.00
C713   C     0.83335   0.16665   0.66456   0.00000  Uiso   1.00
C714   C     0.83332   0.16668   0.83544   0.00000  Uiso   1.00
C715   C     0.87074   0.16986   0.90653   0.00000  Uiso   1.00
C716   C     0.79593   0.16347   0.59347   0.00000  Uiso   1.00
C717   C     0.83344   0.16698   0.88365   0.00000  Uiso   1.00
C718   C     0.91255   0.16666   0.75024   0.00000  Uiso   1.00
C719   C     0.83322   0.16635   0.61635   0.00000  Uiso   1.00
C720   C     0.79610   0.16588   0.90649   0.00000  Uiso   1.00
C721   C     0.87057   0.16745   0.59351   0.00000  Uiso   1.00
C722   C     0.79591   0.16523   0.95309   0.00000  Uiso   1.00
C723   C     0.87076   0.16811   0.54691   0.00000  Uiso   1.00
C724   C     0.83336   0.16686   0.97653   0.00000  Uiso   1.00
C725   C     0.83330   0.16647   0.52347   0.00000  Uiso   1.00
C726   C     0.87086   0.16929   0.95320   0.00000  Uiso   1.00
C727   C     0.79580   0.16405   0.54680   0.00000  Uiso   1.00
C728   C     0.75911   0.16294   0.97687   0.00000  Uiso   1.00
C729   C     0.75904   0.16226   0.52285   0.00000  Uiso   1.00
C730   C     0.90756   0.17039   0.52313   0.00000  Uiso   1.00
C731   C     0.90856   0.17509   0.88186   0.00000  Uiso   1.00
C732   C     0.75810   0.15824   0.61814   0.00000  Uiso   1.00
C733   C     0.70954   0.09225   0.79417   0.00000  Uiso   1.00
C734   C     0.95713   0.24108   0.70583   0.00000  Uiso   1.00
C735   C     0.95773   0.09447   0.79738   0.00000  Uiso   1.00
C736   C     0.70894   0.23886   0.70262   0.00000  Uiso   1.00
C737   C     0.90763   0.17107   0.97715   0.00000  Uiso   1.00
C738   C     0.68811   0.13007   0.77142   0.00000  Uiso   1.00
C739   C     0.97855   0.20326   0.72858   0.00000  Uiso   1.00
C740   C     0.97881   0.13048   0.77209   0.00000  Uiso   1.00
C741   C     0.68786   0.20285   0.72791   0.00000  Uiso   1.00
C742   C     0.95722   0.16680   0.75033   0.00000  Uiso   1.00
Cu743  Cu    0.83333   0.21355   0.75000   0.00000  Uiso   1.00
Cu744  Cu    0.83333   0.11978   0.75000   0.00000  Uiso   1.00
H745   H     0.72983   0.16140   0.96042   0.00000  Uiso   1.00
H746   H     0.93683   0.17193   0.53958   0.00000  Uiso   1.00
H747   H     0.72974   0.16049   0.53941   0.00000  Uiso   1.00
H748   H     0.93693   0.17284   0.96059   0.00000  Uiso   1.00
H749   H     0.80296   0.04366   0.68806   0.00000  Uiso   1.00
H750   H     0.86371   0.28968   0.81194   0.00000  Uiso   1.00
H751   H     0.86287   0.04290   0.81234   0.00000  Uiso   1.00
H752   H     0.80380   0.29044   0.68766   0.00000  Uiso   1.00
N753   N     0.83333   0.28402   0.75000   0.00000  Uiso   1.00
N754   N     0.83333   0.04931   0.75000   0.00000  Uiso   1.00
N755   N     0.93877   0.17965   0.86242   0.00000  Uiso   1.00
N756   N     0.72790   0.15368   0.63758   0.00000  Uiso   1.00
N757   N     0.72647   0.06209   0.81224   0.00000  Uiso   1.00
N758   N     0.94020   0.27125   0.68776   0.00000  Uiso   1.00
N759   N     0.94137   0.06573   0.81777   0.00000  Uiso   1.00
N760   N     0.72530   0.26760   0.68223   0.00000  Uiso   1.00
O761   O     0.77321   0.20625   0.75000   0.00000  Uiso   1.00
O762   O     0.89345   0.12709   0.75001   0.00000  Uiso   1.00
O763   O     0.89345   0.20625   0.75001   0.00000  Uiso   1.00
O764   O     0.77321   0.12709   0.75000   0.00000  Uiso   1.00
O765   O     0.83332   0.20627   0.68513   0.00000  Uiso   1.00
O766   O     0.83334   0.12707   0.81487   0.00000  Uiso   1.00
O767   O     0.83334   0.20627   0.81487   0.00000  Uiso   1.00
O768   O     0.83332   0.12707   0.68513   0.00000  Uiso   1.00
Br769  Br    0.07896   0.50111   0.87319   0.00000  Uiso   1.00
Br770  Br    0.25438   0.49889   0.62681   0.00000  Uiso   1.00
C771   C     0.08746   0.50001   0.74976   0.00000  Uiso   1.00
C772   C     0.04278   0.49987   0.74967   0.00000  Uiso   1.00
C773   C     0.14992   0.35831   0.71560   0.00000  Uiso   1.00
C774   C     0.18341   0.64168   0.78440   0.00000  Uiso   1.00
C775   C     0.18321   0.35789   0.78450   0.00000  Uiso   1.00
C776   C     0.15012   0.64211   0.71550   0.00000  Uiso   1.00
C777   C     0.16669   0.49999   0.66456   0.00000  Uiso   1.00
C778   C     0.16665   0.50001   0.83544   0.00000  Uiso   1.00
C779   C     0.20407   0.50319   0.90653   0.00000  Uiso   1.00
C780   C     0.12927   0.49681   0.59347   0.00000  Uiso   1.00
C781   C     0.16678   0.50031   0.88365   0.00000  Uiso   1.00
C782   C     0.24588   0.49999   0.75024   0.00000  Uiso   1.00
C783   C     0.16656   0.49969   0.61635   0.00000  Uiso   1.00
C784   C     0.12943   0.49921   0.90649   0.00000  Uiso   1.00
C785   C     0.20390   0.50079   0.59351   0.00000  Uiso   1.00
C786   C     0.12924   0.49856   0.95309   0.00000  Uiso   1.00
C787   C     0.20409   0.50144   0.54691   0.00000  Uiso   1.00
C788   C     0.16670   0.50019   0.97653   0.00000  Uiso   1.00
C789   C     0.16664   0.49981   0.52347   0.00000  Uiso   1.00
C790   C     0.20420   0.50262   0.95320   0.00000  Uiso   1.00
C791   C     0.12914   0.49738   0.54680   0.00000  Uiso   1.00
C792   C     0.09244   0.49628   0.97687   0.00000  Uiso   1.00
C793   C     0.09237   0.49560   0.52285   0.00000  Uiso   1.00
C794   C     0.24089   0.50372   0.52313   0.00000  Uiso   1.00
C795   C     0.24190   0.50842   0.88186   0.00000  Uiso   1.00
C796   C     0.09144   0.49158   0.61814   0.00000  Uiso   1.00
C797   C     0.04287   0.42559   0.79417   0.00000  Uiso   1.00
C798   C     0.29046   0.57441   0.70583   0.00000  Uiso   1.00
C799   C     0.29106   0.42781   0.79738   0.00000  Uiso   1.00
C800   C     0.04227   0.57219   0.70262   0.00000  Uiso   1.00
C801   C     0.24096   0.50440   0.97715   0.00000  Uiso   1.00
C802   C     0.02145   0.46340   0.77142   0.00000  Uiso   1.00
C803   C     0.31189   0.53660   0.72858   0.00000  Uiso   1.00
C804   C     0.31214   0.46382   0.77209   0.00000  Uiso   1.00
C805   C     0.02119   0.53618   0.72791   0.00000  Uiso   1.00
C806   C     0.29055   0.50013   0.75033   0.00000  Uiso   1.00
Cu807  Cu    0.16667   0.54689   0.75000   0.00000  Uiso   1.00
Cu808  Cu    0.16667   0.45311   0.75000   0.00000  Uiso   1.00
H809   H     0.06317   0.49474   0.96042   0.00000  Uiso   1.00
H810   H     0.27017   0.50526   0.53958   0.00000  Uiso   1.00
H811   H     0.06307   0.49382   0.53941   0.00000  Uiso   1.00
H812   H     0.27026   0.50618   0.96059   0.00000  Uiso   1.00
H813   H     0.13629   0.37699   0.68806   0.00000  Uiso   1.00
H814   H     0.19704   0.62301   0.81194   0.00000  Uiso   1.00
H815   H     0.19620   0.37623   0.81234   0.00000  Uiso   1.00
H816   H     0.13713   0.62377   0.68766   0.00000  Uiso   1.00
N817   N     0.16667   0.61736   0.75000   0.00000  Uiso   1.00
N818   N     0.16667   0.38264   0.75000   0.00000  Uiso   1.00
N819   N     0.27210   0.51298   0.86242   0.00000  Uiso   1.00
N820   N     0.06123   0.48702   0.63758   0.00000  Uiso   1.00
N821   N     0.05980   0.39542   0.81224   0.00000  Uiso   1.00
N822   N     0.27353   0.60458   0.68776   0.00000  Uiso   1.00
N823   N     0.27470   0.39906   0.81777   0.00000  Uiso   1.00
N824   N     0.05863   0.60094   0.68223   0.00000  Uiso   1.00
O825   O     0.10655   0.53958   0.75000   0.00000  Uiso   1.00
O826   O     0.22679   0.46042   0.75001   0.00000  Uiso   1.00
O827   O     0.22679   0.53958   0.75001   0.00000  Uiso   1.00
O828   O     0.10655   0.46042   0.75000   0.00000  Uiso   1.00
O829   O     0.16666   0.53960   0.68513   0.00000  Uiso   1.00
O830   O     0.16668   0.46040   0.81487   0.00000  Uiso   1.00
O831   O     0.16668   0.53960   0.81487   0.00000  Uiso   1.00
O832   O     0.16666   0.46040   0.68513   0.00000  Uiso   1.00
Br833  Br    0.41229   0.50111   0.87319   0.00000  Uiso   1.00
Br834  Br    0.58771   0.49889   0.62681   0.00000  Uiso   1.00
C835   C     0.42079   0.50001   0.74976   0.00000  Uiso   1.00
C836   C     0.37612   0.49987   0.74967   0.00000  Uiso   1.00
C837   C     0.48326   0.35831   0.71560   0.00000  Uiso   1.00
C838   C     0.51674   0.64168   0.78440   0.00000  Uiso   1.00
C839   C     0.51654   0.35789   0.78450   0.00000  Uiso   1.00
C840   C     0.48346   0.64211   0.71550   0.00000  Uiso   1.00
C841   C     0.50002   0.49999   0.66456   0.00000  Uiso   1.00
C842   C     0.49998   0.50001   0.83544   0.00000  Uiso   1.00
C843   C     0.53740   0.50319   0.90653   0.00000  Uiso   1.00
C844   C     0.46260   0.49681   0.59347   0.00000  Uiso   1.00
C845   C     0.50011   0.50031   0.88365   0.00000  Uiso   1.00
C846   C     0.57921   0.49999   0.75024   0.00000  Uiso   1.00
C847   C     0.49989   0.49969   0.61635   0.00000  Uiso   1.00
C848   C     0.46276   0.49921   0.90649   0.00000  Uiso   1.00
C849   C     0.53724   0.50079   0.59351   0.00000  Uiso   1.00
C850   C     0.46258   0.49856   0.95309   0.00000  Uiso   1.00
C851   C     0.53742   0.50144   0.54691   0.00000  Uiso   1.00
C852   C     0.50003   0.50019   0.97653   0.00000  Uiso   1.00
C853   C     0.49997   0.49981   0.52347   0.00000  Uiso   1.00
C854   C     0.53753   0.50262   0.95320   0.00000  Uiso   1.00
C855   C     0.46247   0.49738   0.54680   0.00000  Uiso   1.00
C856   C     0.42577   0.49628   0.97687   0.00000  Uiso   1.00
C857   C     0.42570   0.49560   0.52285   0.00000  Uiso   1.00
C858   C     0.57423   0.50372   0.52313   0.00000  Uiso   1.00
C859   C     0.57523   0.50842   0.88186   0.00000  Uiso   1.00
C860   C     0.42477   0.49158   0.61814   0.00000  Uiso   1.00
C861   C     0.37621   0.42559   0.79417   0.00000  Uiso   1.00
C862   C     0.62379   0.57441   0.70583   0.00000  Uiso   1.00
C863   C     0.62439   0.42781   0.79738   0.00000  Uiso   1.00
C864   C     0.37561   0.57219   0.70262   0.00000  Uiso   1.00
C865   C     0.57430   0.50440   0.97715   0.00000  Uiso   1.00
C866   C     0.35478   0.46340   0.77142   0.00000  Uiso   1.00
C867   C     0.64522   0.53660   0.72858   0.00000  Uiso   1.00
C868   C     0.64547   0.46382   0.77209   0.00000  Uiso   1.00
C869   C     0.35453   0.53618   0.72791   0.00000  Uiso   1.00
C870   C     0.62388   0.50013   0.75033   0.00000  Uiso   1.00
Cu871  Cu    0.50000   0.54689   0.75000   0.00000  Uiso   1.00
Cu872  Cu    0.50000   0.45311   0.75000   0.00000  Uiso   1.00
H873   H     0.39650   0.49474   0.96042   0.00000  Uiso   1.00
H874   H     0.60350   0.50526   0.53958   0.00000  Uiso   1.00
H875   H     0.39640   0.49382   0.53941   0.00000  Uiso   1.00
H876   H     0.60360   0.50618   0.96059   0.00000  Uiso   1.00
H877   H     0.46962   0.37699   0.68806   0.00000  Uiso   1.00
H878   H     0.53038   0.62301   0.81194   0.00000  Uiso   1.00
H879   H     0.52954   0.37623   0.81234   0.00000  Uiso   1.00
H880   H     0.47046   0.62377   0.68766   0.00000  Uiso   1.00
N881   N     0.50000   0.61736   0.75000   0.00000  Uiso   1.00
N882   N     0.50000   0.38264   0.75000   0.00000  Uiso   1.00
N883   N     0.60544   0.51298   0.86242   0.00000  Uiso   1.00
N884   N     0.39456   0.48702   0.63758   0.00000  Uiso   1.00
N885   N     0.39313   0.39542   0.81224   0.00000  Uiso   1.00
N886   N     0.60687   0.60458   0.68776   0.00000  Uiso   1.00
N887   N     0.60803   0.39906   0.81777   0.00000  Uiso   1.00
N888   N     0.39197   0.60094   0.68223   0.00000  Uiso   1.00
O889   O     0.43988   0.53958   0.75000   0.00000  Uiso   1.00
O890   O     0.56012   0.46042   0.75001   0.00000  Uiso   1.00
O891   O     0.56012   0.53958   0.75001   0.00000  Uiso   1.00
O892   O     0.43988   0.46042   0.75000   0.00000  Uiso   1.00
O893   O     0.49999   0.53960   0.68513   0.00000  Uiso   1.00
O894   O     0.50001   0.46040   0.81487   0.00000  Uiso   1.00
O895   O     0.50001   0.53960   0.81487   0.00000  Uiso   1.00
O896   O     0.49999   0.46040   0.68513   0.00000  Uiso   1.00
Br897  Br    0.74562   0.50111   0.87319   0.00000  Uiso   1.00
Br898  Br    0.92104   0.49889   0.62681   0.00000  Uiso   1.00
C899   C     0.75412   0.50001   0.74976   0.00000  Uiso   1.00
C900   C     0.70945   0.49987   0.74967   0.00000  Uiso   1.00
C901   C     0.81659   0.35831   0.71560   0.00000  Uiso   1.00
C902   C     0.85008   0.64168   0.78440   0.00000  Uiso   1.00
C903   C     0.84988   0.35789   0.78450   0.00000  Uiso   1.00
C904   C     0.81679   0.64211   0.71550   0.00000  Uiso   1.00
C905   C     0.83335   0.49999   0.66456   0.00000  Uiso   1.00
C906   C     0.83332   0.50001   0.83544   0.00000  Uiso   1.00
C907   C     0.87074   0.50319   0.90653   0.00000  Uiso   1.00
C908   C     0.79593   0.49681   0.59347   0.00000  Uiso   1.00
C909   C     0.83344   0.50031   0.88365   0.00000  Uiso   1.00
C910   C     0.91255   0.49999   0.75024   0.00000  Uiso   1.00
C911   C     0.83322   0.49969   0.61635   0.00000  Uiso   1.00
C912   C     0.79610   0.49921   0.90649   0.00000  Uiso   1.00
C913   C     0.87057   0.50079   0.59351   0.00000  Uiso   1.00
C914   C     0.79591   0.49856   0.95309   0.00000  Uiso   1.00
C915   C     0.87076   0.50144   0.54691   0.00000  Uiso   1.00
C916   C     0.83336   0.50019   0.97653   0.00000  Uiso   1.00
C917   C     0.83330   0.49981   0.52347   0.00000  Uiso   1.00
C918   C     0.87086   0.50262   0.95320   0.00000  Uiso   1.00
C919   C     0.79580   0.49738   0.54680   0.00000  Uiso   1.00
C920   C     0.75911   0.49628   0.97687   0.00000  Uiso   1.00
C921   C     0.75904   0.49560   0.52285   0.00000  Uiso   1.00
C922   C     0.90756   0.50372   0.52313   0.00000  Uiso   1.00
C923   C     0.90856   0.50842   0.88186   0.00000  Uiso   1.00
C924   C     0.75810   0.49158   0.61814   0.00000  Uiso   1.00
C925   C     0.70954   0.42559   0.79417   0.00000  Uiso   1.00
C926   C     0.95713   0.57441   0.70583   0.00000  Uiso   1.00
C927   C     0.95773   0.42781   0.79738   0.00000  Uiso   1.00
C928   C     0.70894   0.57219   0.70262   0.00000  Uiso   1.00
C929   C     0.90763   0.50440   0.97715   0.00000  Uiso   1.00
C930   C     0.68811   0.46340   0.77142   0.00000  Uiso   1.00
C931   C     0.97855   0.53660   0.72858   0.00000  Uiso   1.00
C932   C     0.97881   0.46382   0.77209   0.00000  Uiso   1.00
C933   C     0.68786   0.53618   0.72791   0.00000  Uiso   1.00
C934   C     0.95722   0.50013   0.75033   0.00000  Uiso   1.00
Cu935  Cu    0.83333   0.54689   0.75000   0.00000  Uiso   1.00
Cu936  Cu    0.83333   0.45311   0.75000   0.00000  Uiso   1.00
H937   H     0.72983   0.49474   0.96042   0.00000  Uiso   1.00
H938   H     0.93683   0.50526   0.53958   0.00000  Uiso   1.00
H939   H     0.72974   0.49382   0.53941   0.00000  Uiso   1.00
H940   H     0.93693   0.50618   0.96059   0.00000  Uiso   1.00
H941   H     0.80296   0.37699   0.68806   0.00000  Uiso   1.00
H942   H     0.86371   0.62301   0.81194   0.00000  Uiso   1.00
H943   H     0.86287   0.37623   0.81234   0.00000  Uiso   1.00
H944   H     0.80380   0.62377   0.68766   0.00000  Uiso   1.00
N945   N     0.83333   0.61736   0.75000   0.00000  Uiso   1.00
N946   N     0.83333   0.38264   0.75000   0.00000  Uiso   1.00
N947   N     0.93877   0.51298   0.86242   0.00000  Uiso   1.00
N948   N     0.72790   0.48702   0.63758   0.00000  Uiso   1.00
N949   N     0.72647   0.39542   0.81224   0.00000  Uiso   1.00
N950   N     0.94020   0.60458   0.68776   0.00000  Uiso   1.00
N951   N     0.94137   0.39906   0.81777   0.00000  Uiso   1.00
N952   N     0.72530   0.60094   0.68223   0.00000  Uiso   1.00
O953   O     0.77321   0.53958   0.75000   0.00000  Uiso   1.00
O954   O     0.89345   0.46042   0.75001   0.00000  Uiso   1.00
O955   O     0.89345   0.53958   0.75001   0.00000  Uiso   1.00
O956   O     0.77321   0.46042   0.75000   0.00000  Uiso   1.00
O957   O     0.83332   0.53960   0.68513   0.00000  Uiso   1.00
O958   O     0.83334   0.46040   0.81487   0.00000  Uiso   1.00
O959   O     0.83334   0.53960   0.81487   0.00000  Uiso   1.00
O960   O     0.83332   0.46040   0.68513   0.00000  Uiso   1.00
Br961  Br    0.07896   0.83444   0.87319   0.00000  Uiso   1.00
Br962  Br    0.25438   0.83222   0.62681   0.00000  Uiso   1.00
C963   C     0.08746   0.83334   0.74976   0.00000  Uiso   1.00
C964   C     0.04278   0.83320   0.74967   0.00000  Uiso   1.00
C965   C     0.14992   0.69165   0.71560   0.00000  Uiso   1.00
C966   C     0.18341   0.97502   0.78440   0.00000  Uiso   1.00
C967   C     0.18321   0.69122   0.78450   0.00000  Uiso   1.00
C968   C     0.15012   0.97544   0.71550   0.00000  Uiso   1.00
C969   C     0.16669   0.83332   0.66456   0.00000  Uiso   1.00
C970   C     0.16665   0.83335   0.83544   0.00000  Uiso   1.00
C971   C     0.20407   0.83653   0.90653   0.00000  Uiso   1.00
C972   C     0.12927   0.83014   0.59347   0.00000  Uiso   1.00
C973   C     0.16678   0.83365   0.88365   0.00000  Uiso   1.00
C974   C     0.24588   0.83333   0.75024   0.00000  Uiso   1.00
C975   C     0.16656   0.83302   0.61635   0.00000  Uiso   1.00
C976   C     0.12943   0.83255   0.90649   0.00000  Uiso   1.00
C977   C     0.20390   0.83412   0.59351   0.00000  Uiso   1.00
C978   C     0.12924   0.83189   0.95309   0.00000  Uiso   1.00
C979   C     0.20409   0.83477   0.54691   0.00000  Uiso   1.00
C980   C     0.16670   0.83352   0.97653   0.00000  Uiso   1.00
C981   C     0.16664   0.83314   0.52347   0.00000  Uiso   1.00
C982   C     0.20420   0.83595   0.95320   0.00000  Uiso   1.00
C983   C     0.12914   0.83071   0.54680   0.00000  Uiso   1.00
C984   C     0.09244   0.82961   0.97687   0.00000  Uiso   1.00
C985   C     0.09237   0.82893   0.52285   0.00000  Uiso   1.00
C986   C     0.24089   0.83706   0.52313   0.00000  Uiso   1.00
C987   C     0.24190   0.84176   0.88186   0.00000  Uiso   1.00
C988   C     0.09144   0.82491   0.61814   0.00000  Uiso   1.00
C989   C     0.04287   0.75892   0.79417   0.00000  Uiso   1.00
C990   C     0.29046   0.90775   0.70583   0.00000  Uiso   1.00
C991   C     0.29106   0.76114   0.79738   0.00000  Uiso   1.00
C992   C     0.04227   0.90553   0.70262   0.00000  Uiso   1.00
C993   C     0.24096   0.83774   0.97715   0.00000  Uiso   1.00
C994   C     0.02145   0.79674   0.77142   0.00000  Uiso   1.00
C995   C     0.31189   0.86993   0.72858   0.00000  Uiso   1.00
C996   C     0.31214   0.79715   0.77209   0.00000  Uiso   1.00
C997   C     0.02119   0.86952   0.72791   0.00000  Uiso   1.00
C998   C     0.29055   0.83347   0.75033   0.00000  Uiso   1.00
Cu999  Cu    0.16667   0.88022   0.75000   0.00000  Uiso   1.00
Cu1000 Cu    0.16667   0.78645   0.75000   0.00000  Uiso   1.00
H1001  H     0.06317   0.82807   0.96042   0.00000  Uiso   1.00
H1002  H     0.27017   0.83860   0.53958   0.00000  Uiso   1.00
H1003  H     0.06307   0.82716   0.53941   0.00000  Uiso   1.00
H1004  H     0.27026   0.83951   0.96059   0.00000  Uiso   1.00
H1005  H     0.13629   0.71032   0.68806   0.00000  Uiso   1.00
H1006  H     0.19704   0.95634   0.81194   0.00000  Uiso   1.00
H1007  H     0.19620   0.70956   0.81234   0.00000  Uiso   1.00
H1008  H     0.13713   0.95710   0.68766   0.00000  Uiso   1.00
N1009  N     0.16667   0.95069   0.75000   0.00000  Uiso   1.00
N1010  N     0.16667   0.71598   0.75000   0.00000  Uiso   1.00
N1011  N     0.27210   0.84632   0.86242   0.00000  Uiso   1.00
N1012  N     0.06123   0.82035   0.63758   0.00000  Uiso   1.00
N1013  N     0.05980   0.72875   0.81224   0.00000  Uiso   1.00
N1014  N     0.27353   0.93791   0.68776   0.00000  Uiso   1.00
N1015  N     0.27470   0.73239   0.81777   0.00000  Uiso   1.00
N1016  N     0.05863   0.93427   0.68223   0.00000  Uiso   1.00
O1017  O     0.10655   0.87291   0.75000   0.00000  Uiso   1.00
O1018  O     0.22679   0.79375   0.75001   0.00000  Uiso   1.00
O1019  O     0.22679   0.87291   0.75001   0.00000  Uiso   1.00
O1020  O     0.10655   0.79375   0.75000   0.00000  Uiso   1.00
O1021  O     0.16666   0.87293   0.68513   0.00000  Uiso   1.00
O1022  O     0.16668   0.79373   0.81487   0.00000  Uiso   1.00
O1023  O     0.16668   0.87293   0.81487   0.00000  Uiso   1.00
O1024  O     0.16666   0.79373   0.68513   0.00000  Uiso   1.00
Br1025 Br    0.41229   0.83444   0.87319   0.00000  Uiso   1.00
Br1026 Br    0.58771   0.83222   0.62681   0.00000  Uiso   1.00
C1027  C     0.42079   0.83334   0.74976   0.00000  Uiso   1.00
C1028  C     0.37612   0.83320   0.74967   0.00000  Uiso   1.00
C1029  C     0.48326   0.69165   0.71560   0.00000  Uiso   1.00
C1030  C     0.51674   0.97502   0.78440   0.00000  Uiso   1.00
C1031  C     0.51654   0.69122   0.78450   0.00000  Uiso   1.00
C1032  C     0.48346   0.97544   0.71550   0.00000  Uiso   1.00
C1033  C     0.50002   0.83332   0.66456   0.00000  Uiso   1.00
C1034  C     0.49998   0.83335   0.83544   0.00000  Uiso   1.00
C1035  C     0.53740   0.83653   0.90653   0.00000  Uiso   1.00
C1036  C     0.46260   0.83014   0.59347   0.00000  Uiso   1.00
C1037  C     0.50011   0.83365   0.88365   0.00000  Uiso   1.00
C1038  C     0.57921   0.83333   0.75024   0.00000  Uiso   1.00
C1039  C     0.49989   0.83302   0.61635   0.00000  Uiso   1.00
C1040  C     0.46276   0.83255   0.90649   0.00000  Uiso   1.00
C1041  C     0.53724   0.83412   0.59351   0.00000  Uiso   1.00
C1042  C     0.46258   0.83189   0.95309   0.00000  Uiso   1.00
C1043  C     0.53742   0.83477   0.54691   0.00000  Uiso   1.00
C1044  C     0.50003   0.83352   0.97653   0.00000  Uiso   1.00
C1045  C     0.49997   0.83314   0.52347   0.00000  Uiso   1.00
C1046  C     0.53753   0.83595   0.95320   0.00000  Uiso   1.00
C1047  C     0.46247   0.83071   0.54680   0.00000  Uiso   1.00
C1048  C     0.42577   0.82961   0.97687   0.00000  Uiso   1.00
C1049  C     0.42570   0.82893   0.52285   0.00000  Uiso   1.00
C1050  C     0.57423   0.83706   0.52313   0.00000  Uiso   1.00
C1051  C     0.57523   0.84176   0.88186   0.00000  Uiso   1.00
C1052  C     0.42477   0.82491   0.61814   0.00000  Uiso   1.00
C1053  C     0.37621   0.75892   0.79417   0.00000  Uiso   1.00
C1054  C     0.62379   0.90775   0.70583   0.00000  Uiso   1.00
C1055  C     0.62439   0.76114   0.79738   0.00000  Uiso   1.00
C1056  C     0.37561   0.90553   0.70262   0.00000  Uiso   1.00
C1057  C     0.57430   0.83774   0.97715   0.00000  Uiso   1.00
C1058  C     0.35478   0.79674   0.77142   0.00000  Uiso   1.00
C1059  C     0.64522   0.86993   0.72858   0.00000  Uiso   1.00
C1060  C     0.64547   0.79715   0.77209   0.00000  Uiso   1.00
C1061  C     0.35453   0.86952   0.72791   0.00000  Uiso   1.00
C1062  C     0.62388   0.83347   0.75033   0.00000  Uiso   1.00
Cu1063 Cu    0.50000   0.88022   0.75000   0.00000  Uiso   1.00
Cu1064 Cu    0.50000   0.78645   0.75000   0.00000  Uiso   1.00
H1065  H     0.39650   0.82807   0.96042   0.00000  Uiso   1.00
H1066  H     0.60350   0.83860   0.53958   0.00000  Uiso   1.00
H1067  H     0.39640   0.82716   0.53941   0.00000  Uiso   1.00
H1068  H     0.60360   0.83951   0.96059   0.00000  Uiso   1.00
H1069  H     0.46962   0.71032   0.68806   0.00000  Uiso   1.00
H1070  H     0.53038   0.95634   0.81194   0.00000  Uiso   1.00
H1071  H     0.52954   0.70956   0.81234   0.00000  Uiso   1.00
H1072  H     0.47046   0.95710   0.68766   0.00000  Uiso   1.00
N1073  N     0.50000   0.95069   0.75000   0.00000  Uiso   1.00
N1074  N     0.50000   0.71598   0.75000   0.00000  Uiso   1.00
N1075  N     0.60544   0.84632   0.86242   0.00000  Uiso   1.00
N1076  N     0.39456   0.82035   0.63758   0.00000  Uiso   1.00
N1077  N     0.39313   0.72875   0.81224   0.00000  Uiso   1.00
N1078  N     0.60687   0.93791   0.68776   0.00000  Uiso   1.00
N1079  N     0.60803   0.73239   0.81777   0.00000  Uiso   1.00
N1080  N     0.39197   0.93427   0.68223   0.00000  Uiso   1.00
O1081  O     0.43988   0.87291   0.75000   0.00000  Uiso   1.00
O1082  O     0.56012   0.79375   0.75001   0.00000  Uiso   1.00
O1083  O     0.56012   0.87291   0.75001   0.00000  Uiso   1.00
O1084  O     0.43988   0.79375   0.75000   0.00000  Uiso   1.00
O1085  O     0.49999   0.87293   0.68513   0.00000  Uiso   1.00
O1086  O     0.50001   0.79373   0.81487   0.00000  Uiso   1.00
O1087  O     0.50001   0.87293   0.81487   0.00000  Uiso   1.00
O1088  O     0.49999   0.79373   0.68513   0.00000  Uiso   1.00
Br1089 Br    0.74562   0.83444   0.87319   0.00000  Uiso   1.00
Br1090 Br    0.92104   0.83222   0.62681   0.00000  Uiso   1.00
C1091  C     0.75412   0.83334   0.74976   0.00000  Uiso   1.00
C1092  C     0.70945   0.83320   0.74967   0.00000  Uiso   1.00
C1093  C     0.81659   0.69165   0.71560   0.00000  Uiso   1.00
C1094  C     0.85008   0.97502   0.78440   0.00000  Uiso   1.00
C1095  C     0.84988   0.69122   0.78450   0.00000  Uiso   1.00
C1096  C     0.81679   0.97544   0.71550   0.00000  Uiso   1.00
C1097  C     0.83335   0.83332   0.66456   0.00000  Uiso   1.00
C1098  C     0.83332   0.83335   0.83544   0.00000  Uiso   1.00
C1099  C     0.87074   0.83653   0.90653   0.00000  Uiso   1.00
C1100  C     0.79593   0.83014   0.59347   0.00000  Uiso   1.00
C1101  C     0.83344   0.83365   0.88365   0.00000  Uiso   1.00
C1102  C     0.91255   0.83333   0.75024   0.00000  Uiso   1.00
C1103  C     0.83322   0.83302   0.61635   0.00000  Uiso   1.00
C1104  C     0.79610   0.83255   0.90649   0.00000  Uiso   1.00
C1105  C     0.87057   0.83412   0.59351   0.00000  Uiso   1.00
C1106  C     0.79591   0.83189   0.95309   0.00000  Uiso   1.00
C1107  C     0.87076   0.83477   0.54691   0.00000  Uiso   1.00
C1108  C     0.83336   0.83352   0.97653   0.00000  Uiso   1.00
C1109  C     0.83330   0.83314   0.52347   0.00000  Uiso   1.00
C1110  C     0.87086   0.83595   0.95320   0.00000  Uiso   1.00
C1111  C     0.79580   0.83071   0.54680   0.00000  Uiso   1.00
C1112  C     0.75911   0.82961   0.97687   0.00000  Uiso   1.00
C1113  C     0.75904   0.82893   0.52285   0.00000  Uiso   1.00
C1114  C     0.90756   0.83706   0.52313   0.00000  Uiso   1.00
C1115  C     0.90856   0.84176   0.88186   0.00000  Uiso   1.00
C1116  C     0.75810   0.82491   0.61814   0.00000  Uiso   1.00
C1117  C     0.70954   0.75892   0.79417   0.00000  Uiso   1.00
C1118  C     0.95713   0.90775   0.70583   0.00000  Uiso   1.00
C1119  C     0.95773   0.76114   0.79738   0.00000  Uiso   1.00
C1120  C     0.70894   0.90553   0.70262   0.00000  Uiso   1.00
C1121  C     0.90763   0.83774   0.97715   0.00000  Uiso   1.00
C1122  C     0.68811   0.79674   0.77142   0.00000  Uiso   1.00
C1123  C     0.97855   0.86993   0.72858   0.00000  Uiso   1.00
C1124  C     0.97881   0.79715   0.77209   0.00000  Uiso   1.00
C1125  C     0.68786   0.86952   0.72791   0.00000  Uiso   1.00
C1126  C     0.95722   0.83347   0.75033   0.00000  Uiso   1.00
Cu1127 Cu    0.83333   0.88022   0.75000   0.00000  Uiso   1.00
Cu1128 Cu    0.83333   0.78645   0.75000   0.00000  Uiso   1.00
H1129  H     0.72983   0.82807   0.96042   0.00000  Uiso   1.00
H1130  H     0.93683   0.83860   0.53958   0.00000  Uiso   1.00
H1131  H     0.72974   0.82716   0.53941   0.00000  Uiso   1.00
H1132  H     0.93693   0.83951   0.96059   0.00000  Uiso   1.00
H1133  H     0.80296   0.71032   0.68806   0.00000  Uiso   1.00
H1134  H     0.86371   0.95634   0.81194   0.00000  Uiso   1.00
H1135  H     0.86287   0.70956   0.81234   0.00000  Uiso   1.00
H1136  H     0.80380   0.95710   0.68766   0.00000  Uiso   1.00
N1137  N     0.83333   0.95069   0.75000   0.00000  Uiso   1.00
N1138  N     0.83333   0.71598   0.75000   0.00000  Uiso   1.00
N1139  N     0.93877   0.84632   0.86242   0.00000  Uiso   1.00
N1140  N     0.72790   0.82035   0.63758   0.00000  Uiso   1.00
N1141  N     0.72647   0.72875   0.81224   0.00000  Uiso   1.00
N1142  N     0.94020   0.93791   0.68776   0.00000  Uiso   1.00
N1143  N     0.94137   0.73239   0.81777   0.00000  Uiso   1.00
N1144  N     0.72530   0.93427   0.68223   0.00000  Uiso   1.00
O1145  O     0.77321   0.87291   0.75000   0.00000  Uiso   1.00
O1146  O     0.89345   0.79375   0.75001   0.00000  Uiso   1.00
O1147  O     0.89345   0.87291   0.75001   0.00000  Uiso   1.00
O1148  O     0.77321   0.79375   0.75000   0.00000  Uiso   1.00
O1149  O     0.83332   0.87293   0.68513   0.00000  Uiso   1.00
O1150  O     0.83334   0.79373   0.81487   0.00000  Uiso   1.00
O1151  O     0.83334   0.87293   0.81487   0.00000  Uiso   1.00
O1152  O     0.83332   0.79373   0.68513   0.00000  Uiso   1.00
loop_
_geom_bond_atom_site_label_1
_geom_bond_atom_site_label_2
_geom_bond_distance
_geom_bond_site_symmetry_2
_ccdc_geom_bond_type
Br1    C16     1.935   .     S
Br2    C17     1.935   .     S
C3     O60     1.290   .     A
C3     C4      1.463   .     S
C3     O57     1.294   .     A
C4     C34     1.415   .     A
C4     C37     1.413   .     A
C5     N50     1.367   .     A
C5     H45     1.081   .     S
C5     C392    1.415   1_545 S
C6     N49     1.367   .     A
C6     H46     1.081   .     S
C6     C199    1.415   .     S
C7     N50     1.367   .     A
C7     H47     1.080   .     S
C7     C390    1.415   1_545 S
C8     H48     1.080   .     S
C8     N49     1.367   .     A
C8     C197    1.415   .     S
C9     O64     1.288   .     A
C9     C15     1.454   .     S
C9     O61     1.293   .     A
C10    O63     1.288   .     A
C10    O62     1.293   .     A
C10    C13     1.454   .     S
C11    C27     1.452   .     S
C11    C13     1.406   .     A
C11    C22     1.407   .     A
C12    C15     1.406   .     A
C12    C23     1.407   .     A
C12    C28     1.452   .     S
C13    C16     1.404   .     A
C14    C38     1.463   .     S
C14    O59     1.290   .     A
C14    O58     1.294   .     A
C15    C17     1.404   .     A
C16    C18     1.405   .     A
C17    C19     1.405   .     A
C18    C24     1.403   .     A
C18    C20     1.417   .     A
C19    C26     1.403   .     A
C19    C21     1.417   .     A
C20    C22     1.416   .     A
C20    C597    1.415   .     S
C21    C23     1.416   .     A
C21    C596    1.415   1_554 S
C22    C33     1.405   .     A
C23    C25     1.405   .     A
C24    H41     1.081   .     S
C24    C601    1.387   .     S
C25    H43     1.083   .     S
C25    C600    1.387   1_554 S
C26    H42     1.081   .     S
C26    C609    1.387   1_554 S
C27    N51     1.157   .     T
C28    N52     1.157   .     T
C29    N53     1.158   .     T
C29    C34     1.456   .     S
C30    N54     1.158   .     T
C30    C35     1.456   .     S
C31    C36     1.454   .     S
C31    N55     1.157   .     T
C32    C37     1.454   .     S
C32    N56     1.157   .     T
C33    H44     1.083   .     S
C33    C602    1.387   .     S
C34    C164    1.396   1_455 S
C35    C38     1.415   .     A
C35    C101    1.396   .     S
C36    C38     1.413   .     A
C36    C98     1.396   .     S
C37    C163    1.396   1_455 S
Cu39   O59     1.979   .     S
Cu39   N49     2.014   .     S
Cu39   O61     1.968   .     S
Cu39   Cu40    2.679   .     S
Cu39   O57     1.980   .     S
Cu39   O63     1.966   .     S
Cu40   O64     1.966   .     S
Cu40   O62     1.968   .     S
Cu40   N50     2.014   .     S
Cu40   O58     1.980   .     S
Cu40   O60     1.979   .     S
Br65   C80     1.935   .     S
Br66   C81     1.935   .     S
C67    O124    1.290   .     A
C67    C68     1.463   .     S
C67    O121    1.294   .     A
C68    C98     1.415   .     A
C68    C101    1.413   .     A
C69    N114    1.367   .     A
C69    H109    1.081   .     S
C69    C456    1.415   1_545 S
C70    N113    1.367   .     A
C70    H110    1.081   .     S
C70    C263    1.415   .     S
C71    N114    1.367   .     A
C71    H111    1.080   .     S
C71    C454    1.415   1_545 S
C72    H112    1.080   .     S
C72    N113    1.367   .     A
C72    C261    1.415   .     S
C73    O128    1.288   .     A
C73    C79     1.454   .     S
C73    O125    1.293   .     A
C74    O127    1.288   .     A
C74    O126    1.293   .     A
C74    C77     1.454   .     S
C75    C91     1.452   .     S
C75    C77     1.406   .     A
C75    C86     1.407   .     A
C76    C79     1.406   .     A
C76    C87     1.407   .     A
C76    C92     1.452   .     S
C77    C80     1.404   .     A
C78    C102    1.463   .     S
C78    O123    1.290   .     A
C78    O122    1.294   .     A
C79    C81     1.404   .     A
C80    C82     1.405   .     A
C81    C83     1.405   .     A
C82    C88     1.403   .     A
C82    C84     1.417   .     A
C83    C90     1.403   .     A
C83    C85     1.417   .     A
C84    C86     1.416   .     A
C84    C661    1.415   .     S
C85    C87     1.416   .     A
C85    C660    1.415   1_554 S
C86    C97     1.405   .     A
C87    C89     1.405   .     A
C88    H105    1.081   .     S
C88    C665    1.387   .     S
C89    H107    1.083   .     S
C89    C664    1.387   1_554 S
C90    H106    1.081   .     S
C90    C673    1.387   1_554 S
C91    N115    1.157   .     T
C92    N116    1.157   .     T
C93    N117    1.158   .     T
C93    C98     1.456   .     S
C94    N118    1.158   .     T
C94    C99     1.456   .     S
C95    C100    1.454   .     S
C95    N119    1.157   .     T
C96    C101    1.454   .     S
C96    N120    1.157   .     T
C97    H108    1.083   .     S
C97    C666    1.387   .     S
C99    C102    1.415   .     A
C99    C165    1.396   .     S
C100   C102    1.413   .     A
C100   C162    1.396   .     S
Cu103  O123    1.979   .     S
Cu103  N113    2.014   .     S
Cu103  O125    1.968   .     S
Cu103  Cu104   2.679   .     S
Cu103  O121    1.980   .     S
Cu103  O127    1.966   .     S
Cu104  O128    1.966   .     S
Cu104  O126    1.968   .     S
Cu104  N114    2.014   .     S
Cu104  O122    1.980   .     S
Cu104  O124    1.979   .     S
Br129  C144    1.935   .     S
Br130  C145    1.935   .     S
C131   O188    1.290   .     A
C131   C132    1.463   .     S
C131   O185    1.294   .     A
C132   C162    1.415   .     A
C132   C165    1.413   .     A
C133   N178    1.367   .     A
C133   H173    1.081   .     S
C133   C520    1.415   1_545 S
C134   N177    1.367   .     A
C134   H174    1.081   .     S
C134   C327    1.415   .     S
C135   N178    1.367   .     A
C135   H175    1.080   .     S
C135   C518    1.415   1_545 S
C136   H176    1.080   .     S
C136   N177    1.367   .     A
C136   C325    1.415   .     S
C137   O192    1.288   .     A
C137   C143    1.454   .     S
C137   O189    1.293   .     A
C138   O191    1.288   .     A
C138   O190    1.293   .     A
C138   C141    1.454   .     S
C139   C155    1.452   .     S
C139   C141    1.406   .     A
C139   C150    1.407   .     A
C140   C143    1.406   .     A
C140   C151    1.407   .     A
C140   C156    1.452   .     S
C141   C144    1.404   .     A
C142   C166    1.463   .     S
C142   O187    1.290   .     A
C142   O186    1.294   .     A
C143   C145    1.404   .     A
C144   C146    1.405   .     A
C145   C147    1.405   .     A
C146   C152    1.403   .     A
C146   C148    1.417   .     A
C147   C154    1.403   .     A
C147   C149    1.417   .     A
C148   C150    1.416   .     A
C148   C725    1.415   .     S
C149   C151    1.416   .     A
C149   C724    1.415   1_554 S
C150   C161    1.405   .     A
C151   C153    1.405   .     A
C152   H169    1.081   .     S
C152   C729    1.387   .     S
C153   H171    1.083   .     S
C153   C728    1.387   1_554 S
C154   H170    1.081   .     S
C154   C737    1.387   1_554 S
C155   N179    1.157   .     T
C156   N180    1.157   .     T
C157   N181    1.158   .     T
C157   C162    1.456   .     S
C158   N182    1.158   .     T
C158   C163    1.456   .     S
C159   C164    1.454   .     S
C159   N183    1.157   .     T
C160   C165    1.454   .     S
C160   N184    1.157   .     T
C161   H172    1.083   .     S
C161   C730    1.387   .     S
C163   C166    1.415   .     A
C163   C37     1.396   1_655 S
C164   C166    1.413   .     A
C164   C34     1.396   1_655 S
Cu167  O187    1.979   .     S
Cu167  N177    2.014   .     S
Cu167  O189    1.968   .     S
Cu167  Cu168   2.679   .     S
Cu167  O185    1.980   .     S
Cu167  O191    1.966   .     S
Cu168  O192    1.966   .     S
Cu168  O190    1.968   .     S
Cu168  N178    2.014   .     S
Cu168  O186    1.980   .     S
Cu168  O188    1.979   .     S
Br193  C208    1.935   .     S
Br194  C209    1.935   .     S
C195   O252    1.290   .     A
C195   C196    1.463   .     S
C195   O249    1.294   .     A
C196   C226    1.415   .     A
C196   C229    1.413   .     A
C197   N242    1.367   .     A
C197   H237    1.081   .     S
C198   N241    1.367   .     A
C198   H238    1.081   .     S
C198   C391    1.415   .     S
C199   N242    1.367   .     A
C199   H239    1.080   .     S
C200   H240    1.080   .     S
C200   N241    1.367   .     A
C200   C389    1.415   .     S
C201   O256    1.288   .     A
C201   C207    1.454   .     S
C201   O253    1.293   .     A
C202   O255    1.288   .     A
C202   O254    1.293   .     A
C202   C205    1.454   .     S
C203   C219    1.452   .     S
C203   C205    1.406   .     A
C203   C214    1.407   .     A
C204   C207    1.406   .     A
C204   C215    1.407   .     A
C204   C220    1.452   .     S
C205   C208    1.404   .     A
C206   C230    1.463   .     S
C206   O251    1.290   .     A
C206   O250    1.294   .     A
C207   C209    1.404   .     A
C208   C210    1.405   .     A
C209   C211    1.405   .     A
C210   C216    1.403   .     A
C210   C212    1.417   .     A
C211   C218    1.403   .     A
C211   C213    1.417   .     A
C212   C214    1.416   .     A
C212   C789    1.415   .     S
C213   C215    1.416   .     A
C213   C788    1.415   1_554 S
C214   C225    1.405   .     A
C215   C217    1.405   .     A
C216   H233    1.081   .     S
C216   C793    1.387   .     S
C217   H235    1.083   .     S
C217   C792    1.387   1_554 S
C218   H234    1.081   .     S
C218   C801    1.387   1_554 S
C219   N243    1.157   .     T
C220   N244    1.157   .     T
C221   N245    1.158   .     T
C221   C226    1.456   .     S
C222   N246    1.158   .     T
C222   C227    1.456   .     S
C223   C228    1.454   .     S
C223   N247    1.157   .     T
C224   C229    1.454   .     S
C224   N248    1.157   .     T
C225   H236    1.083   .     S
C225   C794    1.387   .     S
C226   C356    1.396   1_455 S
C227   C230    1.415   .     A
C227   C293    1.396   .     S
C228   C230    1.413   .     A
C228   C290    1.396   .     S
C229   C355    1.396   1_455 S
Cu231  O251    1.979   .     S
Cu231  N241    2.014   .     S
Cu231  O253    1.968   .     S
Cu231  Cu232   2.679   .     S
Cu231  O249    1.980   .     S
Cu231  O255    1.966   .     S
Cu232  O256    1.966   .     S
Cu232  O254    1.968   .     S
Cu232  N242    2.014   .     S
Cu232  O250    1.980   .     S
Cu232  O252    1.979   .     S
Br257  C272    1.935   .     S
Br258  C273    1.935   .     S
C259   O316    1.290   .     A
C259   C260    1.463   .     S
C259   O313    1.294   .     A
C260   C290    1.415   .     A
C260   C293    1.413   .     A
C261   N306    1.367   .     A
C261   H301    1.081   .     S
C262   N305    1.367   .     A
C262   H302    1.081   .     S
C262   C455    1.415   .     S
C263   N306    1.367   .     A
C263   H303    1.080   .     S
C264   H304    1.080   .     S
C264   N305    1.367   .     A
C264   C453    1.415   .     S
C265   O320    1.288   .     A
C265   C271    1.454   .     S
C265   O317    1.293   .     A
C266   O319    1.288   .     A
C266   O318    1.293   .     A
C266   C269    1.454   .     S
C267   C283    1.452   .     S
C267   C269    1.406   .     A
C267   C278    1.407   .     A
C268   C271    1.406   .     A
C268   C279    1.407   .     A
C268   C284    1.452   .     S
C269   C272    1.404   .     A
C270   C294    1.463   .     S
C270   O315    1.290   .     A
C270   O314    1.294   .     A
C271   C273    1.404   .     A
C272   C274    1.405   .     A
C273   C275    1.405   .     A
C274   C280    1.403   .     A
C274   C276    1.417   .     A
C275   C282    1.403   .     A
C275   C277    1.417   .     A
C276   C278    1.416   .     A
C276   C853    1.415   .     S
C277   C279    1.416   .     A
C277   C852    1.415   1_554 S
C278   C289    1.405   .     A
C279   C281    1.405   .     A
C280   H297    1.081   .     S
C280   C857    1.387   .     S
C281   H299    1.083   .     S
C281   C856    1.387   1_554 S
C282   H298    1.081   .     S
C282   C865    1.387   1_554 S
C283   N307    1.157   .     T
C284   N308    1.157   .     T
C285   N309    1.158   .     T
C285   C290    1.456   .     S
C286   N310    1.158   .     T
C286   C291    1.456   .     S
C287   C292    1.454   .     S
C287   N311    1.157   .     T
C288   C293    1.454   .     S
C288   N312    1.157   .     T
C289   H300    1.083   .     S
C289   C858    1.387   .     S
C291   C294    1.415   .     A
C291   C357    1.396   .     S
C292   C294    1.413   .     A
C292   C354    1.396   .     S
Cu295  O315    1.979   .     S
Cu295  N305    2.014   .     S
Cu295  O317    1.968   .     S
Cu295  Cu296   2.679   .     S
Cu295  O313    1.980   .     S
Cu295  O319    1.966   .     S
Cu296  O320    1.966   .     S
Cu296  O318    1.968   .     S
Cu296  N306    2.014   .     S
Cu296  O314    1.980   .     S
Cu296  O316    1.979   .     S
Br321  C336    1.935   .     S
Br322  C337    1.935   .     S
C323   O380    1.290   .     A
C323   C324    1.463   .     S
C323   O377    1.294   .     A
C324   C354    1.415   .     A
C324   C357    1.413   .     A
C325   N370    1.367   .     A
C325   H365    1.081   .     S
C326   N369    1.367   .     A
C326   H366    1.081   .     S
C326   C519    1.415   .     S
C327   N370    1.367   .     A
C327   H367    1.080   .     S
C328   H368    1.080   .     S
C328   N369    1.367   .     A
C328   C517    1.415   .     S
C329   O384    1.288   .     A
C329   C335    1.454   .     S
C329   O381    1.293   .     A
C330   O383    1.288   .     A
C330   O382    1.293   .     A
C330   C333    1.454   .     S
C331   C347    1.452   .     S
C331   C333    1.406   .     A
C331   C342    1.407   .     A
C332   C335    1.406   .     A
C332   C343    1.407   .     A
C332   C348    1.452   .     S
C333   C336    1.404   .     A
C334   C358    1.463   .     S
C334   O379    1.290   .     A
C334   O378    1.294   .     A
C335   C337    1.404   .     A
C336   C338    1.405   .     A
C337   C339    1.405   .     A
C338   C344    1.403   .     A
C338   C340    1.417   .     A
C339   C346    1.403   .     A
C339   C341    1.417   .     A
C340   C342    1.416   .     A
C340   C917    1.415   .     S
C341   C343    1.416   .     A
C341   C916    1.415   1_554 S
C342   C353    1.405   .     A
C343   C345    1.405   .     A
C344   H361    1.081   .     S
C344   C921    1.387   .     S
C345   H363    1.083   .     S
C345   C920    1.387   1_554 S
C346   H362    1.081   .     S
C346   C929    1.387   1_554 S
C347   N371    1.157   .     T
C348   N372    1.157   .     T
C349   N373    1.158   .     T
C349   C354    1.456   .     S
C350   N374    1.158   .     T
C350   C355    1.456   .     S
C351   C356    1.454   .     S
C351   N375    1.157   .     T
C352   C357    1.454   .     S
C352   N376    1.157   .     T
C353   H364    1.083   .     S
C353   C922    1.387   .     S
C355   C358    1.415   .     A
C355   C229    1.396   1_655 S
C356   C358    1.413   .     A
C356   C226    1.396   1_655 S
Cu359  O379    1.979   .     S
Cu359  N369    2.014   .     S
Cu359  O381    1.968   .     S
Cu359  Cu360   2.679   .     S
Cu359  O377    1.980   .     S
Cu359  O383    1.966   .     S
Cu360  O384    1.966   .     S
Cu360  O382    1.968   .     S
Cu360  N370    2.014   .     S
Cu360  O378    1.980   .     S
Cu360  O380    1.979   .     S
Br385  C400    1.935   .     S
Br386  C401    1.935   .     S
C387   O444    1.290   .     A
C387   C388    1.463   .     S
C387   O441    1.294   .     A
C388   C418    1.415   .     A
C388   C421    1.413   .     A
C389   N434    1.367   .     A
C389   H429    1.081   .     S
C390   N433    1.367   .     A
C390   H430    1.081   .     S
C390   C7      1.415   1_565 S
C391   N434    1.367   .     A
C391   H431    1.080   .     S
C392   H432    1.080   .     S
C392   N433    1.367   .     A
C392   C5      1.415   1_565 S
C393   O448    1.288   .     A
C393   C399    1.454   .     S
C393   O445    1.293   .     A
C394   O447    1.288   .     A
C394   O446    1.293   .     A
C394   C397    1.454   .     S
C395   C411    1.452   .     S
C395   C397    1.406   .     A
C395   C406    1.407   .     A
C396   C399    1.406   .     A
C396   C407    1.407   .     A
C396   C412    1.452   .     S
C397   C400    1.404   .     A
C398   C422    1.463   .     S
C398   O443    1.290   .     A
C398   O442    1.294   .     A
C399   C401    1.404   .     A
C400   C402    1.405   .     A
C401   C403    1.405   .     A
C402   C408    1.403   .     A
C402   C404    1.417   .     A
C403   C410    1.403   .     A
C403   C405    1.417   .     A
C404   C406    1.416   .     A
C404   C981    1.415   .     S
C405   C407    1.416   .     A
C405   C980    1.415   1_554 S
C406   C417    1.405   .     A
C407   C409    1.405   .     A
C408   H425    1.081   .     S
C408   C985    1.387   .     S
C409   H427    1.083   .     S
C409   C984    1.387   1_554 S
C410   H426    1.081   .     S
C410   C993    1.387   1_554 S
C411   N435    1.157   .     T
C412   N436    1.157   .     T
C413   N437    1.158   .     T
C413   C418    1.456   .     S
C414   N438    1.158   .     T
C414   C419    1.456   .     S
C415   C420    1.454   .     S
C415   N439    1.157   .     T
C416   C421    1.454   .     S
C416   N440    1.157   .     T
C417   H428    1.083   .     S
C417   C986    1.387   .     S
C418   C548    1.396   1_455 S
C419   C422    1.415   .     A
C419   C485    1.396   .     S
C420   C422    1.413   .     A
C420   C482    1.396   .     S
C421   C547    1.396   1_455 S
Cu423  O443    1.979   .     S
Cu423  N433    2.014   .     S
Cu423  O445    1.968   .     S
Cu423  Cu424   2.679   .     S
Cu423  O441    1.980   .     S
Cu423  O447    1.966   .     S
Cu424  O448    1.966   .     S
Cu424  O446    1.968   .     S
Cu424  N434    2.014   .     S
Cu424  O442    1.980   .     S
Cu424  O444    1.979   .     S
Br449  C464    1.935   .     S
Br450  C465    1.935   .     S
C451   O508    1.290   .     A
C451   C452    1.463   .     S
C451   O505    1.294   .     A
C452   C482    1.415   .     A
C452   C485    1.413   .     A
C453   N498    1.367   .     A
C453   H493    1.081   .     S
C454   N497    1.367   .     A
C454   H494    1.081   .     S
C454   C71     1.415   1_565 S
C455   N498    1.367   .     A
C455   H495    1.080   .     S
C456   H496    1.080   .     S
C456   N497    1.367   .     A
C456   C69     1.415   1_565 S
C457   O512    1.288   .     A
C457   C463    1.454   .     S
C457   O509    1.293   .     A
C458   O511    1.288   .     A
C458   O510    1.293   .     A
C458   C461    1.454   .     S
C459   C475    1.452   .     S
C459   C461    1.406   .     A
C459   C470    1.407   .     A
C460   C463    1.406   .     A
C460   C471    1.407   .     A
C460   C476    1.452   .     S
C461   C464    1.404   .     A
C462   C486    1.463   .     S
C462   O507    1.290   .     A
C462   O506    1.294   .     A
C463   C465    1.404   .     A
C464   C466    1.405   .     A
C465   C467    1.405   .     A
C466   C472    1.403   .     A
C466   C468    1.417   .     A
C467   C474    1.403   .     A
C467   C469    1.417   .     A
C468   C470    1.416   .     A
C468   C1045   1.415   .     S
C469   C471    1.416   .     A
C469   C1044   1.415   1_554 S
C470   C481    1.405   .     A
C471   C473    1.405   .     A
C472   H489    1.081   .     S
C472   C1049   1.387   .     S
C473   H491    1.083   .     S
C473   C1048   1.387   1_554 S
C474   H490    1.081   .     S
C474   C1057   1.387   1_554 S
C475   N499    1.157   .     T
C476   N500    1.157   .     T
C477   N501    1.158   .     T
C477   C482    1.456   .     S
C478   N502    1.158   .     T
C478   C483    1.456   .     S
C479   C484    1.454   .     S
C479   N503    1.157   .     T
C480   C485    1.454   .     S
C480   N504    1.157   .     T
C481   H492    1.083   .     S
C481   C1050   1.387   .     S
C483   C486    1.415   .     A
C483   C549    1.396   .     S
C484   C486    1.413   .     A
C484   C546    1.396   .     S
Cu487  O507    1.979   .     S
Cu487  N497    2.014   .     S
Cu487  O509    1.968   .     S
Cu487  Cu488   2.679   .     S
Cu487  O505    1.980   .     S
Cu487  O511    1.966   .     S
Cu488  O512    1.966   .     S
Cu488  O510    1.968   .     S
Cu488  N498    2.014   .     S
Cu488  O506    1.980   .     S
Cu488  O508    1.979   .     S
Br513  C528    1.935   .     S
Br514  C529    1.935   .     S
C515   O572    1.290   .     A
C515   C516    1.463   .     S
C515   O569    1.294   .     A
C516   C546    1.415   .     A
C516   C549    1.413   .     A
C517   N562    1.367   .     A
C517   H557    1.081   .     S
C518   N561    1.367   .     A
C518   H558    1.081   .     S
C518   C135    1.415   1_565 S
C519   N562    1.367   .     A
C519   H559    1.080   .     S
C520   H560    1.080   .     S
C520   N561    1.367   .     A
C520   C133    1.415   1_565 S
C521   O576    1.288   .     A
C521   C527    1.454   .     S
C521   O573    1.293   .     A
C522   O575    1.288   .     A
C522   O574    1.293   .     A
C522   C525    1.454   .     S
C523   C539    1.452   .     S
C523   C525    1.406   .     A
C523   C534    1.407   .     A
C524   C527    1.406   .     A
C524   C535    1.407   .     A
C524   C540    1.452   .     S
C525   C528    1.404   .     A
C526   C550    1.463   .     S
C526   O571    1.290   .     A
C526   O570    1.294   .     A
C527   C529    1.404   .     A
C528   C530    1.405   .     A
C529   C531    1.405   .     A
C530   C536    1.403   .     A
C530   C532    1.417   .     A
C531   C538    1.403   .     A
C531   C533    1.417   .     A
C532   C534    1.416   .     A
C532   C1109   1.415   .     S
C533   C535    1.416   .     A
C533   C1108   1.415   1_554 S
C534   C545    1.405   .     A
C535   C537    1.405   .     A
C536   H553    1.081   .     S
C536   C1113   1.387   .     S
C537   H555    1.083   .     S
C537   C1112   1.387   1_554 S
C538   H554    1.081   .     S
C538   C1121   1.387   1_554 S
C539   N563    1.157   .     T
C540   N564    1.157   .     T
C541   N565    1.158   .     T
C541   C546    1.456   .     S
C542   N566    1.158   .     T
C542   C547    1.456   .     S
C543   C548    1.454   .     S
C543   N567    1.157   .     T
C544   C549    1.454   .     S
C544   N568    1.157   .     T
C545   H556    1.083   .     S
C545   C1114   1.387   .     S
C547   C550    1.415   .     A
C547   C421    1.396   1_655 S
C548   C550    1.413   .     A
C548   C418    1.396   1_655 S
Cu551  O571    1.979   .     S
Cu551  N561    2.014   .     S
Cu551  O573    1.968   .     S
Cu551  Cu552   2.679   .     S
Cu551  O569    1.980   .     S
Cu551  O575    1.966   .     S
Cu552  O576    1.966   .     S
Cu552  O574    1.968   .     S
Cu552  N562    2.014   .     S
Cu552  O570    1.980   .     S
Cu552  O572    1.979   .     S
Br577  C592    1.935   .     S
Br578  C593    1.935   .     S
C579   O636    1.290   .     A
C579   C580    1.463   .     S
C579   O633    1.294   .     A
C580   C610    1.415   .     A
C580   C613    1.413   .     A
C581   N626    1.367   .     A
C581   H621    1.081   .     S
C581   C968    1.415   1_545 S
C582   N625    1.367   .     A
C582   H622    1.081   .     S
C582   C775    1.415   .     S
C583   N626    1.367   .     A
C583   H623    1.080   .     S
C583   C966    1.415   1_545 S
C584   H624    1.080   .     S
C584   N625    1.367   .     A
C584   C773    1.415   .     S
C585   O640    1.288   .     A
C585   C591    1.454   .     S
C585   O637    1.293   .     A
C586   O639    1.288   .     A
C586   O638    1.293   .     A
C586   C589    1.454   .     S
C587   C603    1.452   .     S
C587   C589    1.406   .     A
C587   C598    1.407   .     A
C588   C591    1.406   .     A
C588   C599    1.407   .     A
C588   C604    1.452   .     S
C589   C592    1.404   .     A
C590   C614    1.463   .     S
C590   O635    1.290   .     A
C590   O634    1.294   .     A
C591   C593    1.404   .     A
C592   C594    1.405   .     A
C593   C595    1.405   .     A
C594   C600    1.403   .     A
C594   C596    1.417   .     A
C595   C602    1.403   .     A
C595   C597    1.417   .     A
C596   C598    1.416   .     A
C596   C21     1.415   1_556 S
C597   C599    1.416   .     A
C598   C609    1.405   .     A
C599   C601    1.405   .     A
C600   H617    1.081   .     S
C600   C25     1.387   1_556 S
C601   H619    1.083   .     S
C602   H618    1.081   .     S
C603   N627    1.157   .     T
C604   N628    1.157   .     T
C605   N629    1.158   .     T
C605   C610    1.456   .     S
C606   N630    1.158   .     T
C606   C611    1.456   .     S
C607   C612    1.454   .     S
C607   N631    1.157   .     T
C608   C613    1.454   .     S
C608   N632    1.157   .     T
C609   H620    1.083   .     S
C609   C26     1.387   1_556 S
C610   C740    1.396   1_455 S
C611   C614    1.415   .     A
C611   C677    1.396   .     S
C612   C614    1.413   .     A
C612   C674    1.396   .     S
C613   C739    1.396   1_455 S
Cu615  O635    1.979   .     S
Cu615  N625    2.014   .     S
Cu615  O637    1.968   .     S
Cu615  Cu616   2.679   .     S
Cu615  O633    1.980   .     S
Cu615  O639    1.966   .     S
Cu616  O640    1.966   .     S
Cu616  O638    1.968   .     S
Cu616  N626    2.014   .     S
Cu616  O634    1.980   .     S
Cu616  O636    1.979   .     S
Br641  C656    1.935   .     S
Br642  C657    1.935   .     S
C643   O700    1.290   .     A
C643   C644    1.463   .     S
C643   O697    1.294   .     A
C644   C674    1.415   .     A
C644   C677    1.413   .     A
C645   N690    1.367   .     A
C645   H685    1.081   .     S
C645   C1032   1.415   1_545 S
C646   N689    1.367   .     A
C646   H686    1.081   .     S
C646   C839    1.415   .     S
C647   N690    1.367   .     A
C647   H687    1.080   .     S
C647   C1030   1.415   1_545 S
C648   H688    1.080   .     S
C648   N689    1.367   .     A
C648   C837    1.415   .     S
C649   O704    1.288   .     A
C649   C655    1.454   .     S
C649   O701    1.293   .     A
C650   O703    1.288   .     A
C650   O702    1.293   .     A
C650   C653    1.454   .     S
C651   C667    1.452   .     S
C651   C653    1.406   .     A
C651   C662    1.407   .     A
C652   C655    1.406   .     A
C652   C663    1.407   .     A
C652   C668    1.452   .     S
C653   C656    1.404   .     A
C654   C678    1.463   .     S
C654   O699    1.290   .     A
C654   O698    1.294   .     A
C655   C657    1.404   .     A
C656   C658    1.405   .     A
C657   C659    1.405   .     A
C658   C664    1.403   .     A
C658   C660    1.417   .     A
C659   C666    1.403   .     A
C659   C661    1.417   .     A
C660   C662    1.416   .     A
C660   C85     1.415   1_556 S
C661   C663    1.416   .     A
C662   C673    1.405   .     A
C663   C665    1.405   .     A
C664   H681    1.081   .     S
C664   C89     1.387   1_556 S
C665   H683    1.083   .     S
C666   H682    1.081   .     S
C667   N691    1.157   .     T
C668   N692    1.157   .     T
C669   N693    1.158   .     T
C669   C674    1.456   .     S
C670   N694    1.158   .     T
C670   C675    1.456   .     S
C671   C676    1.454   .     S
C671   N695    1.157   .     T
C672   C677    1.454   .     S
C672   N696    1.157   .     T
C673   H684    1.083   .     S
C673   C90     1.387   1_556 S
C675   C678    1.415   .     A
C675   C741    1.396   .     S
C676   C678    1.413   .     A
C676   C738    1.396   .     S
Cu679  O699    1.979   .     S
Cu679  N689    2.014   .     S
Cu679  O701    1.968   .     S
Cu679  Cu680   2.679   .     S
Cu679  O697    1.980   .     S
Cu679  O703    1.966   .     S
Cu680  O704    1.966   .     S
Cu680  O702    1.968   .     S
Cu680  N690    2.014   .     S
Cu680  O698    1.980   .     S
Cu680  O700    1.979   .     S
Br705  C720    1.935   .     S
Br706  C721    1.935   .     S
C707   O764    1.290   .     A
C707   C708    1.463   .     S
C707   O761    1.294   .     A
C708   C738    1.415   .     A
C708   C741    1.413   .     A
C709   N754    1.367   .     A
C709   H749    1.081   .     S
C709   C1096   1.415   1_545 S
C710   N753    1.367   .     A
C710   H750    1.081   .     S
C710   C903    1.415   .     S
C711   N754    1.367   .     A
C711   H751    1.080   .     S
C711   C1094   1.415   1_545 S
C712   H752    1.080   .     S
C712   N753    1.367   .     A
C712   C901    1.415   .     S
C713   O768    1.288   .     A
C713   C719    1.454   .     S
C713   O765    1.293   .     A
C714   O767    1.288   .     A
C714   O766    1.293   .     A
C714   C717    1.454   .     S
C715   C731    1.452   .     S
C715   C717    1.406   .     A
C715   C726    1.407   .     A
C716   C719    1.406   .     A
C716   C727    1.407   .     A
C716   C732    1.452   .     S
C717   C720    1.404   .     A
C718   C742    1.463   .     S
C718   O763    1.290   .     A
C718   O762    1.294   .     A
C719   C721    1.404   .     A
C720   C722    1.405   .     A
C721   C723    1.405   .     A
C722   C728    1.403   .     A
C722   C724    1.417   .     A
C723   C730    1.403   .     A
C723   C725    1.417   .     A
C724   C726    1.416   .     A
C724   C149    1.415   1_556 S
C725   C727    1.416   .     A
C726   C737    1.405   .     A
C727   C729    1.405   .     A
C728   H745    1.081   .     S
C728   C153    1.387   1_556 S
C729   H747    1.083   .     S
C730   H746    1.081   .     S
C731   N755    1.157   .     T
C732   N756    1.157   .     T
C733   N757    1.158   .     T
C733   C738    1.456   .     S
C734   N758    1.158   .     T
C734   C739    1.456   .     S
C735   C740    1.454   .     S
C735   N759    1.157   .     T
C736   C741    1.454   .     S
C736   N760    1.157   .     T
C737   H748    1.083   .     S
C737   C154    1.387   1_556 S
C739   C742    1.415   .     A
C739   C613    1.396   1_655 S
C740   C742    1.413   .     A
C740   C610    1.396   1_655 S
Cu743  O763    1.979   .     S
Cu743  N753    2.014   .     S
Cu743  O765    1.968   .     S
Cu743  Cu744   2.679   .     S
Cu743  O761    1.980   .     S
Cu743  O767    1.966   .     S
Cu744  O768    1.966   .     S
Cu744  O766    1.968   .     S
Cu744  N754    2.014   .     S
Cu744  O762    1.980   .     S
Cu744  O764    1.979   .     S
Br769  C784    1.935   .     S
Br770  C785    1.935   .     S
C771   O828    1.290   .     A
C771   C772    1.463   .     S
C771   O825    1.294   .     A
C772   C802    1.415   .     A
C772   C805    1.413   .     A
C773   N818    1.367   .     A
C773   H813    1.081   .     S
C774   N817    1.367   .     A
C774   H814    1.081   .     S
C774   C967    1.415   .     S
C775   N818    1.367   .     A
C775   H815    1.080   .     S
C776   H816    1.080   .     S
C776   N817    1.367   .     A
C776   C965    1.415   .     S
C777   O832    1.288   .     A
C777   C783    1.454   .     S
C777   O829    1.293   .     A
C778   O831    1.288   .     A
C778   O830    1.293   .     A
C778   C781    1.454   .     S
C779   C795    1.452   .     S
C779   C781    1.406   .     A
C779   C790    1.407   .     A
C780   C783    1.406   .     A
C780   C791    1.407   .     A
C780   C796    1.452   .     S
C781   C784    1.404   .     A
C782   C806    1.463   .     S
C782   O827    1.290   .     A
C782   O826    1.294   .     A
C783   C785    1.404   .     A
C784   C786    1.405   .     A
C785   C787    1.405   .     A
C786   C792    1.403   .     A
C786   C788    1.417   .     A
C787   C794    1.403   .     A
C787   C789    1.417   .     A
C788   C790    1.416   .     A
C788   C213    1.415   1_556 S
C789   C791    1.416   .     A
C790   C801    1.405   .     A
C791   C793    1.405   .     A
C792   H809    1.081   .     S
C792   C217    1.387   1_556 S
C793   H811    1.083   .     S
C794   H810    1.081   .     S
C795   N819    1.157   .     T
C796   N820    1.157   .     T
C797   N821    1.158   .     T
C797   C802    1.456   .     S
C798   N822    1.158   .     T
C798   C803    1.456   .     S
C799   C804    1.454   .     S
C799   N823    1.157   .     T
C800   C805    1.454   .     S
C800   N824    1.157   .     T
C801   H812    1.083   .     S
C801   C218    1.387   1_556 S
C802   C932    1.396   1_455 S
C803   C806    1.415   .     A
C803   C869    1.396   .     S
C804   C806    1.413   .     A
C804   C866    1.396   .     S
C805   C931    1.396   1_455 S
Cu807  O827    1.979   .     S
Cu807  N817    2.014   .     S
Cu807  O829    1.968   .     S
Cu807  Cu808   2.679   .     S
Cu807  O825    1.980   .     S
Cu807  O831    1.966   .     S
Cu808  O832    1.966   .     S
Cu808  O830    1.968   .     S
Cu808  N818    2.014   .     S
Cu808  O826    1.980   .     S
Cu808  O828    1.979   .     S
Br833  C848    1.935   .     S
Br834  C849    1.935   .     S
C835   O892    1.290   .     A
C835   C836    1.463   .     S
C835   O889    1.294   .     A
C836   C866    1.415   .     A
C836   C869    1.413   .     A
C837   N882    1.367   .     A
C837   H877    1.081   .     S
C838   N881    1.367   .     A
C838   H878    1.081   .     S
C838   C1031   1.415   .     S
C839   N882    1.367   .     A
C839   H879    1.080   .     S
C840   H880    1.080   .     S
C840   N881    1.367   .     A
C840   C1029   1.415   .     S
C841   O896    1.288   .     A
C841   C847    1.454   .     S
C841   O893    1.293   .     A
C842   O895    1.288   .     A
C842   O894    1.293   .     A
C842   C845    1.454   .     S
C843   C859    1.452   .     S
C843   C845    1.406   .     A
C843   C854    1.407   .     A
C844   C847    1.406   .     A
C844   C855    1.407   .     A
C844   C860    1.452   .     S
C845   C848    1.404   .     A
C846   C870    1.463   .     S
C846   O891    1.290   .     A
C846   O890    1.294   .     A
C847   C849    1.404   .     A
C848   C850    1.405   .     A
C849   C851    1.405   .     A
C850   C856    1.403   .     A
C850   C852    1.417   .     A
C851   C858    1.403   .     A
C851   C853    1.417   .     A
C852   C854    1.416   .     A
C852   C277    1.415   1_556 S
C853   C855    1.416   .     A
C854   C865    1.405   .     A
C855   C857    1.405   .     A
C856   H873    1.081   .     S
C856   C281    1.387   1_556 S
C857   H875    1.083   .     S
C858   H874    1.081   .     S
C859   N883    1.157   .     T
C860   N884    1.157   .     T
C861   N885    1.158   .     T
C861   C866    1.456   .     S
C862   N886    1.158   .     T
C862   C867    1.456   .     S
C863   C868    1.454   .     S
C863   N887    1.157   .     T
C864   C869    1.454   .     S
C864   N888    1.157   .     T
C865   H876    1.083   .     S
C865   C282    1.387   1_556 S
C867   C870    1.415   .     A
C867   C933    1.396   .     S
C868   C870    1.413   .     A
C868   C930    1.396   .     S
Cu871  O891    1.979   .     S
Cu871  N881    2.014   .     S
Cu871  O893    1.968   .     S
Cu871  Cu872   2.679   .     S
Cu871  O889    1.980   .     S
Cu871  O895    1.966   .     S
Cu872  O896    1.966   .     S
Cu872  O894    1.968   .     S
Cu872  N882    2.014   .     S
Cu872  O890    1.980   .     S
Cu872  O892    1.979   .     S
Br897  C912    1.935   .     S
Br898  C913    1.935   .     S
C899   O956    1.290   .     A
C899   C900    1.463   .     S
C899   O953    1.294   .     A
C900   C930    1.415   .     A
C900   C933    1.413   .     A
C901   N946    1.367   .     A
C901   H941    1.081   .     S
C902   N945    1.367   .     A
C902   H942    1.081   .     S
C902   C1095   1.415   .     S
C903   N946    1.367   .     A
C903   H943    1.080   .     S
C904   H944    1.080   .     S
C904   N945    1.367   .     A
C904   C1093   1.415   .     S
C905   O960    1.288   .     A
C905   C911    1.454   .     S
C905   O957    1.293   .     A
C906   O959    1.288   .     A
C906   O958    1.293   .     A
C906   C909    1.454   .     S
C907   C923    1.452   .     S
C907   C909    1.406   .     A
C907   C918    1.407   .     A
C908   C911    1.406   .     A
C908   C919    1.407   .     A
C908   C924    1.452   .     S
C909   C912    1.404   .     A
C910   C934    1.463   .     S
C910   O955    1.290   .     A
C910   O954    1.294   .     A
C911   C913    1.404   .     A
C912   C914    1.405   .     A
C913   C915    1.405   .     A
C914   C920    1.403   .     A
C914   C916    1.417   .     A
C915   C922    1.403   .     A
C915   C917    1.417   .     A
C916   C918    1.416   .     A
C916   C341    1.415   1_556 S
C917   C919    1.416   .     A
C918   C929    1.405   .     A
C919   C921    1.405   .     A
C920   H937    1.081   .     S
C920   C345    1.387   1_556 S
C921   H939    1.083   .     S
C922   H938    1.081   .     S
C923   N947    1.157   .     T
C924   N948    1.157   .     T
C925   N949    1.158   .     T
C925   C930    1.456   .     S
C926   N950    1.158   .     T
C926   C931    1.456   .     S
C927   C932    1.454   .     S
C927   N951    1.157   .     T
C928   C933    1.454   .     S
C928   N952    1.157   .     T
C929   H940    1.083   .     S
C929   C346    1.387   1_556 S
C931   C934    1.415   .     A
C931   C805    1.396   1_655 S
C932   C934    1.413   .     A
C932   C802    1.396   1_655 S
Cu935  O955    1.979   .     S
Cu935  N945    2.014   .     S
Cu935  O957    1.968   .     S
Cu935  Cu936   2.679   .     S
Cu935  O953    1.980   .     S
Cu935  O959    1.966   .     S
Cu936  O960    1.966   .     S
Cu936  O958    1.968   .     S
Cu936  N946    2.014   .     S
Cu936  O954    1.980   .     S
Cu936  O956    1.979   .     S
Br961  C976    1.935   .     S
Br962  C977    1.935   .     S
C963   O1020   1.290   .     A
C963   C964    1.463   .     S
C963   O1017   1.294   .     A
C964   C994    1.415   .     A
C964   C997    1.413   .     A
C965   N1010   1.367   .     A
C965   H1005   1.081   .     S
C966   N1009   1.367   .     A
C966   H1006   1.081   .     S
C966   C583    1.415   1_565 S
C967   N1010   1.367   .     A
C967   H1007   1.080   .     S
C968   H1008   1.080   .     S
C968   N1009   1.367   .     A
C968   C581    1.415   1_565 S
C969   O1024   1.288   .     A
C969   C975    1.454   .     S
C969   O1021   1.293   .     A
C970   O1023   1.288   .     A
C970   O1022   1.293   .     A
C970   C973    1.454   .     S
C971   C987    1.452   .     S
C971   C973    1.406   .     A
C971   C982    1.407   .     A
C972   C975    1.406   .     A
C972   C983    1.407   .     A
C972   C988    1.452   .     S
C973   C976    1.404   .     A
C974   C998    1.463   .     S
C974   O1019   1.290   .     A
C974   O1018   1.294   .     A
C975   C977    1.404   .     A
C976   C978    1.405   .     A
C977   C979    1.405   .     A
C978   C984    1.403   .     A
C978   C980    1.417   .     A
C979   C986    1.403   .     A
C979   C981    1.417   .     A
C980   C982    1.416   .     A
C980   C405    1.415   1_556 S
C981   C983    1.416   .     A
C982   C993    1.405   .     A
C983   C985    1.405   .     A
C984   H1001   1.081   .     S
C984   C409    1.387   1_556 S
C985   H1003   1.083   .     S
C986   H1002   1.081   .     S
C987   N1011   1.157   .     T
C988   N1012   1.157   .     T
C989   N1013   1.158   .     T
C989   C994    1.456   .     S
C990   N1014   1.158   .     T
C990   C995    1.456   .     S
C991   C996    1.454   .     S
C991   N1015   1.157   .     T
C992   C997    1.454   .     S
C992   N1016   1.157   .     T
C993   H1004   1.083   .     S
C993   C410    1.387   1_556 S
C994   C1124   1.396   1_455 S
C995   C998    1.415   .     A
C995   C1061   1.396   .     S
C996   C998    1.413   .     A
C996   C1058   1.396   .     S
C997   C1123   1.396   1_455 S
Cu999  O1019   1.979   .     S
Cu999  N1009   2.014   .     S
Cu999  O1021   1.968   .     S
Cu999  Cu1000  2.679   .     S
Cu999  O1017   1.980   .     S
Cu999  O1023   1.966   .     S
Cu1000 O1024   1.966   .     S
Cu1000 O1022   1.968   .     S
Cu1000 N1010   2.014   .     S
Cu1000 O1018   1.980   .     S
Cu1000 O1020   1.979   .     S
Br1025 C1040   1.935   .     S
Br1026 C1041   1.935   .     S
C1027  O1084   1.290   .     A
C1027  C1028   1.463   .     S
C1027  O1081   1.294   .     A
C1028  C1058   1.415   .     A
C1028  C1061   1.413   .     A
C1029  N1074   1.367   .     A
C1029  H1069   1.081   .     S
C1030  N1073   1.367   .     A
C1030  H1070   1.081   .     S
C1030  C647    1.415   1_565 S
C1031  N1074   1.367   .     A
C1031  H1071   1.080   .     S
C1032  H1072   1.080   .     S
C1032  N1073   1.367   .     A
C1032  C645    1.415   1_565 S
C1033  O1088   1.288   .     A
C1033  C1039   1.454   .     S
C1033  O1085   1.293   .     A
C1034  O1087   1.288   .     A
C1034  O1086   1.293   .     A
C1034  C1037   1.454   .     S
C1035  C1051   1.452   .     S
C1035  C1037   1.406   .     A
C1035  C1046   1.407   .     A
C1036  C1039   1.406   .     A
C1036  C1047   1.407   .     A
C1036  C1052   1.452   .     S
C1037  C1040   1.404   .     A
C1038  C1062   1.463   .     S
C1038  O1083   1.290   .     A
C1038  O1082   1.294   .     A
C1039  C1041   1.404   .     A
C1040  C1042   1.405   .     A
C1041  C1043   1.405   .     A
C1042  C1048   1.403   .     A
C1042  C1044   1.417   .     A
C1043  C1050   1.403   .     A
C1043  C1045   1.417   .     A
C1044  C1046   1.416   .     A
C1044  C469    1.415   1_556 S
C1045  C1047   1.416   .     A
C1046  C1057   1.405   .     A
C1047  C1049   1.405   .     A
C1048  H1065   1.081   .     S
C1048  C473    1.387   1_556 S
C1049  H1067   1.083   .     S
C1050  H1066   1.081   .     S
C1051  N1075   1.157   .     T
C1052  N1076   1.157   .     T
C1053  N1077   1.158   .     T
C1053  C1058   1.456   .     S
C1054  N1078   1.158   .     T
C1054  C1059   1.456   .     S
C1055  C1060   1.454   .     S
C1055  N1079   1.157   .     T
C1056  C1061   1.454   .     S
C1056  N1080   1.157   .     T
C1057  H1068   1.083   .     S
C1057  C474    1.387   1_556 S
C1059  C1062   1.415   .     A
C1059  C1125   1.396   .     S
C1060  C1062   1.413   .     A
C1060  C1122   1.396   .     S
Cu1063 O1083   1.979   .     S
Cu1063 N1073   2.014   .     S
Cu1063 O1085   1.968   .     S
Cu1063 Cu1064  2.679   .     S
Cu1063 O1081   1.980   .     S
Cu1063 O1087   1.966   .     S
Cu1064 O1088   1.966   .     S
Cu1064 O1086   1.968   .     S
Cu1064 N1074   2.014   .     S
Cu1064 O1082   1.980   .     S
Cu1064 O1084   1.979   .     S
Br1089 C1104   1.935   .     S
Br1090 C1105   1.935   .     S
C1091  O1148   1.290   .     A
C1091  C1092   1.463   .     S
C1091  O1145   1.294   .     A
C1092  C1122   1.415   .     A
C1092  C1125   1.413   .     A
C1093  N1138   1.367   .     A
C1093  H1133   1.081   .     S
C1094  N1137   1.367   .     A
C1094  H1134   1.081   .     S
C1094  C711    1.415   1_565 S
C1095  N1138   1.367   .     A
C1095  H1135   1.080   .     S
C1096  H1136   1.080   .     S
C1096  N1137   1.367   .     A
C1096  C709    1.415   1_565 S
C1097  O1152   1.288   .     A
C1097  C1103   1.454   .     S
C1097  O1149   1.293   .     A
C1098  O1151   1.288   .     A
C1098  O1150   1.293   .     A
C1098  C1101   1.454   .     S
C1099  C1115   1.452   .     S
C1099  C1101   1.406   .     A
C1099  C1110   1.407   .     A
C1100  C1103   1.406   .     A
C1100  C1111   1.407   .     A
C1100  C1116   1.452   .     S
C1101  C1104   1.404   .     A
C1102  C1126   1.463   .     S
C1102  O1147   1.290   .     A
C1102  O1146   1.294   .     A
C1103  C1105   1.404   .     A
C1104  C1106   1.405   .     A
C1105  C1107   1.405   .     A
C1106  C1112   1.403   .     A
C1106  C1108   1.417   .     A
C1107  C1114   1.403   .     A
C1107  C1109   1.417   .     A
C1108  C1110   1.416   .     A
C1108  C533    1.415   1_556 S
C1109  C1111   1.416   .     A
C1110  C1121   1.405   .     A
C1111  C1113   1.405   .     A
C1112  H1129   1.081   .     S
C1112  C537    1.387   1_556 S
C1113  H1131   1.083   .     S
C1114  H1130   1.081   .     S
C1115  N1139   1.157   .     T
C1116  N1140   1.157   .     T
C1117  N1141   1.158   .     T
C1117  C1122   1.456   .     S
C1118  N1142   1.158   .     T
C1118  C1123   1.456   .     S
C1119  C1124   1.454   .     S
C1119  N1143   1.157   .     T
C1120  C1125   1.454   .     S
C1120  N1144   1.157   .     T
C1121  H1132   1.083   .     S
C1121  C538    1.387   1_556 S
C1123  C1126   1.415   .     A
C1123  C997    1.396   1_655 S
C1124  C1126   1.413   .     A
C1124  C994    1.396   1_655 S
Cu1127 O1147   1.979   .     S
Cu1127 N1137   2.014   .     S
Cu1127 O1149   1.968   .     S
Cu1127 Cu1128  2.679   .     S
Cu1127 O1145   1.980   .     S
Cu1127 O1151   1.966   .     S
Cu1128 O1152   1.966   .     S
Cu1128 O1150   1.968   .     S
Cu1128 N1138   2.014   .     S
Cu1128 O1146   1.980   .     S
Cu1128 O1148   1.979   .     S
