data_str_m2_o1_o16_pcu_sym.121
_audit_creation_date              2020-01-03
_audit_creation_method            'Materials Studio'
_symmetry_space_group_name_H-M    'P1'
_symmetry_Int_Tables_number       1
_symmetry_cell_setting            triclinic
loop_
_symmetry_equiv_pos_as_xyz
  x,y,z
_cell_length_a                    28.5570
_cell_length_b                    32.3882
_cell_length_c                    26.8882
_cell_angle_alpha                 90.1050
_cell_angle_beta                  72.4724
_cell_angle_gamma                 90.1683
loop_
_atom_site_label
_atom_site_type_symbol
_atom_site_fract_x
_atom_site_fract_y
_atom_site_fract_z
_atom_site_U_iso_or_equiv
_atom_site_adp_type
_atom_site_occupancy
C1     C     0.16630   0.24589   0.25159   0.00000  Uiso   1.00
C2     C     0.14525   0.16299   0.48953   0.00000  Uiso   1.00
C3     C     0.15653   0.15224   0.43612   0.00000  Uiso   1.00
C4     C     0.18159   0.15683   0.01534   0.00000  Uiso   1.00
C5     C     0.22703   0.13743   0.48872   0.00000  Uiso   1.00
C6     C     0.23360   0.12166   0.43859   0.00000  Uiso   1.00
C7     C     0.19890   0.12866   0.41301   0.00000  Uiso   1.00
C8     C     0.17395   0.16941   0.06706   0.00000  Uiso   1.00
C9     C     0.25305   0.14300   0.06670   0.00000  Uiso   1.00
C10    C     0.12448   0.16459   0.40752   0.00000  Uiso   1.00
C11    C     0.20750   0.31105   0.22086   0.00000  Uiso   1.00
C12    C     0.14041   0.16496   0.35010   0.00000  Uiso   1.00
C13    C     0.20815   0.02037   0.21681   0.00000  Uiso   1.00
C14    C     0.16708   0.04282   0.24721   0.00000  Uiso   1.00
C15    C     0.12583   0.02230   0.27924   0.00000  Uiso   1.00
C16    C     0.12517   0.31297   0.28328   0.00000  Uiso   1.00
C17    C     0.16624   0.29052   0.25287   0.00000  Uiso   1.00
C18    C     0.29888   0.19063   0.28441   0.00000  Uiso   1.00
C19    C     0.01515   0.19058   0.28445   0.00000  Uiso   1.00
C20    C     0.03444   0.14268   0.21560   0.00000  Uiso   1.00
C21    C     0.31816   0.14270   0.21560   0.00000  Uiso   1.00
C22    C     0.16702   0.08744   0.24846   0.00000  Uiso   1.00
C23    C     0.19292   0.16600   0.14998   0.00000  Uiso   1.00
C24    C     0.26371   0.13242   0.01419   0.00000  Uiso   1.00
C25    C     0.20793   0.16066   0.09336   0.00000  Uiso   1.00
C26    C     0.07828   0.18096   0.43397   0.00000  Uiso   1.00
C27    C     0.06474   0.18711   0.48744   0.00000  Uiso   1.00
C28    C     0.09787   0.17910   0.01496   0.00000  Uiso   1.00
Cu29   Cu    0.11978   0.16666   0.25000   0.00000  Uiso   1.00
Cu30   Cu    0.21355   0.16667   0.25000   0.00000  Uiso   1.00
H31    H     0.27992   0.13671   0.08684   0.00000  Uiso   1.00
H32    H     0.09464   0.03964   0.30303   0.00000  Uiso   1.00
H33    H     0.27249   0.20988   0.31195   0.00000  Uiso   1.00
H34    H     0.02611   0.20975   0.31202   0.00000  Uiso   1.00
H35    H     0.06082   0.12341   0.18808   0.00000  Uiso   1.00
H36    H     0.30718   0.12349   0.18808   0.00000  Uiso   1.00
H37    H     0.26513   0.10312   0.41870   0.00000  Uiso   1.00
H38    H     0.14121   0.18553   0.08857   0.00000  Uiso   1.00
H39    H     0.05288   0.18999   0.41309   0.00000  Uiso   1.00
H40    H     0.08466   0.18515   0.05620   0.00000  Uiso   1.00
H41    H     0.02877   0.19940   0.00755   0.00000  Uiso   1.00
H42    H     0.20529   0.11425   0.37528   0.00000  Uiso   1.00
H43    H     0.23870   0.29371   0.19708   0.00000  Uiso   1.00
N44    N     0.04931   0.16666   0.24999   0.00000  Uiso   1.00
N45    N     0.28402   0.16669   0.25000   0.00000  Uiso   1.00
O46    O     0.12708   0.22678   0.25001   0.00000  Uiso   1.00
O47    O     0.20627   0.22679   0.25001   0.00000  Uiso   1.00
O48    O     0.10775   0.16665   0.32549   0.00000  Uiso   1.00
O49    O     0.18694   0.16666   0.32549   0.00000  Uiso   1.00
O50    O     0.12706   0.10654   0.25000   0.00000  Uiso   1.00
O51    O     0.20625   0.10655   0.25000   0.00000  Uiso   1.00
O52    O     0.14640   0.16667   0.17451   0.00000  Uiso   1.00
O53    O     0.22559   0.16668   0.17451   0.00000  Uiso   1.00
O54    O     0.24866   0.03844   0.18185   0.00000  Uiso   1.00
H55    H     0.23925   0.06562   0.17112   0.00000  Uiso   1.00
O56    O     0.08464   0.29491   0.31820   0.00000  Uiso   1.00
H57    H     0.09401   0.26769   0.32887   0.00000  Uiso   1.00
O58    O     0.30964   0.11634   0.49000   0.00000  Uiso   1.00
H59    H     0.31974   0.12464   0.45288   0.00000  Uiso   1.00
C60    C     0.49963   0.24589   0.25159   0.00000  Uiso   1.00
C61    C     0.47858   0.16299   0.48953   0.00000  Uiso   1.00
C62    C     0.48986   0.15224   0.43612   0.00000  Uiso   1.00
C63    C     0.51493   0.15683   0.01534   0.00000  Uiso   1.00
C64    C     0.56036   0.13743   0.48872   0.00000  Uiso   1.00
C65    C     0.56693   0.12166   0.43859   0.00000  Uiso   1.00
C66    C     0.53223   0.12866   0.41301   0.00000  Uiso   1.00
C67    C     0.50728   0.16941   0.06706   0.00000  Uiso   1.00
C68    C     0.58639   0.14300   0.06670   0.00000  Uiso   1.00
C69    C     0.45782   0.16459   0.40752   0.00000  Uiso   1.00
C70    C     0.54084   0.31105   0.22086   0.00000  Uiso   1.00
C71    C     0.47375   0.16496   0.35010   0.00000  Uiso   1.00
C72    C     0.54148   0.02037   0.21681   0.00000  Uiso   1.00
C73    C     0.50041   0.04282   0.24721   0.00000  Uiso   1.00
C74    C     0.45916   0.02230   0.27924   0.00000  Uiso   1.00
C75    C     0.45851   0.31297   0.28328   0.00000  Uiso   1.00
C76    C     0.49958   0.29052   0.25287   0.00000  Uiso   1.00
C77    C     0.63222   0.19063   0.28441   0.00000  Uiso   1.00
C78    C     0.34848   0.19058   0.28445   0.00000  Uiso   1.00
C79    C     0.36777   0.14268   0.21560   0.00000  Uiso   1.00
C80    C     0.65150   0.14270   0.21560   0.00000  Uiso   1.00
C81    C     0.50036   0.08744   0.24846   0.00000  Uiso   1.00
C82    C     0.52626   0.16600   0.14998   0.00000  Uiso   1.00
C83    C     0.59704   0.13242   0.01419   0.00000  Uiso   1.00
C84    C     0.54126   0.16066   0.09336   0.00000  Uiso   1.00
C85    C     0.41161   0.18096   0.43397   0.00000  Uiso   1.00
C86    C     0.39807   0.18711   0.48744   0.00000  Uiso   1.00
C87    C     0.43121   0.17910   0.01496   0.00000  Uiso   1.00
Cu88   Cu    0.45311   0.16666   0.25000   0.00000  Uiso   1.00
Cu89   Cu    0.54689   0.16667   0.25000   0.00000  Uiso   1.00
H90    H     0.61325   0.13671   0.08684   0.00000  Uiso   1.00
H91    H     0.42797   0.03964   0.30303   0.00000  Uiso   1.00
H92    H     0.60582   0.20988   0.31195   0.00000  Uiso   1.00
H93    H     0.35945   0.20975   0.31202   0.00000  Uiso   1.00
H94    H     0.39416   0.12341   0.18808   0.00000  Uiso   1.00
H95    H     0.64052   0.12349   0.18808   0.00000  Uiso   1.00
H96    H     0.59846   0.10312   0.41870   0.00000  Uiso   1.00
H97    H     0.47455   0.18553   0.08857   0.00000  Uiso   1.00
H98    H     0.38621   0.18999   0.41309   0.00000  Uiso   1.00
H99    H     0.41799   0.18515   0.05620   0.00000  Uiso   1.00
H100   H     0.36211   0.19940   0.00755   0.00000  Uiso   1.00
H101   H     0.53863   0.11425   0.37528   0.00000  Uiso   1.00
H102   H     0.57203   0.29371   0.19708   0.00000  Uiso   1.00
N103   N     0.38265   0.16666   0.24999   0.00000  Uiso   1.00
N104   N     0.61735   0.16669   0.25000   0.00000  Uiso   1.00
O105   O     0.46042   0.22678   0.25001   0.00000  Uiso   1.00
O106   O     0.53961   0.22679   0.25001   0.00000  Uiso   1.00
O107   O     0.44108   0.16665   0.32549   0.00000  Uiso   1.00
O108   O     0.52027   0.16666   0.32549   0.00000  Uiso   1.00
O109   O     0.46039   0.10654   0.25000   0.00000  Uiso   1.00
O110   O     0.53958   0.10655   0.25000   0.00000  Uiso   1.00
O111   O     0.47973   0.16667   0.17451   0.00000  Uiso   1.00
O112   O     0.55892   0.16668   0.17451   0.00000  Uiso   1.00
O113   O     0.58199   0.03844   0.18185   0.00000  Uiso   1.00
H114   H     0.57258   0.06562   0.17112   0.00000  Uiso   1.00
O115   O     0.41797   0.29491   0.31820   0.00000  Uiso   1.00
H116   H     0.42734   0.26769   0.32887   0.00000  Uiso   1.00
O117   O     0.64297   0.11634   0.49000   0.00000  Uiso   1.00
H118   H     0.65307   0.12464   0.45288   0.00000  Uiso   1.00
C119   C     0.83296   0.24589   0.25159   0.00000  Uiso   1.00
C120   C     0.81192   0.16299   0.48953   0.00000  Uiso   1.00
C121   C     0.82319   0.15224   0.43612   0.00000  Uiso   1.00
C122   C     0.84826   0.15683   0.01534   0.00000  Uiso   1.00
C123   C     0.89370   0.13743   0.48872   0.00000  Uiso   1.00
C124   C     0.90026   0.12166   0.43859   0.00000  Uiso   1.00
C125   C     0.86557   0.12866   0.41301   0.00000  Uiso   1.00
C126   C     0.84061   0.16941   0.06706   0.00000  Uiso   1.00
C127   C     0.91972   0.14300   0.06670   0.00000  Uiso   1.00
C128   C     0.79115   0.16459   0.40752   0.00000  Uiso   1.00
C129   C     0.87417   0.31105   0.22086   0.00000  Uiso   1.00
C130   C     0.80708   0.16496   0.35010   0.00000  Uiso   1.00
C131   C     0.87481   0.02037   0.21681   0.00000  Uiso   1.00
C132   C     0.83374   0.04282   0.24721   0.00000  Uiso   1.00
C133   C     0.79249   0.02230   0.27924   0.00000  Uiso   1.00
C134   C     0.79184   0.31297   0.28328   0.00000  Uiso   1.00
C135   C     0.83291   0.29052   0.25287   0.00000  Uiso   1.00
C136   C     0.96555   0.19063   0.28441   0.00000  Uiso   1.00
C137   C     0.68181   0.19058   0.28445   0.00000  Uiso   1.00
C138   C     0.70111   0.14268   0.21560   0.00000  Uiso   1.00
C139   C     0.98483   0.14270   0.21560   0.00000  Uiso   1.00
C140   C     0.83369   0.08744   0.24846   0.00000  Uiso   1.00
C141   C     0.85959   0.16600   0.14998   0.00000  Uiso   1.00
C142   C     0.93038   0.13242   0.01419   0.00000  Uiso   1.00
C143   C     0.87459   0.16066   0.09336   0.00000  Uiso   1.00
C144   C     0.74495   0.18096   0.43397   0.00000  Uiso   1.00
C145   C     0.73141   0.18711   0.48744   0.00000  Uiso   1.00
C146   C     0.76454   0.17910   0.01496   0.00000  Uiso   1.00
Cu147  Cu    0.78645   0.16666   0.25000   0.00000  Uiso   1.00
Cu148  Cu    0.88022   0.16667   0.25000   0.00000  Uiso   1.00
H149   H     0.94658   0.13671   0.08684   0.00000  Uiso   1.00
H150   H     0.76131   0.03964   0.30303   0.00000  Uiso   1.00
H151   H     0.93916   0.20988   0.31195   0.00000  Uiso   1.00
H152   H     0.69278   0.20975   0.31202   0.00000  Uiso   1.00
H153   H     0.72749   0.12341   0.18808   0.00000  Uiso   1.00
H154   H     0.97385   0.12349   0.18808   0.00000  Uiso   1.00
H155   H     0.93180   0.10312   0.41870   0.00000  Uiso   1.00
H156   H     0.80788   0.18553   0.08857   0.00000  Uiso   1.00
H157   H     0.71955   0.18999   0.41309   0.00000  Uiso   1.00
H158   H     0.75132   0.18515   0.05620   0.00000  Uiso   1.00
H159   H     0.69544   0.19940   0.00755   0.00000  Uiso   1.00
H160   H     0.87196   0.11425   0.37528   0.00000  Uiso   1.00
H161   H     0.90536   0.29371   0.19708   0.00000  Uiso   1.00
N162   N     0.71598   0.16666   0.24999   0.00000  Uiso   1.00
N163   N     0.95069   0.16669   0.25000   0.00000  Uiso   1.00
O164   O     0.79375   0.22678   0.25001   0.00000  Uiso   1.00
O165   O     0.87294   0.22679   0.25001   0.00000  Uiso   1.00
O166   O     0.77441   0.16665   0.32549   0.00000  Uiso   1.00
O167   O     0.85360   0.16666   0.32549   0.00000  Uiso   1.00
O168   O     0.79373   0.10654   0.25000   0.00000  Uiso   1.00
O169   O     0.87292   0.10655   0.25000   0.00000  Uiso   1.00
O170   O     0.81306   0.16667   0.17451   0.00000  Uiso   1.00
O171   O     0.89225   0.16668   0.17451   0.00000  Uiso   1.00
O172   O     0.91533   0.03844   0.18185   0.00000  Uiso   1.00
H173   H     0.90592   0.06562   0.17112   0.00000  Uiso   1.00
O174   O     0.75131   0.29491   0.31820   0.00000  Uiso   1.00
H175   H     0.76068   0.26769   0.32887   0.00000  Uiso   1.00
O176   O     0.97630   0.11634   0.49000   0.00000  Uiso   1.00
H177   H     0.98641   0.12464   0.45288   0.00000  Uiso   1.00
C178   C     0.16630   0.57922   0.25159   0.00000  Uiso   1.00
C179   C     0.14525   0.49632   0.48953   0.00000  Uiso   1.00
C180   C     0.15653   0.48558   0.43612   0.00000  Uiso   1.00
C181   C     0.18159   0.49017   0.01534   0.00000  Uiso   1.00
C182   C     0.22703   0.47077   0.48872   0.00000  Uiso   1.00
C183   C     0.23360   0.45499   0.43859   0.00000  Uiso   1.00
C184   C     0.19890   0.46199   0.41301   0.00000  Uiso   1.00
C185   C     0.17395   0.50274   0.06706   0.00000  Uiso   1.00
C186   C     0.25305   0.47633   0.06670   0.00000  Uiso   1.00
C187   C     0.12448   0.49792   0.40752   0.00000  Uiso   1.00
C188   C     0.20750   0.64438   0.22086   0.00000  Uiso   1.00
C189   C     0.14041   0.49829   0.35010   0.00000  Uiso   1.00
C190   C     0.20815   0.35371   0.21681   0.00000  Uiso   1.00
C191   C     0.16708   0.37615   0.24721   0.00000  Uiso   1.00
C192   C     0.12583   0.35563   0.27924   0.00000  Uiso   1.00
C193   C     0.12517   0.64631   0.28328   0.00000  Uiso   1.00
C194   C     0.16624   0.62385   0.25287   0.00000  Uiso   1.00
C195   C     0.29888   0.52396   0.28441   0.00000  Uiso   1.00
C196   C     0.01515   0.52391   0.28445   0.00000  Uiso   1.00
C197   C     0.03444   0.47602   0.21560   0.00000  Uiso   1.00
C198   C     0.31816   0.47604   0.21560   0.00000  Uiso   1.00
C199   C     0.16702   0.42078   0.24846   0.00000  Uiso   1.00
C200   C     0.19292   0.49934   0.14998   0.00000  Uiso   1.00
C201   C     0.26371   0.46575   0.01419   0.00000  Uiso   1.00
C202   C     0.20793   0.49400   0.09336   0.00000  Uiso   1.00
C203   C     0.07828   0.51430   0.43397   0.00000  Uiso   1.00
C204   C     0.06474   0.52044   0.48744   0.00000  Uiso   1.00
C205   C     0.09787   0.51243   0.01496   0.00000  Uiso   1.00
Cu206  Cu    0.11978   0.49999   0.25000   0.00000  Uiso   1.00
Cu207  Cu    0.21355   0.50001   0.25000   0.00000  Uiso   1.00
H208   H     0.27992   0.47005   0.08684   0.00000  Uiso   1.00
H209   H     0.09464   0.37297   0.30303   0.00000  Uiso   1.00
H210   H     0.27249   0.54321   0.31195   0.00000  Uiso   1.00
H211   H     0.02611   0.54308   0.31202   0.00000  Uiso   1.00
H212   H     0.06082   0.45674   0.18808   0.00000  Uiso   1.00
H213   H     0.30718   0.45682   0.18808   0.00000  Uiso   1.00
H214   H     0.26513   0.43645   0.41870   0.00000  Uiso   1.00
H215   H     0.14121   0.51886   0.08857   0.00000  Uiso   1.00
H216   H     0.05288   0.52333   0.41309   0.00000  Uiso   1.00
H217   H     0.08466   0.51849   0.05620   0.00000  Uiso   1.00
H218   H     0.02877   0.53274   0.00755   0.00000  Uiso   1.00
H219   H     0.20529   0.44758   0.37528   0.00000  Uiso   1.00
H220   H     0.23870   0.62705   0.19708   0.00000  Uiso   1.00
N221   N     0.04931   0.49999   0.24999   0.00000  Uiso   1.00
N222   N     0.28402   0.50002   0.25000   0.00000  Uiso   1.00
O223   O     0.12708   0.56011   0.25001   0.00000  Uiso   1.00
O224   O     0.20627   0.56012   0.25001   0.00000  Uiso   1.00
O225   O     0.10775   0.49998   0.32549   0.00000  Uiso   1.00
O226   O     0.18694   0.49999   0.32549   0.00000  Uiso   1.00
O227   O     0.12706   0.43988   0.25000   0.00000  Uiso   1.00
O228   O     0.20625   0.43989   0.25000   0.00000  Uiso   1.00
O229   O     0.14640   0.50001   0.17451   0.00000  Uiso   1.00
O230   O     0.22559   0.50002   0.17451   0.00000  Uiso   1.00
O231   O     0.24866   0.37178   0.18185   0.00000  Uiso   1.00
H232   H     0.23925   0.39895   0.17112   0.00000  Uiso   1.00
O233   O     0.08464   0.62824   0.31820   0.00000  Uiso   1.00
H234   H     0.09401   0.60103   0.32887   0.00000  Uiso   1.00
O235   O     0.30964   0.44967   0.49000   0.00000  Uiso   1.00
H236   H     0.31974   0.45797   0.45288   0.00000  Uiso   1.00
C237   C     0.49963   0.57922   0.25159   0.00000  Uiso   1.00
C238   C     0.47858   0.49632   0.48953   0.00000  Uiso   1.00
C239   C     0.48986   0.48558   0.43612   0.00000  Uiso   1.00
C240   C     0.51493   0.49017   0.01534   0.00000  Uiso   1.00
C241   C     0.56036   0.47077   0.48872   0.00000  Uiso   1.00
C242   C     0.56693   0.45499   0.43859   0.00000  Uiso   1.00
C243   C     0.53223   0.46199   0.41301   0.00000  Uiso   1.00
C244   C     0.50728   0.50274   0.06706   0.00000  Uiso   1.00
C245   C     0.58639   0.47633   0.06670   0.00000  Uiso   1.00
C246   C     0.45782   0.49792   0.40752   0.00000  Uiso   1.00
C247   C     0.54084   0.64438   0.22086   0.00000  Uiso   1.00
C248   C     0.47375   0.49829   0.35010   0.00000  Uiso   1.00
C249   C     0.54148   0.35371   0.21681   0.00000  Uiso   1.00
C250   C     0.50041   0.37615   0.24721   0.00000  Uiso   1.00
C251   C     0.45916   0.35563   0.27924   0.00000  Uiso   1.00
C252   C     0.45851   0.64631   0.28328   0.00000  Uiso   1.00
C253   C     0.49958   0.62385   0.25287   0.00000  Uiso   1.00
C254   C     0.63222   0.52396   0.28441   0.00000  Uiso   1.00
C255   C     0.34848   0.52391   0.28445   0.00000  Uiso   1.00
C256   C     0.36777   0.47602   0.21560   0.00000  Uiso   1.00
C257   C     0.65150   0.47604   0.21560   0.00000  Uiso   1.00
C258   C     0.50036   0.42078   0.24846   0.00000  Uiso   1.00
C259   C     0.52626   0.49934   0.14998   0.00000  Uiso   1.00
C260   C     0.59704   0.46575   0.01419   0.00000  Uiso   1.00
C261   C     0.54126   0.49400   0.09336   0.00000  Uiso   1.00
C262   C     0.41161   0.51430   0.43397   0.00000  Uiso   1.00
C263   C     0.39807   0.52044   0.48744   0.00000  Uiso   1.00
C264   C     0.43121   0.51243   0.01496   0.00000  Uiso   1.00
Cu265  Cu    0.45311   0.49999   0.25000   0.00000  Uiso   1.00
Cu266  Cu    0.54689   0.50001   0.25000   0.00000  Uiso   1.00
H267   H     0.61325   0.47005   0.08684   0.00000  Uiso   1.00
H268   H     0.42797   0.37297   0.30303   0.00000  Uiso   1.00
H269   H     0.60582   0.54321   0.31195   0.00000  Uiso   1.00
H270   H     0.35945   0.54308   0.31202   0.00000  Uiso   1.00
H271   H     0.39416   0.45674   0.18808   0.00000  Uiso   1.00
H272   H     0.64052   0.45682   0.18808   0.00000  Uiso   1.00
H273   H     0.59846   0.43645   0.41870   0.00000  Uiso   1.00
H274   H     0.47455   0.51886   0.08857   0.00000  Uiso   1.00
H275   H     0.38621   0.52333   0.41309   0.00000  Uiso   1.00
H276   H     0.41799   0.51849   0.05620   0.00000  Uiso   1.00
H277   H     0.36211   0.53274   0.00755   0.00000  Uiso   1.00
H278   H     0.53863   0.44758   0.37528   0.00000  Uiso   1.00
H279   H     0.57203   0.62705   0.19708   0.00000  Uiso   1.00
N280   N     0.38265   0.49999   0.24999   0.00000  Uiso   1.00
N281   N     0.61735   0.50002   0.25000   0.00000  Uiso   1.00
O282   O     0.46042   0.56011   0.25001   0.00000  Uiso   1.00
O283   O     0.53961   0.56012   0.25001   0.00000  Uiso   1.00
O284   O     0.44108   0.49998   0.32549   0.00000  Uiso   1.00
O285   O     0.52027   0.49999   0.32549   0.00000  Uiso   1.00
O286   O     0.46039   0.43988   0.25000   0.00000  Uiso   1.00
O287   O     0.53958   0.43989   0.25000   0.00000  Uiso   1.00
O288   O     0.47973   0.50001   0.17451   0.00000  Uiso   1.00
O289   O     0.55892   0.50002   0.17451   0.00000  Uiso   1.00
O290   O     0.58199   0.37178   0.18185   0.00000  Uiso   1.00
H291   H     0.57258   0.39895   0.17112   0.00000  Uiso   1.00
O292   O     0.41797   0.62824   0.31820   0.00000  Uiso   1.00
H293   H     0.42734   0.60103   0.32887   0.00000  Uiso   1.00
O294   O     0.64297   0.44967   0.49000   0.00000  Uiso   1.00
H295   H     0.65307   0.45797   0.45288   0.00000  Uiso   1.00
C296   C     0.83296   0.57922   0.25159   0.00000  Uiso   1.00
C297   C     0.81192   0.49632   0.48953   0.00000  Uiso   1.00
C298   C     0.82319   0.48558   0.43612   0.00000  Uiso   1.00
C299   C     0.84826   0.49017   0.01534   0.00000  Uiso   1.00
C300   C     0.89370   0.47077   0.48872   0.00000  Uiso   1.00
C301   C     0.90026   0.45499   0.43859   0.00000  Uiso   1.00
C302   C     0.86557   0.46199   0.41301   0.00000  Uiso   1.00
C303   C     0.84061   0.50274   0.06706   0.00000  Uiso   1.00
C304   C     0.91972   0.47633   0.06670   0.00000  Uiso   1.00
C305   C     0.79115   0.49792   0.40752   0.00000  Uiso   1.00
C306   C     0.87417   0.64438   0.22086   0.00000  Uiso   1.00
C307   C     0.80708   0.49829   0.35010   0.00000  Uiso   1.00
C308   C     0.87481   0.35371   0.21681   0.00000  Uiso   1.00
C309   C     0.83374   0.37615   0.24721   0.00000  Uiso   1.00
C310   C     0.79249   0.35563   0.27924   0.00000  Uiso   1.00
C311   C     0.79184   0.64631   0.28328   0.00000  Uiso   1.00
C312   C     0.83291   0.62385   0.25287   0.00000  Uiso   1.00
C313   C     0.96555   0.52396   0.28441   0.00000  Uiso   1.00
C314   C     0.68181   0.52391   0.28445   0.00000  Uiso   1.00
C315   C     0.70111   0.47602   0.21560   0.00000  Uiso   1.00
C316   C     0.98483   0.47604   0.21560   0.00000  Uiso   1.00
C317   C     0.83369   0.42078   0.24846   0.00000  Uiso   1.00
C318   C     0.85959   0.49934   0.14998   0.00000  Uiso   1.00
C319   C     0.93038   0.46575   0.01419   0.00000  Uiso   1.00
C320   C     0.87459   0.49400   0.09336   0.00000  Uiso   1.00
C321   C     0.74495   0.51430   0.43397   0.00000  Uiso   1.00
C322   C     0.73141   0.52044   0.48744   0.00000  Uiso   1.00
C323   C     0.76454   0.51243   0.01496   0.00000  Uiso   1.00
Cu324  Cu    0.78645   0.49999   0.25000   0.00000  Uiso   1.00
Cu325  Cu    0.88022   0.50001   0.25000   0.00000  Uiso   1.00
H326   H     0.94658   0.47005   0.08684   0.00000  Uiso   1.00
H327   H     0.76131   0.37297   0.30303   0.00000  Uiso   1.00
H328   H     0.93916   0.54321   0.31195   0.00000  Uiso   1.00
H329   H     0.69278   0.54308   0.31202   0.00000  Uiso   1.00
H330   H     0.72749   0.45674   0.18808   0.00000  Uiso   1.00
H331   H     0.97385   0.45682   0.18808   0.00000  Uiso   1.00
H332   H     0.93180   0.43645   0.41870   0.00000  Uiso   1.00
H333   H     0.80788   0.51886   0.08857   0.00000  Uiso   1.00
H334   H     0.71955   0.52333   0.41309   0.00000  Uiso   1.00
H335   H     0.75132   0.51849   0.05620   0.00000  Uiso   1.00
H336   H     0.69544   0.53274   0.00755   0.00000  Uiso   1.00
H337   H     0.87196   0.44758   0.37528   0.00000  Uiso   1.00
H338   H     0.90536   0.62705   0.19708   0.00000  Uiso   1.00
N339   N     0.71598   0.49999   0.24999   0.00000  Uiso   1.00
N340   N     0.95069   0.50002   0.25000   0.00000  Uiso   1.00
O341   O     0.79375   0.56011   0.25001   0.00000  Uiso   1.00
O342   O     0.87294   0.56012   0.25001   0.00000  Uiso   1.00
O343   O     0.77441   0.49998   0.32549   0.00000  Uiso   1.00
O344   O     0.85360   0.49999   0.32549   0.00000  Uiso   1.00
O345   O     0.79373   0.43988   0.25000   0.00000  Uiso   1.00
O346   O     0.87292   0.43989   0.25000   0.00000  Uiso   1.00
O347   O     0.81306   0.50001   0.17451   0.00000  Uiso   1.00
O348   O     0.89225   0.50002   0.17451   0.00000  Uiso   1.00
O349   O     0.91533   0.37178   0.18185   0.00000  Uiso   1.00
H350   H     0.90592   0.39895   0.17112   0.00000  Uiso   1.00
O351   O     0.75131   0.62824   0.31820   0.00000  Uiso   1.00
H352   H     0.76068   0.60103   0.32887   0.00000  Uiso   1.00
O353   O     0.97630   0.44967   0.49000   0.00000  Uiso   1.00
H354   H     0.98641   0.45797   0.45288   0.00000  Uiso   1.00
C355   C     0.16630   0.91256   0.25159   0.00000  Uiso   1.00
C356   C     0.14525   0.82966   0.48953   0.00000  Uiso   1.00
C357   C     0.15653   0.81891   0.43612   0.00000  Uiso   1.00
C358   C     0.18159   0.82350   0.01534   0.00000  Uiso   1.00
C359   C     0.22703   0.80410   0.48872   0.00000  Uiso   1.00
C360   C     0.23360   0.78833   0.43859   0.00000  Uiso   1.00
C361   C     0.19890   0.79532   0.41301   0.00000  Uiso   1.00
C362   C     0.17395   0.83608   0.06706   0.00000  Uiso   1.00
C363   C     0.25305   0.80966   0.06670   0.00000  Uiso   1.00
C364   C     0.12448   0.83125   0.40752   0.00000  Uiso   1.00
C365   C     0.20750   0.97772   0.22086   0.00000  Uiso   1.00
C366   C     0.14041   0.83162   0.35010   0.00000  Uiso   1.00
C367   C     0.20815   0.68704   0.21681   0.00000  Uiso   1.00
C368   C     0.16708   0.70949   0.24721   0.00000  Uiso   1.00
C369   C     0.12583   0.68897   0.27924   0.00000  Uiso   1.00
C370   C     0.12517   0.97964   0.28328   0.00000  Uiso   1.00
C371   C     0.16624   0.95719   0.25287   0.00000  Uiso   1.00
C372   C     0.29888   0.85730   0.28441   0.00000  Uiso   1.00
C373   C     0.01515   0.85724   0.28445   0.00000  Uiso   1.00
C374   C     0.03444   0.80935   0.21560   0.00000  Uiso   1.00
C375   C     0.31816   0.80937   0.21560   0.00000  Uiso   1.00
C376   C     0.16702   0.75411   0.24846   0.00000  Uiso   1.00
C377   C     0.19292   0.83267   0.14998   0.00000  Uiso   1.00
C378   C     0.26371   0.79909   0.01419   0.00000  Uiso   1.00
C379   C     0.20793   0.82733   0.09336   0.00000  Uiso   1.00
C380   C     0.07828   0.84763   0.43397   0.00000  Uiso   1.00
C381   C     0.06474   0.85378   0.48744   0.00000  Uiso   1.00
C382   C     0.09787   0.84577   0.01496   0.00000  Uiso   1.00
Cu383  Cu    0.11978   0.83333   0.25000   0.00000  Uiso   1.00
Cu384  Cu    0.21355   0.83334   0.25000   0.00000  Uiso   1.00
H385   H     0.27992   0.80338   0.08684   0.00000  Uiso   1.00
H386   H     0.09464   0.70631   0.30303   0.00000  Uiso   1.00
H387   H     0.27249   0.87654   0.31195   0.00000  Uiso   1.00
H388   H     0.02611   0.87641   0.31202   0.00000  Uiso   1.00
H389   H     0.06082   0.79008   0.18808   0.00000  Uiso   1.00
H390   H     0.30718   0.79016   0.18808   0.00000  Uiso   1.00
H391   H     0.26513   0.76978   0.41870   0.00000  Uiso   1.00
H392   H     0.14121   0.85219   0.08857   0.00000  Uiso   1.00
H393   H     0.05288   0.85666   0.41309   0.00000  Uiso   1.00
H394   H     0.08466   0.85182   0.05620   0.00000  Uiso   1.00
H395   H     0.02877   0.86607   0.00755   0.00000  Uiso   1.00
H396   H     0.20529   0.78092   0.37528   0.00000  Uiso   1.00
H397   H     0.23870   0.96038   0.19708   0.00000  Uiso   1.00
N398   N     0.04931   0.83332   0.24999   0.00000  Uiso   1.00
N399   N     0.28402   0.83335   0.25000   0.00000  Uiso   1.00
O400   O     0.12708   0.89345   0.25001   0.00000  Uiso   1.00
O401   O     0.20627   0.89346   0.25001   0.00000  Uiso   1.00
O402   O     0.10775   0.83332   0.32549   0.00000  Uiso   1.00
O403   O     0.18694   0.83333   0.32549   0.00000  Uiso   1.00
O404   O     0.12706   0.77321   0.25000   0.00000  Uiso   1.00
O405   O     0.20625   0.77322   0.25000   0.00000  Uiso   1.00
O406   O     0.14640   0.83334   0.17451   0.00000  Uiso   1.00
O407   O     0.22559   0.83335   0.17451   0.00000  Uiso   1.00
O408   O     0.24866   0.70511   0.18185   0.00000  Uiso   1.00
H409   H     0.23925   0.73229   0.17112   0.00000  Uiso   1.00
O410   O     0.08464   0.96157   0.31820   0.00000  Uiso   1.00
H411   H     0.09401   0.93436   0.32887   0.00000  Uiso   1.00
O412   O     0.30964   0.78301   0.49000   0.00000  Uiso   1.00
H413   H     0.31974   0.79130   0.45288   0.00000  Uiso   1.00
C414   C     0.49963   0.91256   0.25159   0.00000  Uiso   1.00
C415   C     0.47858   0.82966   0.48953   0.00000  Uiso   1.00
C416   C     0.48986   0.81891   0.43612   0.00000  Uiso   1.00
C417   C     0.51493   0.82350   0.01534   0.00000  Uiso   1.00
C418   C     0.56036   0.80410   0.48872   0.00000  Uiso   1.00
C419   C     0.56693   0.78833   0.43859   0.00000  Uiso   1.00
C420   C     0.53223   0.79532   0.41301   0.00000  Uiso   1.00
C421   C     0.50728   0.83608   0.06706   0.00000  Uiso   1.00
C422   C     0.58639   0.80966   0.06670   0.00000  Uiso   1.00
C423   C     0.45782   0.83125   0.40752   0.00000  Uiso   1.00
C424   C     0.54084   0.97772   0.22086   0.00000  Uiso   1.00
C425   C     0.47375   0.83162   0.35010   0.00000  Uiso   1.00
C426   C     0.54148   0.68704   0.21681   0.00000  Uiso   1.00
C427   C     0.50041   0.70949   0.24721   0.00000  Uiso   1.00
C428   C     0.45916   0.68897   0.27924   0.00000  Uiso   1.00
C429   C     0.45851   0.97964   0.28328   0.00000  Uiso   1.00
C430   C     0.49958   0.95719   0.25287   0.00000  Uiso   1.00
C431   C     0.63222   0.85730   0.28441   0.00000  Uiso   1.00
C432   C     0.34848   0.85724   0.28445   0.00000  Uiso   1.00
C433   C     0.36777   0.80935   0.21560   0.00000  Uiso   1.00
C434   C     0.65150   0.80937   0.21560   0.00000  Uiso   1.00
C435   C     0.50036   0.75411   0.24846   0.00000  Uiso   1.00
C436   C     0.52626   0.83267   0.14998   0.00000  Uiso   1.00
C437   C     0.59704   0.79909   0.01419   0.00000  Uiso   1.00
C438   C     0.54126   0.82733   0.09336   0.00000  Uiso   1.00
C439   C     0.41161   0.84763   0.43397   0.00000  Uiso   1.00
C440   C     0.39807   0.85378   0.48744   0.00000  Uiso   1.00
C441   C     0.43121   0.84577   0.01496   0.00000  Uiso   1.00
Cu442  Cu    0.45311   0.83333   0.25000   0.00000  Uiso   1.00
Cu443  Cu    0.54689   0.83334   0.25000   0.00000  Uiso   1.00
H444   H     0.61325   0.80338   0.08684   0.00000  Uiso   1.00
H445   H     0.42797   0.70631   0.30303   0.00000  Uiso   1.00
H446   H     0.60582   0.87654   0.31195   0.00000  Uiso   1.00
H447   H     0.35945   0.87641   0.31202   0.00000  Uiso   1.00
H448   H     0.39416   0.79008   0.18808   0.00000  Uiso   1.00
H449   H     0.64052   0.79016   0.18808   0.00000  Uiso   1.00
H450   H     0.59846   0.76978   0.41870   0.00000  Uiso   1.00
H451   H     0.47455   0.85219   0.08857   0.00000  Uiso   1.00
H452   H     0.38621   0.85666   0.41309   0.00000  Uiso   1.00
H453   H     0.41799   0.85182   0.05620   0.00000  Uiso   1.00
H454   H     0.36211   0.86607   0.00755   0.00000  Uiso   1.00
H455   H     0.53863   0.78092   0.37528   0.00000  Uiso   1.00
H456   H     0.57203   0.96038   0.19708   0.00000  Uiso   1.00
N457   N     0.38265   0.83332   0.24999   0.00000  Uiso   1.00
N458   N     0.61735   0.83335   0.25000   0.00000  Uiso   1.00
O459   O     0.46042   0.89345   0.25001   0.00000  Uiso   1.00
O460   O     0.53961   0.89346   0.25001   0.00000  Uiso   1.00
O461   O     0.44108   0.83332   0.32549   0.00000  Uiso   1.00
O462   O     0.52027   0.83333   0.32549   0.00000  Uiso   1.00
O463   O     0.46039   0.77321   0.25000   0.00000  Uiso   1.00
O464   O     0.53958   0.77322   0.25000   0.00000  Uiso   1.00
O465   O     0.47973   0.83334   0.17451   0.00000  Uiso   1.00
O466   O     0.55892   0.83335   0.17451   0.00000  Uiso   1.00
O467   O     0.58199   0.70511   0.18185   0.00000  Uiso   1.00
H468   H     0.57258   0.73229   0.17112   0.00000  Uiso   1.00
O469   O     0.41797   0.96157   0.31820   0.00000  Uiso   1.00
H470   H     0.42734   0.93436   0.32887   0.00000  Uiso   1.00
O471   O     0.64297   0.78301   0.49000   0.00000  Uiso   1.00
H472   H     0.65307   0.79130   0.45288   0.00000  Uiso   1.00
C473   C     0.83296   0.91256   0.25159   0.00000  Uiso   1.00
C474   C     0.81192   0.82966   0.48953   0.00000  Uiso   1.00
C475   C     0.82319   0.81891   0.43612   0.00000  Uiso   1.00
C476   C     0.84826   0.82350   0.01534   0.00000  Uiso   1.00
C477   C     0.89370   0.80410   0.48872   0.00000  Uiso   1.00
C478   C     0.90026   0.78833   0.43859   0.00000  Uiso   1.00
C479   C     0.86557   0.79532   0.41301   0.00000  Uiso   1.00
C480   C     0.84061   0.83608   0.06706   0.00000  Uiso   1.00
C481   C     0.91972   0.80966   0.06670   0.00000  Uiso   1.00
C482   C     0.79115   0.83125   0.40752   0.00000  Uiso   1.00
C483   C     0.87417   0.97772   0.22086   0.00000  Uiso   1.00
C484   C     0.80708   0.83162   0.35010   0.00000  Uiso   1.00
C485   C     0.87481   0.68704   0.21681   0.00000  Uiso   1.00
C486   C     0.83374   0.70949   0.24721   0.00000  Uiso   1.00
C487   C     0.79249   0.68897   0.27924   0.00000  Uiso   1.00
C488   C     0.79184   0.97964   0.28328   0.00000  Uiso   1.00
C489   C     0.83291   0.95719   0.25287   0.00000  Uiso   1.00
C490   C     0.96555   0.85730   0.28441   0.00000  Uiso   1.00
C491   C     0.68181   0.85724   0.28445   0.00000  Uiso   1.00
C492   C     0.70111   0.80935   0.21560   0.00000  Uiso   1.00
C493   C     0.98483   0.80937   0.21560   0.00000  Uiso   1.00
C494   C     0.83369   0.75411   0.24846   0.00000  Uiso   1.00
C495   C     0.85959   0.83267   0.14998   0.00000  Uiso   1.00
C496   C     0.93038   0.79909   0.01419   0.00000  Uiso   1.00
C497   C     0.87459   0.82733   0.09336   0.00000  Uiso   1.00
C498   C     0.74495   0.84763   0.43397   0.00000  Uiso   1.00
C499   C     0.73141   0.85378   0.48744   0.00000  Uiso   1.00
C500   C     0.76454   0.84577   0.01496   0.00000  Uiso   1.00
Cu501  Cu    0.78645   0.83333   0.25000   0.00000  Uiso   1.00
Cu502  Cu    0.88022   0.83334   0.25000   0.00000  Uiso   1.00
H503   H     0.94658   0.80338   0.08684   0.00000  Uiso   1.00
H504   H     0.76131   0.70631   0.30303   0.00000  Uiso   1.00
H505   H     0.93916   0.87654   0.31195   0.00000  Uiso   1.00
H506   H     0.69278   0.87641   0.31202   0.00000  Uiso   1.00
H507   H     0.72749   0.79008   0.18808   0.00000  Uiso   1.00
H508   H     0.97385   0.79016   0.18808   0.00000  Uiso   1.00
H509   H     0.93180   0.76978   0.41870   0.00000  Uiso   1.00
H510   H     0.80788   0.85219   0.08857   0.00000  Uiso   1.00
H511   H     0.71955   0.85666   0.41309   0.00000  Uiso   1.00
H512   H     0.75132   0.85182   0.05620   0.00000  Uiso   1.00
H513   H     0.69544   0.86607   0.00755   0.00000  Uiso   1.00
H514   H     0.87196   0.78092   0.37528   0.00000  Uiso   1.00
H515   H     0.90536   0.96038   0.19708   0.00000  Uiso   1.00
N516   N     0.71598   0.83332   0.24999   0.00000  Uiso   1.00
N517   N     0.95069   0.83335   0.25000   0.00000  Uiso   1.00
O518   O     0.79375   0.89345   0.25001   0.00000  Uiso   1.00
O519   O     0.87294   0.89346   0.25001   0.00000  Uiso   1.00
O520   O     0.77441   0.83332   0.32549   0.00000  Uiso   1.00
O521   O     0.85360   0.83333   0.32549   0.00000  Uiso   1.00
O522   O     0.79373   0.77321   0.25000   0.00000  Uiso   1.00
O523   O     0.87292   0.77322   0.25000   0.00000  Uiso   1.00
O524   O     0.81306   0.83334   0.17451   0.00000  Uiso   1.00
O525   O     0.89225   0.83335   0.17451   0.00000  Uiso   1.00
O526   O     0.91533   0.70511   0.18185   0.00000  Uiso   1.00
H527   H     0.90592   0.73229   0.17112   0.00000  Uiso   1.00
O528   O     0.75131   0.96157   0.31820   0.00000  Uiso   1.00
H529   H     0.76068   0.93436   0.32887   0.00000  Uiso   1.00
O530   O     0.97630   0.78301   0.49000   0.00000  Uiso   1.00
H531   H     0.98641   0.79130   0.45288   0.00000  Uiso   1.00
C532   C     0.16630   0.24589   0.75159   0.00000  Uiso   1.00
C533   C     0.14525   0.16299   0.98953   0.00000  Uiso   1.00
C534   C     0.15653   0.15224   0.93612   0.00000  Uiso   1.00
C535   C     0.18159   0.15683   0.51534   0.00000  Uiso   1.00
C536   C     0.22703   0.13743   0.98872   0.00000  Uiso   1.00
C537   C     0.23360   0.12166   0.93859   0.00000  Uiso   1.00
C538   C     0.19890   0.12866   0.91301   0.00000  Uiso   1.00
C539   C     0.17395   0.16941   0.56706   0.00000  Uiso   1.00
C540   C     0.25305   0.14300   0.56670   0.00000  Uiso   1.00
C541   C     0.12448   0.16459   0.90752   0.00000  Uiso   1.00
C542   C     0.20750   0.31105   0.72086   0.00000  Uiso   1.00
C543   C     0.14041   0.16496   0.85010   0.00000  Uiso   1.00
C544   C     0.20815   0.02037   0.71681   0.00000  Uiso   1.00
C545   C     0.16708   0.04282   0.74721   0.00000  Uiso   1.00
C546   C     0.12583   0.02230   0.77924   0.00000  Uiso   1.00
C547   C     0.12517   0.31297   0.78328   0.00000  Uiso   1.00
C548   C     0.16624   0.29052   0.75287   0.00000  Uiso   1.00
C549   C     0.29888   0.19063   0.78441   0.00000  Uiso   1.00
C550   C     0.01515   0.19058   0.78445   0.00000  Uiso   1.00
C551   C     0.03444   0.14268   0.71560   0.00000  Uiso   1.00
C552   C     0.31816   0.14270   0.71560   0.00000  Uiso   1.00
C553   C     0.16702   0.08744   0.74846   0.00000  Uiso   1.00
C554   C     0.19292   0.16600   0.64998   0.00000  Uiso   1.00
C555   C     0.26371   0.13242   0.51419   0.00000  Uiso   1.00
C556   C     0.20793   0.16066   0.59336   0.00000  Uiso   1.00
C557   C     0.07828   0.18096   0.93397   0.00000  Uiso   1.00
C558   C     0.06474   0.18711   0.98744   0.00000  Uiso   1.00
C559   C     0.09787   0.17910   0.51496   0.00000  Uiso   1.00
Cu560  Cu    0.11978   0.16666   0.75000   0.00000  Uiso   1.00
Cu561  Cu    0.21355   0.16667   0.75000   0.00000  Uiso   1.00
H562   H     0.27992   0.13671   0.58684   0.00000  Uiso   1.00
H563   H     0.09464   0.03964   0.80303   0.00000  Uiso   1.00
H564   H     0.27249   0.20988   0.81195   0.00000  Uiso   1.00
H565   H     0.02611   0.20975   0.81202   0.00000  Uiso   1.00
H566   H     0.06082   0.12341   0.68808   0.00000  Uiso   1.00
H567   H     0.30718   0.12349   0.68808   0.00000  Uiso   1.00
H568   H     0.26513   0.10312   0.91870   0.00000  Uiso   1.00
H569   H     0.14121   0.18553   0.58857   0.00000  Uiso   1.00
H570   H     0.05288   0.18999   0.91309   0.00000  Uiso   1.00
H571   H     0.08466   0.18515   0.55620   0.00000  Uiso   1.00
H572   H     0.02877   0.19940   0.50755   0.00000  Uiso   1.00
H573   H     0.20529   0.11425   0.87528   0.00000  Uiso   1.00
H574   H     0.23870   0.29371   0.69708   0.00000  Uiso   1.00
N575   N     0.04931   0.16666   0.74999   0.00000  Uiso   1.00
N576   N     0.28402   0.16669   0.75000   0.00000  Uiso   1.00
O577   O     0.12708   0.22678   0.75001   0.00000  Uiso   1.00
O578   O     0.20627   0.22679   0.75001   0.00000  Uiso   1.00
O579   O     0.10775   0.16665   0.82549   0.00000  Uiso   1.00
O580   O     0.18694   0.16666   0.82549   0.00000  Uiso   1.00
O581   O     0.12706   0.10654   0.75000   0.00000  Uiso   1.00
O582   O     0.20625   0.10655   0.75000   0.00000  Uiso   1.00
O583   O     0.14640   0.16667   0.67451   0.00000  Uiso   1.00
O584   O     0.22559   0.16668   0.67451   0.00000  Uiso   1.00
O585   O     0.24866   0.03844   0.68185   0.00000  Uiso   1.00
H586   H     0.23925   0.06562   0.67112   0.00000  Uiso   1.00
O587   O     0.08464   0.29491   0.81820   0.00000  Uiso   1.00
H588   H     0.09401   0.26769   0.82887   0.00000  Uiso   1.00
O589   O     0.30964   0.11634   0.99000   0.00000  Uiso   1.00
H590   H     0.31974   0.12464   0.95288   0.00000  Uiso   1.00
C591   C     0.49963   0.24589   0.75159   0.00000  Uiso   1.00
C592   C     0.47858   0.16299   0.98953   0.00000  Uiso   1.00
C593   C     0.48986   0.15224   0.93612   0.00000  Uiso   1.00
C594   C     0.51493   0.15683   0.51534   0.00000  Uiso   1.00
C595   C     0.56036   0.13743   0.98872   0.00000  Uiso   1.00
C596   C     0.56693   0.12166   0.93859   0.00000  Uiso   1.00
C597   C     0.53223   0.12866   0.91301   0.00000  Uiso   1.00
C598   C     0.50728   0.16941   0.56706   0.00000  Uiso   1.00
C599   C     0.58639   0.14300   0.56670   0.00000  Uiso   1.00
C600   C     0.45782   0.16459   0.90752   0.00000  Uiso   1.00
C601   C     0.54084   0.31105   0.72086   0.00000  Uiso   1.00
C602   C     0.47375   0.16496   0.85010   0.00000  Uiso   1.00
C603   C     0.54148   0.02037   0.71681   0.00000  Uiso   1.00
C604   C     0.50041   0.04282   0.74721   0.00000  Uiso   1.00
C605   C     0.45916   0.02230   0.77924   0.00000  Uiso   1.00
C606   C     0.45851   0.31297   0.78328   0.00000  Uiso   1.00
C607   C     0.49958   0.29052   0.75287   0.00000  Uiso   1.00
C608   C     0.63222   0.19063   0.78441   0.00000  Uiso   1.00
C609   C     0.34848   0.19058   0.78445   0.00000  Uiso   1.00
C610   C     0.36777   0.14268   0.71560   0.00000  Uiso   1.00
C611   C     0.65150   0.14270   0.71560   0.00000  Uiso   1.00
C612   C     0.50036   0.08744   0.74846   0.00000  Uiso   1.00
C613   C     0.52626   0.16600   0.64998   0.00000  Uiso   1.00
C614   C     0.59704   0.13242   0.51419   0.00000  Uiso   1.00
C615   C     0.54126   0.16066   0.59336   0.00000  Uiso   1.00
C616   C     0.41161   0.18096   0.93397   0.00000  Uiso   1.00
C617   C     0.39807   0.18711   0.98744   0.00000  Uiso   1.00
C618   C     0.43121   0.17910   0.51496   0.00000  Uiso   1.00
Cu619  Cu    0.45311   0.16666   0.75000   0.00000  Uiso   1.00
Cu620  Cu    0.54689   0.16667   0.75000   0.00000  Uiso   1.00
H621   H     0.61325   0.13671   0.58684   0.00000  Uiso   1.00
H622   H     0.42797   0.03964   0.80303   0.00000  Uiso   1.00
H623   H     0.60582   0.20988   0.81195   0.00000  Uiso   1.00
H624   H     0.35945   0.20975   0.81202   0.00000  Uiso   1.00
H625   H     0.39416   0.12341   0.68808   0.00000  Uiso   1.00
H626   H     0.64052   0.12349   0.68808   0.00000  Uiso   1.00
H627   H     0.59846   0.10312   0.91870   0.00000  Uiso   1.00
H628   H     0.47455   0.18553   0.58857   0.00000  Uiso   1.00
H629   H     0.38621   0.18999   0.91309   0.00000  Uiso   1.00
H630   H     0.41799   0.18515   0.55620   0.00000  Uiso   1.00
H631   H     0.36211   0.19940   0.50755   0.00000  Uiso   1.00
H632   H     0.53863   0.11425   0.87528   0.00000  Uiso   1.00
H633   H     0.57203   0.29371   0.69708   0.00000  Uiso   1.00
N634   N     0.38265   0.16666   0.74999   0.00000  Uiso   1.00
N635   N     0.61735   0.16669   0.75000   0.00000  Uiso   1.00
O636   O     0.46042   0.22678   0.75001   0.00000  Uiso   1.00
O637   O     0.53961   0.22679   0.75001   0.00000  Uiso   1.00
O638   O     0.44108   0.16665   0.82549   0.00000  Uiso   1.00
O639   O     0.52027   0.16666   0.82549   0.00000  Uiso   1.00
O640   O     0.46039   0.10654   0.75000   0.00000  Uiso   1.00
O641   O     0.53958   0.10655   0.75000   0.00000  Uiso   1.00
O642   O     0.47973   0.16667   0.67451   0.00000  Uiso   1.00
O643   O     0.55892   0.16668   0.67451   0.00000  Uiso   1.00
O644   O     0.58199   0.03844   0.68185   0.00000  Uiso   1.00
H645   H     0.57258   0.06562   0.67112   0.00000  Uiso   1.00
O646   O     0.41797   0.29491   0.81820   0.00000  Uiso   1.00
H647   H     0.42734   0.26769   0.82887   0.00000  Uiso   1.00
O648   O     0.64297   0.11634   0.99000   0.00000  Uiso   1.00
H649   H     0.65307   0.12464   0.95288   0.00000  Uiso   1.00
C650   C     0.83296   0.24589   0.75159   0.00000  Uiso   1.00
C651   C     0.81192   0.16299   0.98953   0.00000  Uiso   1.00
C652   C     0.82319   0.15224   0.93612   0.00000  Uiso   1.00
C653   C     0.84826   0.15683   0.51534   0.00000  Uiso   1.00
C654   C     0.89370   0.13743   0.98872   0.00000  Uiso   1.00
C655   C     0.90026   0.12166   0.93859   0.00000  Uiso   1.00
C656   C     0.86557   0.12866   0.91301   0.00000  Uiso   1.00
C657   C     0.84061   0.16941   0.56706   0.00000  Uiso   1.00
C658   C     0.91972   0.14300   0.56670   0.00000  Uiso   1.00
C659   C     0.79115   0.16459   0.90752   0.00000  Uiso   1.00
C660   C     0.87417   0.31105   0.72086   0.00000  Uiso   1.00
C661   C     0.80708   0.16496   0.85010   0.00000  Uiso   1.00
C662   C     0.87481   0.02037   0.71681   0.00000  Uiso   1.00
C663   C     0.83374   0.04282   0.74721   0.00000  Uiso   1.00
C664   C     0.79249   0.02230   0.77924   0.00000  Uiso   1.00
C665   C     0.79184   0.31297   0.78328   0.00000  Uiso   1.00
C666   C     0.83291   0.29052   0.75287   0.00000  Uiso   1.00
C667   C     0.96555   0.19063   0.78441   0.00000  Uiso   1.00
C668   C     0.68181   0.19058   0.78445   0.00000  Uiso   1.00
C669   C     0.70111   0.14268   0.71560   0.00000  Uiso   1.00
C670   C     0.98483   0.14270   0.71560   0.00000  Uiso   1.00
C671   C     0.83369   0.08744   0.74846   0.00000  Uiso   1.00
C672   C     0.85959   0.16600   0.64998   0.00000  Uiso   1.00
C673   C     0.93038   0.13242   0.51419   0.00000  Uiso   1.00
C674   C     0.87459   0.16066   0.59336   0.00000  Uiso   1.00
C675   C     0.74495   0.18096   0.93397   0.00000  Uiso   1.00
C676   C     0.73141   0.18711   0.98744   0.00000  Uiso   1.00
C677   C     0.76454   0.17910   0.51496   0.00000  Uiso   1.00
Cu678  Cu    0.78645   0.16666   0.75000   0.00000  Uiso   1.00
Cu679  Cu    0.88022   0.16667   0.75000   0.00000  Uiso   1.00
H680   H     0.94658   0.13671   0.58684   0.00000  Uiso   1.00
H681   H     0.76131   0.03964   0.80303   0.00000  Uiso   1.00
H682   H     0.93916   0.20988   0.81195   0.00000  Uiso   1.00
H683   H     0.69278   0.20975   0.81202   0.00000  Uiso   1.00
H684   H     0.72749   0.12341   0.68808   0.00000  Uiso   1.00
H685   H     0.97385   0.12349   0.68808   0.00000  Uiso   1.00
H686   H     0.93180   0.10312   0.91870   0.00000  Uiso   1.00
H687   H     0.80788   0.18553   0.58857   0.00000  Uiso   1.00
H688   H     0.71955   0.18999   0.91309   0.00000  Uiso   1.00
H689   H     0.75132   0.18515   0.55620   0.00000  Uiso   1.00
H690   H     0.69544   0.19940   0.50755   0.00000  Uiso   1.00
H691   H     0.87196   0.11425   0.87528   0.00000  Uiso   1.00
H692   H     0.90536   0.29371   0.69708   0.00000  Uiso   1.00
N693   N     0.71598   0.16666   0.74999   0.00000  Uiso   1.00
N694   N     0.95069   0.16669   0.75000   0.00000  Uiso   1.00
O695   O     0.79375   0.22678   0.75001   0.00000  Uiso   1.00
O696   O     0.87294   0.22679   0.75001   0.00000  Uiso   1.00
O697   O     0.77441   0.16665   0.82549   0.00000  Uiso   1.00
O698   O     0.85360   0.16666   0.82549   0.00000  Uiso   1.00
O699   O     0.79373   0.10654   0.75000   0.00000  Uiso   1.00
O700   O     0.87292   0.10655   0.75000   0.00000  Uiso   1.00
O701   O     0.81306   0.16667   0.67451   0.00000  Uiso   1.00
O702   O     0.89225   0.16668   0.67451   0.00000  Uiso   1.00
O703   O     0.91533   0.03844   0.68185   0.00000  Uiso   1.00
H704   H     0.90592   0.06562   0.67112   0.00000  Uiso   1.00
O705   O     0.75131   0.29491   0.81820   0.00000  Uiso   1.00
H706   H     0.76068   0.26769   0.82887   0.00000  Uiso   1.00
O707   O     0.97630   0.11634   0.99000   0.00000  Uiso   1.00
H708   H     0.98641   0.12464   0.95288   0.00000  Uiso   1.00
C709   C     0.16630   0.57922   0.75159   0.00000  Uiso   1.00
C710   C     0.14525   0.49632   0.98953   0.00000  Uiso   1.00
C711   C     0.15653   0.48558   0.93612   0.00000  Uiso   1.00
C712   C     0.18159   0.49017   0.51534   0.00000  Uiso   1.00
C713   C     0.22703   0.47077   0.98872   0.00000  Uiso   1.00
C714   C     0.23360   0.45499   0.93859   0.00000  Uiso   1.00
C715   C     0.19890   0.46199   0.91301   0.00000  Uiso   1.00
C716   C     0.17395   0.50274   0.56706   0.00000  Uiso   1.00
C717   C     0.25305   0.47633   0.56670   0.00000  Uiso   1.00
C718   C     0.12448   0.49792   0.90752   0.00000  Uiso   1.00
C719   C     0.20750   0.64438   0.72086   0.00000  Uiso   1.00
C720   C     0.14041   0.49829   0.85010   0.00000  Uiso   1.00
C721   C     0.20815   0.35371   0.71681   0.00000  Uiso   1.00
C722   C     0.16708   0.37615   0.74721   0.00000  Uiso   1.00
C723   C     0.12583   0.35563   0.77924   0.00000  Uiso   1.00
C724   C     0.12517   0.64631   0.78328   0.00000  Uiso   1.00
C725   C     0.16624   0.62385   0.75287   0.00000  Uiso   1.00
C726   C     0.29888   0.52396   0.78441   0.00000  Uiso   1.00
C727   C     0.01515   0.52391   0.78445   0.00000  Uiso   1.00
C728   C     0.03444   0.47602   0.71560   0.00000  Uiso   1.00
C729   C     0.31816   0.47604   0.71560   0.00000  Uiso   1.00
C730   C     0.16702   0.42078   0.74846   0.00000  Uiso   1.00
C731   C     0.19292   0.49934   0.64998   0.00000  Uiso   1.00
C732   C     0.26371   0.46575   0.51419   0.00000  Uiso   1.00
C733   C     0.20793   0.49400   0.59336   0.00000  Uiso   1.00
C734   C     0.07828   0.51430   0.93397   0.00000  Uiso   1.00
C735   C     0.06474   0.52044   0.98744   0.00000  Uiso   1.00
C736   C     0.09787   0.51243   0.51496   0.00000  Uiso   1.00
Cu737  Cu    0.11978   0.49999   0.75000   0.00000  Uiso   1.00
Cu738  Cu    0.21355   0.50001   0.75000   0.00000  Uiso   1.00
H739   H     0.27992   0.47005   0.58684   0.00000  Uiso   1.00
H740   H     0.09464   0.37297   0.80303   0.00000  Uiso   1.00
H741   H     0.27249   0.54321   0.81195   0.00000  Uiso   1.00
H742   H     0.02611   0.54308   0.81202   0.00000  Uiso   1.00
H743   H     0.06082   0.45674   0.68808   0.00000  Uiso   1.00
H744   H     0.30718   0.45682   0.68808   0.00000  Uiso   1.00
H745   H     0.26513   0.43645   0.91870   0.00000  Uiso   1.00
H746   H     0.14121   0.51886   0.58857   0.00000  Uiso   1.00
H747   H     0.05288   0.52333   0.91309   0.00000  Uiso   1.00
H748   H     0.08466   0.51849   0.55620   0.00000  Uiso   1.00
H749   H     0.02877   0.53274   0.50755   0.00000  Uiso   1.00
H750   H     0.20529   0.44758   0.87528   0.00000  Uiso   1.00
H751   H     0.23870   0.62705   0.69708   0.00000  Uiso   1.00
N752   N     0.04931   0.49999   0.74999   0.00000  Uiso   1.00
N753   N     0.28402   0.50002   0.75000   0.00000  Uiso   1.00
O754   O     0.12708   0.56011   0.75001   0.00000  Uiso   1.00
O755   O     0.20627   0.56012   0.75001   0.00000  Uiso   1.00
O756   O     0.10775   0.49998   0.82549   0.00000  Uiso   1.00
O757   O     0.18694   0.49999   0.82549   0.00000  Uiso   1.00
O758   O     0.12706   0.43988   0.75000   0.00000  Uiso   1.00
O759   O     0.20625   0.43989   0.75000   0.00000  Uiso   1.00
O760   O     0.14640   0.50001   0.67451   0.00000  Uiso   1.00
O761   O     0.22559   0.50002   0.67451   0.00000  Uiso   1.00
O762   O     0.24866   0.37178   0.68185   0.00000  Uiso   1.00
H763   H     0.23925   0.39895   0.67112   0.00000  Uiso   1.00
O764   O     0.08464   0.62824   0.81820   0.00000  Uiso   1.00
H765   H     0.09401   0.60103   0.82887   0.00000  Uiso   1.00
O766   O     0.30964   0.44967   0.99000   0.00000  Uiso   1.00
H767   H     0.31974   0.45797   0.95288   0.00000  Uiso   1.00
C768   C     0.49963   0.57922   0.75159   0.00000  Uiso   1.00
C769   C     0.47858   0.49632   0.98953   0.00000  Uiso   1.00
C770   C     0.48986   0.48558   0.93612   0.00000  Uiso   1.00
C771   C     0.51493   0.49017   0.51534   0.00000  Uiso   1.00
C772   C     0.56036   0.47077   0.98872   0.00000  Uiso   1.00
C773   C     0.56693   0.45499   0.93859   0.00000  Uiso   1.00
C774   C     0.53223   0.46199   0.91301   0.00000  Uiso   1.00
C775   C     0.50728   0.50274   0.56706   0.00000  Uiso   1.00
C776   C     0.58639   0.47633   0.56670   0.00000  Uiso   1.00
C777   C     0.45782   0.49792   0.90752   0.00000  Uiso   1.00
C778   C     0.54084   0.64438   0.72086   0.00000  Uiso   1.00
C779   C     0.47375   0.49829   0.85010   0.00000  Uiso   1.00
C780   C     0.54148   0.35371   0.71681   0.00000  Uiso   1.00
C781   C     0.50041   0.37615   0.74721   0.00000  Uiso   1.00
C782   C     0.45916   0.35563   0.77924   0.00000  Uiso   1.00
C783   C     0.45851   0.64631   0.78328   0.00000  Uiso   1.00
C784   C     0.49958   0.62385   0.75287   0.00000  Uiso   1.00
C785   C     0.63222   0.52396   0.78441   0.00000  Uiso   1.00
C786   C     0.34848   0.52391   0.78445   0.00000  Uiso   1.00
C787   C     0.36777   0.47602   0.71560   0.00000  Uiso   1.00
C788   C     0.65150   0.47604   0.71560   0.00000  Uiso   1.00
C789   C     0.50036   0.42078   0.74846   0.00000  Uiso   1.00
C790   C     0.52626   0.49934   0.64998   0.00000  Uiso   1.00
C791   C     0.59704   0.46575   0.51419   0.00000  Uiso   1.00
C792   C     0.54126   0.49400   0.59336   0.00000  Uiso   1.00
C793   C     0.41161   0.51430   0.93397   0.00000  Uiso   1.00
C794   C     0.39807   0.52044   0.98744   0.00000  Uiso   1.00
C795   C     0.43121   0.51243   0.51496   0.00000  Uiso   1.00
Cu796  Cu    0.45311   0.49999   0.75000   0.00000  Uiso   1.00
Cu797  Cu    0.54689   0.50001   0.75000   0.00000  Uiso   1.00
H798   H     0.61325   0.47005   0.58684   0.00000  Uiso   1.00
H799   H     0.42797   0.37297   0.80303   0.00000  Uiso   1.00
H800   H     0.60582   0.54321   0.81195   0.00000  Uiso   1.00
H801   H     0.35945   0.54308   0.81202   0.00000  Uiso   1.00
H802   H     0.39416   0.45674   0.68808   0.00000  Uiso   1.00
H803   H     0.64052   0.45682   0.68808   0.00000  Uiso   1.00
H804   H     0.59846   0.43645   0.91870   0.00000  Uiso   1.00
H805   H     0.47455   0.51886   0.58857   0.00000  Uiso   1.00
H806   H     0.38621   0.52333   0.91309   0.00000  Uiso   1.00
H807   H     0.41799   0.51849   0.55620   0.00000  Uiso   1.00
H808   H     0.36211   0.53274   0.50755   0.00000  Uiso   1.00
H809   H     0.53863   0.44758   0.87528   0.00000  Uiso   1.00
H810   H     0.57203   0.62705   0.69708   0.00000  Uiso   1.00
N811   N     0.38265   0.49999   0.74999   0.00000  Uiso   1.00
N812   N     0.61735   0.50002   0.75000   0.00000  Uiso   1.00
O813   O     0.46042   0.56011   0.75001   0.00000  Uiso   1.00
O814   O     0.53961   0.56012   0.75001   0.00000  Uiso   1.00
O815   O     0.44108   0.49998   0.82549   0.00000  Uiso   1.00
O816   O     0.52027   0.49999   0.82549   0.00000  Uiso   1.00
O817   O     0.46039   0.43988   0.75000   0.00000  Uiso   1.00
O818   O     0.53958   0.43989   0.75000   0.00000  Uiso   1.00
O819   O     0.47973   0.50001   0.67451   0.00000  Uiso   1.00
O820   O     0.55892   0.50002   0.67451   0.00000  Uiso   1.00
O821   O     0.58199   0.37178   0.68185   0.00000  Uiso   1.00
H822   H     0.57258   0.39895   0.67112   0.00000  Uiso   1.00
O823   O     0.41797   0.62824   0.81820   0.00000  Uiso   1.00
H824   H     0.42734   0.60103   0.82887   0.00000  Uiso   1.00
O825   O     0.64297   0.44967   0.99000   0.00000  Uiso   1.00
H826   H     0.65307   0.45797   0.95288   0.00000  Uiso   1.00
C827   C     0.83296   0.57922   0.75159   0.00000  Uiso   1.00
C828   C     0.81192   0.49632   0.98953   0.00000  Uiso   1.00
C829   C     0.82319   0.48558   0.93612   0.00000  Uiso   1.00
C830   C     0.84826   0.49017   0.51534   0.00000  Uiso   1.00
C831   C     0.89370   0.47077   0.98872   0.00000  Uiso   1.00
C832   C     0.90026   0.45499   0.93859   0.00000  Uiso   1.00
C833   C     0.86557   0.46199   0.91301   0.00000  Uiso   1.00
C834   C     0.84061   0.50274   0.56706   0.00000  Uiso   1.00
C835   C     0.91972   0.47633   0.56670   0.00000  Uiso   1.00
C836   C     0.79115   0.49792   0.90752   0.00000  Uiso   1.00
C837   C     0.87417   0.64438   0.72086   0.00000  Uiso   1.00
C838   C     0.80708   0.49829   0.85010   0.00000  Uiso   1.00
C839   C     0.87481   0.35371   0.71681   0.00000  Uiso   1.00
C840   C     0.83374   0.37615   0.74721   0.00000  Uiso   1.00
C841   C     0.79249   0.35563   0.77924   0.00000  Uiso   1.00
C842   C     0.79184   0.64631   0.78328   0.00000  Uiso   1.00
C843   C     0.83291   0.62385   0.75287   0.00000  Uiso   1.00
C844   C     0.96555   0.52396   0.78441   0.00000  Uiso   1.00
C845   C     0.68181   0.52391   0.78445   0.00000  Uiso   1.00
C846   C     0.70111   0.47602   0.71560   0.00000  Uiso   1.00
C847   C     0.98483   0.47604   0.71560   0.00000  Uiso   1.00
C848   C     0.83369   0.42078   0.74846   0.00000  Uiso   1.00
C849   C     0.85959   0.49934   0.64998   0.00000  Uiso   1.00
C850   C     0.93038   0.46575   0.51419   0.00000  Uiso   1.00
C851   C     0.87459   0.49400   0.59336   0.00000  Uiso   1.00
C852   C     0.74495   0.51430   0.93397   0.00000  Uiso   1.00
C853   C     0.73141   0.52044   0.98744   0.00000  Uiso   1.00
C854   C     0.76454   0.51243   0.51496   0.00000  Uiso   1.00
Cu855  Cu    0.78645   0.49999   0.75000   0.00000  Uiso   1.00
Cu856  Cu    0.88022   0.50001   0.75000   0.00000  Uiso   1.00
H857   H     0.94658   0.47005   0.58684   0.00000  Uiso   1.00
H858   H     0.76131   0.37297   0.80303   0.00000  Uiso   1.00
H859   H     0.93916   0.54321   0.81195   0.00000  Uiso   1.00
H860   H     0.69278   0.54308   0.81202   0.00000  Uiso   1.00
H861   H     0.72749   0.45674   0.68808   0.00000  Uiso   1.00
H862   H     0.97385   0.45682   0.68808   0.00000  Uiso   1.00
H863   H     0.93180   0.43645   0.91870   0.00000  Uiso   1.00
H864   H     0.80788   0.51886   0.58857   0.00000  Uiso   1.00
H865   H     0.71955   0.52333   0.91309   0.00000  Uiso   1.00
H866   H     0.75132   0.51849   0.55620   0.00000  Uiso   1.00
H867   H     0.69544   0.53274   0.50755   0.00000  Uiso   1.00
H868   H     0.87196   0.44758   0.87528   0.00000  Uiso   1.00
H869   H     0.90536   0.62705   0.69708   0.00000  Uiso   1.00
N870   N     0.71598   0.49999   0.74999   0.00000  Uiso   1.00
N871   N     0.95069   0.50002   0.75000   0.00000  Uiso   1.00
O872   O     0.79375   0.56011   0.75001   0.00000  Uiso   1.00
O873   O     0.87294   0.56012   0.75001   0.00000  Uiso   1.00
O874   O     0.77441   0.49998   0.82549   0.00000  Uiso   1.00
O875   O     0.85360   0.49999   0.82549   0.00000  Uiso   1.00
O876   O     0.79373   0.43988   0.75000   0.00000  Uiso   1.00
O877   O     0.87292   0.43989   0.75000   0.00000  Uiso   1.00
O878   O     0.81306   0.50001   0.67451   0.00000  Uiso   1.00
O879   O     0.89225   0.50002   0.67451   0.00000  Uiso   1.00
O880   O     0.91533   0.37178   0.68185   0.00000  Uiso   1.00
H881   H     0.90592   0.39895   0.67112   0.00000  Uiso   1.00
O882   O     0.75131   0.62824   0.81820   0.00000  Uiso   1.00
H883   H     0.76068   0.60103   0.82887   0.00000  Uiso   1.00
O884   O     0.97630   0.44967   0.99000   0.00000  Uiso   1.00
H885   H     0.98641   0.45797   0.95288   0.00000  Uiso   1.00
C886   C     0.16630   0.91256   0.75159   0.00000  Uiso   1.00
C887   C     0.14525   0.82966   0.98953   0.00000  Uiso   1.00
C888   C     0.15653   0.81891   0.93612   0.00000  Uiso   1.00
C889   C     0.18159   0.82350   0.51534   0.00000  Uiso   1.00
C890   C     0.22703   0.80410   0.98872   0.00000  Uiso   1.00
C891   C     0.23360   0.78833   0.93859   0.00000  Uiso   1.00
C892   C     0.19890   0.79532   0.91301   0.00000  Uiso   1.00
C893   C     0.17395   0.83608   0.56706   0.00000  Uiso   1.00
C894   C     0.25305   0.80966   0.56670   0.00000  Uiso   1.00
C895   C     0.12448   0.83125   0.90752   0.00000  Uiso   1.00
C896   C     0.20750   0.97772   0.72086   0.00000  Uiso   1.00
C897   C     0.14041   0.83162   0.85010   0.00000  Uiso   1.00
C898   C     0.20815   0.68704   0.71681   0.00000  Uiso   1.00
C899   C     0.16708   0.70949   0.74721   0.00000  Uiso   1.00
C900   C     0.12583   0.68897   0.77924   0.00000  Uiso   1.00
C901   C     0.12517   0.97964   0.78328   0.00000  Uiso   1.00
C902   C     0.16624   0.95719   0.75287   0.00000  Uiso   1.00
C903   C     0.29888   0.85730   0.78441   0.00000  Uiso   1.00
C904   C     0.01515   0.85724   0.78445   0.00000  Uiso   1.00
C905   C     0.03444   0.80935   0.71560   0.00000  Uiso   1.00
C906   C     0.31816   0.80937   0.71560   0.00000  Uiso   1.00
C907   C     0.16702   0.75411   0.74846   0.00000  Uiso   1.00
C908   C     0.19292   0.83267   0.64998   0.00000  Uiso   1.00
C909   C     0.26371   0.79909   0.51419   0.00000  Uiso   1.00
C910   C     0.20793   0.82733   0.59336   0.00000  Uiso   1.00
C911   C     0.07828   0.84763   0.93397   0.00000  Uiso   1.00
C912   C     0.06474   0.85378   0.98744   0.00000  Uiso   1.00
C913   C     0.09787   0.84577   0.51496   0.00000  Uiso   1.00
Cu914  Cu    0.11978   0.83333   0.75000   0.00000  Uiso   1.00
Cu915  Cu    0.21355   0.83334   0.75000   0.00000  Uiso   1.00
H916   H     0.27992   0.80338   0.58684   0.00000  Uiso   1.00
H917   H     0.09464   0.70631   0.80303   0.00000  Uiso   1.00
H918   H     0.27249   0.87654   0.81195   0.00000  Uiso   1.00
H919   H     0.02611   0.87641   0.81202   0.00000  Uiso   1.00
H920   H     0.06082   0.79008   0.68808   0.00000  Uiso   1.00
H921   H     0.30718   0.79016   0.68808   0.00000  Uiso   1.00
H922   H     0.26513   0.76978   0.91870   0.00000  Uiso   1.00
H923   H     0.14121   0.85219   0.58857   0.00000  Uiso   1.00
H924   H     0.05288   0.85666   0.91309   0.00000  Uiso   1.00
H925   H     0.08466   0.85182   0.55620   0.00000  Uiso   1.00
H926   H     0.02877   0.86607   0.50755   0.00000  Uiso   1.00
H927   H     0.20529   0.78092   0.87528   0.00000  Uiso   1.00
H928   H     0.23870   0.96038   0.69708   0.00000  Uiso   1.00
N929   N     0.04931   0.83332   0.74999   0.00000  Uiso   1.00
N930   N     0.28402   0.83335   0.75000   0.00000  Uiso   1.00
O931   O     0.12708   0.89345   0.75001   0.00000  Uiso   1.00
O932   O     0.20627   0.89346   0.75001   0.00000  Uiso   1.00
O933   O     0.10775   0.83332   0.82549   0.00000  Uiso   1.00
O934   O     0.18694   0.83333   0.82549   0.00000  Uiso   1.00
O935   O     0.12706   0.77321   0.75000   0.00000  Uiso   1.00
O936   O     0.20625   0.77322   0.75000   0.00000  Uiso   1.00
O937   O     0.14640   0.83334   0.67451   0.00000  Uiso   1.00
O938   O     0.22559   0.83335   0.67451   0.00000  Uiso   1.00
O939   O     0.24866   0.70511   0.68185   0.00000  Uiso   1.00
H940   H     0.23925   0.73229   0.67112   0.00000  Uiso   1.00
O941   O     0.08464   0.96157   0.81820   0.00000  Uiso   1.00
H942   H     0.09401   0.93436   0.82887   0.00000  Uiso   1.00
O943   O     0.30964   0.78301   0.99000   0.00000  Uiso   1.00
H944   H     0.31974   0.79130   0.95288   0.00000  Uiso   1.00
C945   C     0.49963   0.91256   0.75159   0.00000  Uiso   1.00
C946   C     0.47858   0.82966   0.98953   0.00000  Uiso   1.00
C947   C     0.48986   0.81891   0.93612   0.00000  Uiso   1.00
C948   C     0.51493   0.82350   0.51534   0.00000  Uiso   1.00
C949   C     0.56036   0.80410   0.98872   0.00000  Uiso   1.00
C950   C     0.56693   0.78833   0.93859   0.00000  Uiso   1.00
C951   C     0.53223   0.79532   0.91301   0.00000  Uiso   1.00
C952   C     0.50728   0.83608   0.56706   0.00000  Uiso   1.00
C953   C     0.58639   0.80966   0.56670   0.00000  Uiso   1.00
C954   C     0.45782   0.83125   0.90752   0.00000  Uiso   1.00
C955   C     0.54084   0.97772   0.72086   0.00000  Uiso   1.00
C956   C     0.47375   0.83162   0.85010   0.00000  Uiso   1.00
C957   C     0.54148   0.68704   0.71681   0.00000  Uiso   1.00
C958   C     0.50041   0.70949   0.74721   0.00000  Uiso   1.00
C959   C     0.45916   0.68897   0.77924   0.00000  Uiso   1.00
C960   C     0.45851   0.97964   0.78328   0.00000  Uiso   1.00
C961   C     0.49958   0.95719   0.75287   0.00000  Uiso   1.00
C962   C     0.63222   0.85730   0.78441   0.00000  Uiso   1.00
C963   C     0.34848   0.85724   0.78445   0.00000  Uiso   1.00
C964   C     0.36777   0.80935   0.71560   0.00000  Uiso   1.00
C965   C     0.65150   0.80937   0.71560   0.00000  Uiso   1.00
C966   C     0.50036   0.75411   0.74846   0.00000  Uiso   1.00
C967   C     0.52626   0.83267   0.64998   0.00000  Uiso   1.00
C968   C     0.59704   0.79909   0.51419   0.00000  Uiso   1.00
C969   C     0.54126   0.82733   0.59336   0.00000  Uiso   1.00
C970   C     0.41161   0.84763   0.93397   0.00000  Uiso   1.00
C971   C     0.39807   0.85378   0.98744   0.00000  Uiso   1.00
C972   C     0.43121   0.84577   0.51496   0.00000  Uiso   1.00
Cu973  Cu    0.45311   0.83333   0.75000   0.00000  Uiso   1.00
Cu974  Cu    0.54689   0.83334   0.75000   0.00000  Uiso   1.00
H975   H     0.61325   0.80338   0.58684   0.00000  Uiso   1.00
H976   H     0.42797   0.70631   0.80303   0.00000  Uiso   1.00
H977   H     0.60582   0.87654   0.81195   0.00000  Uiso   1.00
H978   H     0.35945   0.87641   0.81202   0.00000  Uiso   1.00
H979   H     0.39416   0.79008   0.68808   0.00000  Uiso   1.00
H980   H     0.64052   0.79016   0.68808   0.00000  Uiso   1.00
H981   H     0.59846   0.76978   0.91870   0.00000  Uiso   1.00
H982   H     0.47455   0.85219   0.58857   0.00000  Uiso   1.00
H983   H     0.38621   0.85666   0.91309   0.00000  Uiso   1.00
H984   H     0.41799   0.85182   0.55620   0.00000  Uiso   1.00
H985   H     0.36211   0.86607   0.50755   0.00000  Uiso   1.00
H986   H     0.53863   0.78092   0.87528   0.00000  Uiso   1.00
H987   H     0.57203   0.96038   0.69708   0.00000  Uiso   1.00
N988   N     0.38265   0.83332   0.74999   0.00000  Uiso   1.00
N989   N     0.61735   0.83335   0.75000   0.00000  Uiso   1.00
O990   O     0.46042   0.89345   0.75001   0.00000  Uiso   1.00
O991   O     0.53961   0.89346   0.75001   0.00000  Uiso   1.00
O992   O     0.44108   0.83332   0.82549   0.00000  Uiso   1.00
O993   O     0.52027   0.83333   0.82549   0.00000  Uiso   1.00
O994   O     0.46039   0.77321   0.75000   0.00000  Uiso   1.00
O995   O     0.53958   0.77322   0.75000   0.00000  Uiso   1.00
O996   O     0.47973   0.83334   0.67451   0.00000  Uiso   1.00
O997   O     0.55892   0.83335   0.67451   0.00000  Uiso   1.00
O998   O     0.58199   0.70511   0.68185   0.00000  Uiso   1.00
H999   H     0.57258   0.73229   0.67112   0.00000  Uiso   1.00
O1000  O     0.41797   0.96157   0.81820   0.00000  Uiso   1.00
H1001  H     0.42734   0.93436   0.82887   0.00000  Uiso   1.00
O1002  O     0.64297   0.78301   0.99000   0.00000  Uiso   1.00
H1003  H     0.65307   0.79130   0.95288   0.00000  Uiso   1.00
C1004  C     0.83296   0.91256   0.75159   0.00000  Uiso   1.00
C1005  C     0.81192   0.82966   0.98953   0.00000  Uiso   1.00
C1006  C     0.82319   0.81891   0.93612   0.00000  Uiso   1.00
C1007  C     0.84826   0.82350   0.51534   0.00000  Uiso   1.00
C1008  C     0.89370   0.80410   0.98872   0.00000  Uiso   1.00
C1009  C     0.90026   0.78833   0.93859   0.00000  Uiso   1.00
C1010  C     0.86557   0.79532   0.91301   0.00000  Uiso   1.00
C1011  C     0.84061   0.83608   0.56706   0.00000  Uiso   1.00
C1012  C     0.91972   0.80966   0.56670   0.00000  Uiso   1.00
C1013  C     0.79115   0.83125   0.90752   0.00000  Uiso   1.00
C1014  C     0.87417   0.97772   0.72086   0.00000  Uiso   1.00
C1015  C     0.80708   0.83162   0.85010   0.00000  Uiso   1.00
C1016  C     0.87481   0.68704   0.71681   0.00000  Uiso   1.00
C1017  C     0.83374   0.70949   0.74721   0.00000  Uiso   1.00
C1018  C     0.79249   0.68897   0.77924   0.00000  Uiso   1.00
C1019  C     0.79184   0.97964   0.78328   0.00000  Uiso   1.00
C1020  C     0.83291   0.95719   0.75287   0.00000  Uiso   1.00
C1021  C     0.96555   0.85730   0.78441   0.00000  Uiso   1.00
C1022  C     0.68181   0.85724   0.78445   0.00000  Uiso   1.00
C1023  C     0.70111   0.80935   0.71560   0.00000  Uiso   1.00
C1024  C     0.98483   0.80937   0.71560   0.00000  Uiso   1.00
C1025  C     0.83369   0.75411   0.74846   0.00000  Uiso   1.00
C1026  C     0.85959   0.83267   0.64998   0.00000  Uiso   1.00
C1027  C     0.93038   0.79909   0.51419   0.00000  Uiso   1.00
C1028  C     0.87459   0.82733   0.59336   0.00000  Uiso   1.00
C1029  C     0.74495   0.84763   0.93397   0.00000  Uiso   1.00
C1030  C     0.73141   0.85378   0.98744   0.00000  Uiso   1.00
C1031  C     0.76454   0.84577   0.51496   0.00000  Uiso   1.00
Cu1032 Cu    0.78645   0.83333   0.75000   0.00000  Uiso   1.00
Cu1033 Cu    0.88022   0.83334   0.75000   0.00000  Uiso   1.00
H1034  H     0.94658   0.80338   0.58684   0.00000  Uiso   1.00
H1035  H     0.76131   0.70631   0.80303   0.00000  Uiso   1.00
H1036  H     0.93916   0.87654   0.81195   0.00000  Uiso   1.00
H1037  H     0.69278   0.87641   0.81202   0.00000  Uiso   1.00
H1038  H     0.72749   0.79008   0.68808   0.00000  Uiso   1.00
H1039  H     0.97385   0.79016   0.68808   0.00000  Uiso   1.00
H1040  H     0.93180   0.76978   0.91870   0.00000  Uiso   1.00
H1041  H     0.80788   0.85219   0.58857   0.00000  Uiso   1.00
H1042  H     0.71955   0.85666   0.91309   0.00000  Uiso   1.00
H1043  H     0.75132   0.85182   0.55620   0.00000  Uiso   1.00
H1044  H     0.69544   0.86607   0.50755   0.00000  Uiso   1.00
H1045  H     0.87196   0.78092   0.87528   0.00000  Uiso   1.00
H1046  H     0.90536   0.96038   0.69708   0.00000  Uiso   1.00
N1047  N     0.71598   0.83332   0.74999   0.00000  Uiso   1.00
N1048  N     0.95069   0.83335   0.75000   0.00000  Uiso   1.00
O1049  O     0.79375   0.89345   0.75001   0.00000  Uiso   1.00
O1050  O     0.87294   0.89346   0.75001   0.00000  Uiso   1.00
O1051  O     0.77441   0.83332   0.82549   0.00000  Uiso   1.00
O1052  O     0.85360   0.83333   0.82549   0.00000  Uiso   1.00
O1053  O     0.79373   0.77321   0.75000   0.00000  Uiso   1.00
O1054  O     0.87292   0.77322   0.75000   0.00000  Uiso   1.00
O1055  O     0.81306   0.83334   0.67451   0.00000  Uiso   1.00
O1056  O     0.89225   0.83335   0.67451   0.00000  Uiso   1.00
O1057  O     0.91533   0.70511   0.68185   0.00000  Uiso   1.00
H1058  H     0.90592   0.73229   0.67112   0.00000  Uiso   1.00
O1059  O     0.75131   0.96157   0.81820   0.00000  Uiso   1.00
H1060  H     0.76068   0.93436   0.82887   0.00000  Uiso   1.00
O1061  O     0.97630   0.78301   0.99000   0.00000  Uiso   1.00
H1062  H     0.98641   0.79130   0.95288   0.00000  Uiso   1.00
loop_
_geom_bond_atom_site_label_1
_geom_bond_atom_site_label_2
_geom_bond_distance
_geom_bond_site_symmetry_2
_ccdc_geom_bond_type
C1     C17     1.446   .     S
C1     O46     1.290   .     A
C1     O47     1.289   .     A
C2     C3      1.417   .     A
C2     C535    1.426   .     S
C2     C559    1.420   .     S
C3     C10     1.420   .     A
C3     C7      1.409   .     A
C4     C8      1.401   .     A
C4     C533    1.426   1_554 S
C4     C536    1.426   1_554 S
C5     C6      1.399   .     A
C5     C535    1.426   .     S
C5     C555    1.423   .     S
C6     C7      1.385   .     A
C6     H37     1.081   .     S
C7     H42     1.081   .     S
C8     C25     1.392   .     A
C8     H38     1.076   .     S
C9     C24     1.394   .     A
C9     C25     1.396   .     A
C9     H31     1.084   .     S
C10    C26     1.402   .     A
C10    C12     1.472   .     S
C11    H43     1.085   .     S
C11    C17     1.399   .     A
C11    C190    1.386   .     S
C12    O48     1.297   .     A
C12    O49     1.295   .     A
C13    O54     1.381   .     S
C13    C14     1.413   .     A
C13    C365    1.386   1_545 S
C14    C22     1.446   .     S
C14    C15     1.399   .     A
C15    H32     1.085   .     S
C15    C370    1.386   1_545 S
C16    O56     1.381   .     S
C16    C17     1.414   .     A
C16    C192    1.386   .     S
C18    H33     1.082   .     S
C18    N45     1.367   .     A
C18    C78     1.417   .     S
C19    N44     1.367   .     A
C19    H34     1.082   .     S
C19    C136    1.417   1_455 S
C20    N44     1.368   .     A
C20    H35     1.082   .     S
C20    C139    1.417   1_455 S
C21    N45     1.367   .     A
C21    H36     1.082   .     S
C21    C79     1.417   .     S
C22    O50     1.289   .     A
C22    O51     1.290   .     A
C23    O52     1.294   .     A
C23    O53     1.295   .     A
C23    C25     1.462   .     S
C24    C536    1.423   1_554 S
C24    O589    1.380   1_554 S
C26    C27     1.386   .     A
C26    H39     1.083   .     S
C27    C559    1.391   .     S
C27    H572    1.083   .     S
C28    H40     1.076   .     S
C28    C558    1.391   1_554 S
C28    C533    1.420   1_554 S
Cu29   O46     1.958   .     S
Cu29   Cu30    2.678   .     S
Cu29   O50     1.959   .     S
Cu29   N44     2.012   .     S
Cu29   O48     1.954   .     S
Cu29   O52     1.941   .     S
Cu30   O51     1.958   .     S
Cu30   N45     2.012   .     S
Cu30   O49     1.941   .     S
Cu30   O47     1.959   .     S
Cu30   O53     1.954   .     S
H41    C558    1.083   1_554 S
O54    H55     0.990   .     S
O56    H57     0.990   .     S
O58    H59     0.989   .     S
O58    C555    1.380   .     S
C60    C76     1.446   .     S
C60    O105    1.290   .     A
C60    O106    1.289   .     A
C61    C62     1.417   .     A
C61    C594    1.426   .     S
C61    C618    1.420   .     S
C62    C69     1.420   .     A
C62    C66     1.409   .     A
C63    C67     1.401   .     A
C63    C592    1.426   1_554 S
C63    C595    1.426   1_554 S
C64    C65     1.399   .     A
C64    C594    1.426   .     S
C64    C614    1.423   .     S
C65    C66     1.385   .     A
C65    H96     1.081   .     S
C66    H101    1.081   .     S
C67    C84     1.392   .     A
C67    H97     1.076   .     S
C68    C83     1.394   .     A
C68    C84     1.396   .     A
C68    H90     1.084   .     S
C69    C85     1.402   .     A
C69    C71     1.472   .     S
C70    H102    1.085   .     S
C70    C76     1.399   .     A
C70    C249    1.386   .     S
C71    O107    1.297   .     A
C71    O108    1.295   .     A
C72    O113    1.381   .     S
C72    C73     1.413   .     A
C72    C424    1.386   1_545 S
C73    C81     1.446   .     S
C73    C74     1.399   .     A
C74    H91     1.085   .     S
C74    C429    1.386   1_545 S
C75    O115    1.381   .     S
C75    C76     1.414   .     A
C75    C251    1.386   .     S
C77    H92     1.082   .     S
C77    N104    1.367   .     A
C77    C137    1.417   .     S
C78    N103    1.367   .     A
C78    H93     1.082   .     S
C79    N103    1.368   .     A
C79    H94     1.082   .     S
C80    N104    1.367   .     A
C80    H95     1.082   .     S
C80    C138    1.417   .     S
C81    O109    1.289   .     A
C81    O110    1.290   .     A
C82    O111    1.294   .     A
C82    O112    1.295   .     A
C82    C84     1.462   .     S
C83    C595    1.423   1_554 S
C83    O648    1.380   1_554 S
C85    C86     1.386   .     A
C85    H98     1.083   .     S
C86    C618    1.391   .     S
C86    H631    1.083   .     S
C87    H99     1.076   .     S
C87    C617    1.391   1_554 S
C87    C592    1.420   1_554 S
Cu88   O105    1.958   .     S
Cu88   Cu89    2.678   .     S
Cu88   O109    1.959   .     S
Cu88   N103    2.012   .     S
Cu88   O107    1.954   .     S
Cu88   O111    1.941   .     S
Cu89   O110    1.958   .     S
Cu89   N104    2.012   .     S
Cu89   O108    1.941   .     S
Cu89   O106    1.959   .     S
Cu89   O112    1.954   .     S
H100   C617    1.083   1_554 S
O113   H114    0.990   .     S
O115   H116    0.990   .     S
O117   H118    0.989   .     S
O117   C614    1.380   .     S
C119   C135    1.446   .     S
C119   O164    1.290   .     A
C119   O165    1.289   .     A
C120   C121    1.417   .     A
C120   C653    1.426   .     S
C120   C677    1.420   .     S
C121   C128    1.420   .     A
C121   C125    1.409   .     A
C122   C126    1.401   .     A
C122   C651    1.426   1_554 S
C122   C654    1.426   1_554 S
C123   C124    1.399   .     A
C123   C653    1.426   .     S
C123   C673    1.423   .     S
C124   C125    1.385   .     A
C124   H155    1.081   .     S
C125   H160    1.081   .     S
C126   C143    1.392   .     A
C126   H156    1.076   .     S
C127   C142    1.394   .     A
C127   C143    1.396   .     A
C127   H149    1.084   .     S
C128   C144    1.402   .     A
C128   C130    1.472   .     S
C129   H161    1.085   .     S
C129   C135    1.399   .     A
C129   C308    1.386   .     S
C130   O166    1.297   .     A
C130   O167    1.295   .     A
C131   O172    1.381   .     S
C131   C132    1.413   .     A
C131   C483    1.386   1_545 S
C132   C140    1.446   .     S
C132   C133    1.399   .     A
C133   H150    1.085   .     S
C133   C488    1.386   1_545 S
C134   O174    1.381   .     S
C134   C135    1.414   .     A
C134   C310    1.386   .     S
C136   H151    1.082   .     S
C136   N163    1.367   .     A
C136   C19     1.417   1_655 S
C137   N162    1.367   .     A
C137   H152    1.082   .     S
C138   N162    1.368   .     A
C138   H153    1.082   .     S
C139   N163    1.367   .     A
C139   H154    1.082   .     S
C139   C20     1.417   1_655 S
C140   O168    1.289   .     A
C140   O169    1.290   .     A
C141   O170    1.294   .     A
C141   O171    1.295   .     A
C141   C143    1.462   .     S
C142   C654    1.423   1_554 S
C142   O707    1.380   1_554 S
C144   C145    1.386   .     A
C144   H157    1.083   .     S
C145   C677    1.391   .     S
C145   H690    1.083   .     S
C146   H158    1.076   .     S
C146   C676    1.391   1_554 S
C146   C651    1.420   1_554 S
Cu147  O164    1.958   .     S
Cu147  Cu148   2.678   .     S
Cu147  O168    1.959   .     S
Cu147  N162    2.012   .     S
Cu147  O166    1.954   .     S
Cu147  O170    1.941   .     S
Cu148  O169    1.958   .     S
Cu148  N163    2.012   .     S
Cu148  O167    1.941   .     S
Cu148  O165    1.959   .     S
Cu148  O171    1.954   .     S
H159   C676    1.083   1_554 S
O172   H173    0.990   .     S
O174   H175    0.990   .     S
O176   H177    0.989   .     S
O176   C673    1.380   .     S
C178   C194    1.446   .     S
C178   O223    1.290   .     A
C178   O224    1.289   .     A
C179   C180    1.417   .     A
C179   C712    1.426   .     S
C179   C736    1.420   .     S
C180   C187    1.420   .     A
C180   C184    1.409   .     A
C181   C185    1.401   .     A
C181   C710    1.426   1_554 S
C181   C713    1.426   1_554 S
C182   C183    1.399   .     A
C182   C712    1.426   .     S
C182   C732    1.423   .     S
C183   C184    1.385   .     A
C183   H214    1.081   .     S
C184   H219    1.081   .     S
C185   C202    1.392   .     A
C185   H215    1.076   .     S
C186   C201    1.394   .     A
C186   C202    1.396   .     A
C186   H208    1.084   .     S
C187   C203    1.402   .     A
C187   C189    1.472   .     S
C188   H220    1.085   .     S
C188   C194    1.399   .     A
C188   C367    1.386   .     S
C189   O225    1.297   .     A
C189   O226    1.295   .     A
C190   O231    1.381   .     S
C190   C191    1.413   .     A
C191   C199    1.446   .     S
C191   C192    1.399   .     A
C192   H209    1.085   .     S
C193   O233    1.381   .     S
C193   C194    1.414   .     A
C193   C369    1.386   .     S
C195   H210    1.082   .     S
C195   N222    1.367   .     A
C195   C255    1.417   .     S
C196   N221    1.367   .     A
C196   H211    1.082   .     S
C196   C313    1.417   1_455 S
C197   N221    1.368   .     A
C197   H212    1.082   .     S
C197   C316    1.417   1_455 S
C198   N222    1.367   .     A
C198   H213    1.082   .     S
C198   C256    1.417   .     S
C199   O227    1.289   .     A
C199   O228    1.290   .     A
C200   O229    1.294   .     A
C200   O230    1.295   .     A
C200   C202    1.462   .     S
C201   C713    1.423   1_554 S
C201   O766    1.380   1_554 S
C203   C204    1.386   .     A
C203   H216    1.083   .     S
C204   C736    1.391   .     S
C204   H749    1.083   .     S
C205   H217    1.076   .     S
C205   C735    1.391   1_554 S
C205   C710    1.420   1_554 S
Cu206  O223    1.958   .     S
Cu206  Cu207   2.678   .     S
Cu206  O227    1.959   .     S
Cu206  N221    2.012   .     S
Cu206  O225    1.954   .     S
Cu206  O229    1.941   .     S
Cu207  O228    1.958   .     S
Cu207  N222    2.012   .     S
Cu207  O226    1.941   .     S
Cu207  O224    1.959   .     S
Cu207  O230    1.954   .     S
H218   C735    1.083   1_554 S
O231   H232    0.990   .     S
O233   H234    0.990   .     S
O235   H236    0.989   .     S
O235   C732    1.380   .     S
C237   C253    1.446   .     S
C237   O282    1.290   .     A
C237   O283    1.289   .     A
C238   C239    1.417   .     A
C238   C771    1.426   .     S
C238   C795    1.420   .     S
C239   C246    1.420   .     A
C239   C243    1.409   .     A
C240   C244    1.401   .     A
C240   C769    1.426   1_554 S
C240   C772    1.426   1_554 S
C241   C242    1.399   .     A
C241   C771    1.426   .     S
C241   C791    1.423   .     S
C242   C243    1.385   .     A
C242   H273    1.081   .     S
C243   H278    1.081   .     S
C244   C261    1.392   .     A
C244   H274    1.076   .     S
C245   C260    1.394   .     A
C245   C261    1.396   .     A
C245   H267    1.084   .     S
C246   C262    1.402   .     A
C246   C248    1.472   .     S
C247   H279    1.085   .     S
C247   C253    1.399   .     A
C247   C426    1.386   .     S
C248   O284    1.297   .     A
C248   O285    1.295   .     A
C249   O290    1.381   .     S
C249   C250    1.413   .     A
C250   C258    1.446   .     S
C250   C251    1.399   .     A
C251   H268    1.085   .     S
C252   O292    1.381   .     S
C252   C253    1.414   .     A
C252   C428    1.386   .     S
C254   H269    1.082   .     S
C254   N281    1.367   .     A
C254   C314    1.417   .     S
C255   N280    1.367   .     A
C255   H270    1.082   .     S
C256   N280    1.368   .     A
C256   H271    1.082   .     S
C257   N281    1.367   .     A
C257   H272    1.082   .     S
C257   C315    1.417   .     S
C258   O286    1.289   .     A
C258   O287    1.290   .     A
C259   O288    1.294   .     A
C259   O289    1.295   .     A
C259   C261    1.462   .     S
C260   C772    1.423   1_554 S
C260   O825    1.380   1_554 S
C262   C263    1.386   .     A
C262   H275    1.083   .     S
C263   C795    1.391   .     S
C263   H808    1.083   .     S
C264   H276    1.076   .     S
C264   C794    1.391   1_554 S
C264   C769    1.420   1_554 S
Cu265  O282    1.958   .     S
Cu265  Cu266   2.678   .     S
Cu265  O286    1.959   .     S
Cu265  N280    2.012   .     S
Cu265  O284    1.954   .     S
Cu265  O288    1.941   .     S
Cu266  O287    1.958   .     S
Cu266  N281    2.012   .     S
Cu266  O285    1.941   .     S
Cu266  O283    1.959   .     S
Cu266  O289    1.954   .     S
H277   C794    1.083   1_554 S
O290   H291    0.990   .     S
O292   H293    0.990   .     S
O294   H295    0.989   .     S
O294   C791    1.380   .     S
C296   C312    1.446   .     S
C296   O341    1.290   .     A
C296   O342    1.289   .     A
C297   C298    1.417   .     A
C297   C830    1.426   .     S
C297   C854    1.420   .     S
C298   C305    1.420   .     A
C298   C302    1.409   .     A
C299   C303    1.401   .     A
C299   C828    1.426   1_554 S
C299   C831    1.426   1_554 S
C300   C301    1.399   .     A
C300   C830    1.426   .     S
C300   C850    1.423   .     S
C301   C302    1.385   .     A
C301   H332    1.081   .     S
C302   H337    1.081   .     S
C303   C320    1.392   .     A
C303   H333    1.076   .     S
C304   C319    1.394   .     A
C304   C320    1.396   .     A
C304   H326    1.084   .     S
C305   C321    1.402   .     A
C305   C307    1.472   .     S
C306   H338    1.085   .     S
C306   C312    1.399   .     A
C306   C485    1.386   .     S
C307   O343    1.297   .     A
C307   O344    1.295   .     A
C308   O349    1.381   .     S
C308   C309    1.413   .     A
C309   C317    1.446   .     S
C309   C310    1.399   .     A
C310   H327    1.085   .     S
C311   O351    1.381   .     S
C311   C312    1.414   .     A
C311   C487    1.386   .     S
C313   H328    1.082   .     S
C313   N340    1.367   .     A
C313   C196    1.417   1_655 S
C314   N339    1.367   .     A
C314   H329    1.082   .     S
C315   N339    1.368   .     A
C315   H330    1.082   .     S
C316   N340    1.367   .     A
C316   H331    1.082   .     S
C316   C197    1.417   1_655 S
C317   O345    1.289   .     A
C317   O346    1.290   .     A
C318   O347    1.294   .     A
C318   O348    1.295   .     A
C318   C320    1.462   .     S
C319   C831    1.423   1_554 S
C319   O884    1.380   1_554 S
C321   C322    1.386   .     A
C321   H334    1.083   .     S
C322   C854    1.391   .     S
C322   H867    1.083   .     S
C323   H335    1.076   .     S
C323   C853    1.391   1_554 S
C323   C828    1.420   1_554 S
Cu324  O341    1.958   .     S
Cu324  Cu325   2.678   .     S
Cu324  O345    1.959   .     S
Cu324  N339    2.012   .     S
Cu324  O343    1.954   .     S
Cu324  O347    1.941   .     S
Cu325  O346    1.958   .     S
Cu325  N340    2.012   .     S
Cu325  O344    1.941   .     S
Cu325  O342    1.959   .     S
Cu325  O348    1.954   .     S
H336   C853    1.083   1_554 S
O349   H350    0.990   .     S
O351   H352    0.990   .     S
O353   H354    0.989   .     S
O353   C850    1.380   .     S
C355   C371    1.446   .     S
C355   O400    1.290   .     A
C355   O401    1.289   .     A
C356   C357    1.417   .     A
C356   C889    1.426   .     S
C356   C913    1.420   .     S
C357   C364    1.420   .     A
C357   C361    1.409   .     A
C358   C362    1.401   .     A
C358   C887    1.426   1_554 S
C358   C890    1.426   1_554 S
C359   C360    1.399   .     A
C359   C889    1.426   .     S
C359   C909    1.423   .     S
C360   C361    1.385   .     A
C360   H391    1.081   .     S
C361   H396    1.081   .     S
C362   C379    1.392   .     A
C362   H392    1.076   .     S
C363   C378    1.394   .     A
C363   C379    1.396   .     A
C363   H385    1.084   .     S
C364   C380    1.402   .     A
C364   C366    1.472   .     S
C365   H397    1.085   .     S
C365   C371    1.399   .     A
C365   C13     1.386   1_565 S
C366   O402    1.297   .     A
C366   O403    1.295   .     A
C367   O408    1.381   .     S
C367   C368    1.413   .     A
C368   C376    1.446   .     S
C368   C369    1.399   .     A
C369   H386    1.085   .     S
C370   O410    1.381   .     S
C370   C371    1.414   .     A
C370   C15     1.386   1_565 S
C372   H387    1.082   .     S
C372   N399    1.367   .     A
C372   C432    1.417   .     S
C373   N398    1.367   .     A
C373   H388    1.082   .     S
C373   C490    1.417   1_455 S
C374   N398    1.368   .     A
C374   H389    1.082   .     S
C374   C493    1.417   1_455 S
C375   N399    1.367   .     A
C375   H390    1.082   .     S
C375   C433    1.417   .     S
C376   O404    1.289   .     A
C376   O405    1.290   .     A
C377   O406    1.294   .     A
C377   O407    1.295   .     A
C377   C379    1.462   .     S
C378   C890    1.423   1_554 S
C378   O943    1.380   1_554 S
C380   C381    1.386   .     A
C380   H393    1.083   .     S
C381   C913    1.391   .     S
C381   H926    1.083   .     S
C382   H394    1.076   .     S
C382   C912    1.391   1_554 S
C382   C887    1.420   1_554 S
Cu383  O400    1.958   .     S
Cu383  Cu384   2.678   .     S
Cu383  O404    1.959   .     S
Cu383  N398    2.012   .     S
Cu383  O402    1.954   .     S
Cu383  O406    1.941   .     S
Cu384  O405    1.958   .     S
Cu384  N399    2.012   .     S
Cu384  O403    1.941   .     S
Cu384  O401    1.959   .     S
Cu384  O407    1.954   .     S
H395   C912    1.083   1_554 S
O408   H409    0.990   .     S
O410   H411    0.990   .     S
O412   H413    0.989   .     S
O412   C909    1.380   .     S
C414   C430    1.446   .     S
C414   O459    1.290   .     A
C414   O460    1.289   .     A
C415   C416    1.417   .     A
C415   C948    1.426   .     S
C415   C972    1.420   .     S
C416   C423    1.420   .     A
C416   C420    1.409   .     A
C417   C421    1.401   .     A
C417   C946    1.426   1_554 S
C417   C949    1.426   1_554 S
C418   C419    1.399   .     A
C418   C948    1.426   .     S
C418   C968    1.423   .     S
C419   C420    1.385   .     A
C419   H450    1.081   .     S
C420   H455    1.081   .     S
C421   C438    1.392   .     A
C421   H451    1.076   .     S
C422   C437    1.394   .     A
C422   C438    1.396   .     A
C422   H444    1.084   .     S
C423   C439    1.402   .     A
C423   C425    1.472   .     S
C424   H456    1.085   .     S
C424   C430    1.399   .     A
C424   C72     1.386   1_565 S
C425   O461    1.297   .     A
C425   O462    1.295   .     A
C426   O467    1.381   .     S
C426   C427    1.413   .     A
C427   C435    1.446   .     S
C427   C428    1.399   .     A
C428   H445    1.085   .     S
C429   O469    1.381   .     S
C429   C430    1.414   .     A
C429   C74     1.386   1_565 S
C431   H446    1.082   .     S
C431   N458    1.367   .     A
C431   C491    1.417   .     S
C432   N457    1.367   .     A
C432   H447    1.082   .     S
C433   N457    1.368   .     A
C433   H448    1.082   .     S
C434   N458    1.367   .     A
C434   H449    1.082   .     S
C434   C492    1.417   .     S
C435   O463    1.289   .     A
C435   O464    1.290   .     A
C436   O465    1.294   .     A
C436   O466    1.295   .     A
C436   C438    1.462   .     S
C437   C949    1.423   1_554 S
C437   O1002   1.380   1_554 S
C439   C440    1.386   .     A
C439   H452    1.083   .     S
C440   C972    1.391   .     S
C440   H985    1.083   .     S
C441   H453    1.076   .     S
C441   C971    1.391   1_554 S
C441   C946    1.420   1_554 S
Cu442  O459    1.958   .     S
Cu442  Cu443   2.678   .     S
Cu442  O463    1.959   .     S
Cu442  N457    2.012   .     S
Cu442  O461    1.954   .     S
Cu442  O465    1.941   .     S
Cu443  O464    1.958   .     S
Cu443  N458    2.012   .     S
Cu443  O462    1.941   .     S
Cu443  O460    1.959   .     S
Cu443  O466    1.954   .     S
H454   C971    1.083   1_554 S
O467   H468    0.990   .     S
O469   H470    0.990   .     S
O471   H472    0.989   .     S
O471   C968    1.380   .     S
C473   C489    1.446   .     S
C473   O518    1.290   .     A
C473   O519    1.289   .     A
C474   C475    1.417   .     A
C474   C1007   1.426   .     S
C474   C1031   1.420   .     S
C475   C482    1.420   .     A
C475   C479    1.409   .     A
C476   C480    1.401   .     A
C476   C1005   1.426   1_554 S
C476   C1008   1.426   1_554 S
C477   C478    1.399   .     A
C477   C1007   1.426   .     S
C477   C1027   1.423   .     S
C478   C479    1.385   .     A
C478   H509    1.081   .     S
C479   H514    1.081   .     S
C480   C497    1.392   .     A
C480   H510    1.076   .     S
C481   C496    1.394   .     A
C481   C497    1.396   .     A
C481   H503    1.084   .     S
C482   C498    1.402   .     A
C482   C484    1.472   .     S
C483   H515    1.085   .     S
C483   C489    1.399   .     A
C483   C131    1.386   1_565 S
C484   O520    1.297   .     A
C484   O521    1.295   .     A
C485   O526    1.381   .     S
C485   C486    1.413   .     A
C486   C494    1.446   .     S
C486   C487    1.399   .     A
C487   H504    1.085   .     S
C488   O528    1.381   .     S
C488   C489    1.414   .     A
C488   C133    1.386   1_565 S
C490   H505    1.082   .     S
C490   N517    1.367   .     A
C490   C373    1.417   1_655 S
C491   N516    1.367   .     A
C491   H506    1.082   .     S
C492   N516    1.368   .     A
C492   H507    1.082   .     S
C493   N517    1.367   .     A
C493   H508    1.082   .     S
C493   C374    1.417   1_655 S
C494   O522    1.289   .     A
C494   O523    1.290   .     A
C495   O524    1.294   .     A
C495   O525    1.295   .     A
C495   C497    1.462   .     S
C496   C1008   1.423   1_554 S
C496   O1061   1.380   1_554 S
C498   C499    1.386   .     A
C498   H511    1.083   .     S
C499   C1031   1.391   .     S
C499   H1044   1.083   .     S
C500   H512    1.076   .     S
C500   C1030   1.391   1_554 S
C500   C1005   1.420   1_554 S
Cu501  O518    1.958   .     S
Cu501  Cu502   2.678   .     S
Cu501  O522    1.959   .     S
Cu501  N516    2.012   .     S
Cu501  O520    1.954   .     S
Cu501  O524    1.941   .     S
Cu502  O523    1.958   .     S
Cu502  N517    2.012   .     S
Cu502  O521    1.941   .     S
Cu502  O519    1.959   .     S
Cu502  O525    1.954   .     S
H513   C1030   1.083   1_554 S
O526   H527    0.990   .     S
O528   H529    0.990   .     S
O530   H531    0.989   .     S
O530   C1027   1.380   .     S
C532   C548    1.446   .     S
C532   O577    1.290   .     A
C532   O578    1.289   .     A
C533   C534    1.417   .     A
C533   C4      1.426   1_556 S
C533   C28     1.420   1_556 S
C534   C541    1.420   .     A
C534   C538    1.409   .     A
C535   C539    1.401   .     A
C536   C537    1.399   .     A
C536   C4      1.426   1_556 S
C536   C24     1.423   1_556 S
C537   C538    1.385   .     A
C537   H568    1.081   .     S
C538   H573    1.081   .     S
C539   C556    1.392   .     A
C539   H569    1.076   .     S
C540   C555    1.394   .     A
C540   C556    1.396   .     A
C540   H562    1.084   .     S
C541   C557    1.402   .     A
C541   C543    1.472   .     S
C542   H574    1.085   .     S
C542   C548    1.399   .     A
C542   C721    1.386   .     S
C543   O579    1.297   .     A
C543   O580    1.295   .     A
C544   O585    1.381   .     S
C544   C545    1.413   .     A
C544   C896    1.386   1_545 S
C545   C553    1.446   .     S
C545   C546    1.399   .     A
C546   H563    1.085   .     S
C546   C901    1.386   1_545 S
C547   O587    1.381   .     S
C547   C548    1.414   .     A
C547   C723    1.386   .     S
C549   H564    1.082   .     S
C549   N576    1.367   .     A
C549   C609    1.417   .     S
C550   N575    1.367   .     A
C550   H565    1.082   .     S
C550   C667    1.417   1_455 S
C551   N575    1.368   .     A
C551   H566    1.082   .     S
C551   C670    1.417   1_455 S
C552   N576    1.367   .     A
C552   H567    1.082   .     S
C552   C610    1.417   .     S
C553   O581    1.289   .     A
C553   O582    1.290   .     A
C554   O583    1.294   .     A
C554   O584    1.295   .     A
C554   C556    1.462   .     S
C557   C558    1.386   .     A
C557   H570    1.083   .     S
C558   C28     1.391   1_556 S
C558   H41     1.083   1_556 S
C559   H571    1.076   .     S
Cu560  O577    1.958   .     S
Cu560  Cu561   2.678   .     S
Cu560  O581    1.959   .     S
Cu560  N575    2.012   .     S
Cu560  O579    1.954   .     S
Cu560  O583    1.941   .     S
Cu561  O582    1.958   .     S
Cu561  N576    2.012   .     S
Cu561  O580    1.941   .     S
Cu561  O578    1.959   .     S
Cu561  O584    1.954   .     S
O585   H586    0.990   .     S
O587   H588    0.990   .     S
O589   H590    0.989   .     S
O589   C24     1.380   1_556 S
C591   C607    1.446   .     S
C591   O636    1.290   .     A
C591   O637    1.289   .     A
C592   C593    1.417   .     A
C592   C63     1.426   1_556 S
C592   C87     1.420   1_556 S
C593   C600    1.420   .     A
C593   C597    1.409   .     A
C594   C598    1.401   .     A
C595   C596    1.399   .     A
C595   C63     1.426   1_556 S
C595   C83     1.423   1_556 S
C596   C597    1.385   .     A
C596   H627    1.081   .     S
C597   H632    1.081   .     S
C598   C615    1.392   .     A
C598   H628    1.076   .     S
C599   C614    1.394   .     A
C599   C615    1.396   .     A
C599   H621    1.084   .     S
C600   C616    1.402   .     A
C600   C602    1.472   .     S
C601   H633    1.085   .     S
C601   C607    1.399   .     A
C601   C780    1.386   .     S
C602   O638    1.297   .     A
C602   O639    1.295   .     A
C603   O644    1.381   .     S
C603   C604    1.413   .     A
C603   C955    1.386   1_545 S
C604   C612    1.446   .     S
C604   C605    1.399   .     A
C605   H622    1.085   .     S
C605   C960    1.386   1_545 S
C606   O646    1.381   .     S
C606   C607    1.414   .     A
C606   C782    1.386   .     S
C608   H623    1.082   .     S
C608   N635    1.367   .     A
C608   C668    1.417   .     S
C609   N634    1.367   .     A
C609   H624    1.082   .     S
C610   N634    1.368   .     A
C610   H625    1.082   .     S
C611   N635    1.367   .     A
C611   H626    1.082   .     S
C611   C669    1.417   .     S
C612   O640    1.289   .     A
C612   O641    1.290   .     A
C613   O642    1.294   .     A
C613   O643    1.295   .     A
C613   C615    1.462   .     S
C616   C617    1.386   .     A
C616   H629    1.083   .     S
C617   C87     1.391   1_556 S
C617   H100    1.083   1_556 S
C618   H630    1.076   .     S
Cu619  O636    1.958   .     S
Cu619  Cu620   2.678   .     S
Cu619  O640    1.959   .     S
Cu619  N634    2.012   .     S
Cu619  O638    1.954   .     S
Cu619  O642    1.941   .     S
Cu620  O641    1.958   .     S
Cu620  N635    2.012   .     S
Cu620  O639    1.941   .     S
Cu620  O637    1.959   .     S
Cu620  O643    1.954   .     S
O644   H645    0.990   .     S
O646   H647    0.990   .     S
O648   H649    0.989   .     S
O648   C83     1.380   1_556 S
C650   C666    1.446   .     S
C650   O695    1.290   .     A
C650   O696    1.289   .     A
C651   C652    1.417   .     A
C651   C122    1.426   1_556 S
C651   C146    1.420   1_556 S
C652   C659    1.420   .     A
C652   C656    1.409   .     A
C653   C657    1.401   .     A
C654   C655    1.399   .     A
C654   C122    1.426   1_556 S
C654   C142    1.423   1_556 S
C655   C656    1.385   .     A
C655   H686    1.081   .     S
C656   H691    1.081   .     S
C657   C674    1.392   .     A
C657   H687    1.076   .     S
C658   C673    1.394   .     A
C658   C674    1.396   .     A
C658   H680    1.084   .     S
C659   C675    1.402   .     A
C659   C661    1.472   .     S
C660   H692    1.085   .     S
C660   C666    1.399   .     A
C660   C839    1.386   .     S
C661   O697    1.297   .     A
C661   O698    1.295   .     A
C662   O703    1.381   .     S
C662   C663    1.413   .     A
C662   C1014   1.386   1_545 S
C663   C671    1.446   .     S
C663   C664    1.399   .     A
C664   H681    1.085   .     S
C664   C1019   1.386   1_545 S
C665   O705    1.381   .     S
C665   C666    1.414   .     A
C665   C841    1.386   .     S
C667   H682    1.082   .     S
C667   N694    1.367   .     A
C667   C550    1.417   1_655 S
C668   N693    1.367   .     A
C668   H683    1.082   .     S
C669   N693    1.368   .     A
C669   H684    1.082   .     S
C670   N694    1.367   .     A
C670   H685    1.082   .     S
C670   C551    1.417   1_655 S
C671   O699    1.289   .     A
C671   O700    1.290   .     A
C672   O701    1.294   .     A
C672   O702    1.295   .     A
C672   C674    1.462   .     S
C675   C676    1.386   .     A
C675   H688    1.083   .     S
C676   C146    1.391   1_556 S
C676   H159    1.083   1_556 S
C677   H689    1.076   .     S
Cu678  O695    1.958   .     S
Cu678  Cu679   2.678   .     S
Cu678  O699    1.959   .     S
Cu678  N693    2.012   .     S
Cu678  O697    1.954   .     S
Cu678  O701    1.941   .     S
Cu679  O700    1.958   .     S
Cu679  N694    2.012   .     S
Cu679  O698    1.941   .     S
Cu679  O696    1.959   .     S
Cu679  O702    1.954   .     S
O703   H704    0.990   .     S
O705   H706    0.990   .     S
O707   H708    0.989   .     S
O707   C142    1.380   1_556 S
C709   C725    1.446   .     S
C709   O754    1.290   .     A
C709   O755    1.289   .     A
C710   C711    1.417   .     A
C710   C181    1.426   1_556 S
C710   C205    1.420   1_556 S
C711   C718    1.420   .     A
C711   C715    1.409   .     A
C712   C716    1.401   .     A
C713   C714    1.399   .     A
C713   C181    1.426   1_556 S
C713   C201    1.423   1_556 S
C714   C715    1.385   .     A
C714   H745    1.081   .     S
C715   H750    1.081   .     S
C716   C733    1.392   .     A
C716   H746    1.076   .     S
C717   C732    1.394   .     A
C717   C733    1.396   .     A
C717   H739    1.084   .     S
C718   C734    1.402   .     A
C718   C720    1.472   .     S
C719   H751    1.085   .     S
C719   C725    1.399   .     A
C719   C898    1.386   .     S
C720   O756    1.297   .     A
C720   O757    1.295   .     A
C721   O762    1.381   .     S
C721   C722    1.413   .     A
C722   C730    1.446   .     S
C722   C723    1.399   .     A
C723   H740    1.085   .     S
C724   O764    1.381   .     S
C724   C725    1.414   .     A
C724   C900    1.386   .     S
C726   H741    1.082   .     S
C726   N753    1.367   .     A
C726   C786    1.417   .     S
C727   N752    1.367   .     A
C727   H742    1.082   .     S
C727   C844    1.417   1_455 S
C728   N752    1.368   .     A
C728   H743    1.082   .     S
C728   C847    1.417   1_455 S
C729   N753    1.367   .     A
C729   H744    1.082   .     S
C729   C787    1.417   .     S
C730   O758    1.289   .     A
C730   O759    1.290   .     A
C731   O760    1.294   .     A
C731   O761    1.295   .     A
C731   C733    1.462   .     S
C734   C735    1.386   .     A
C734   H747    1.083   .     S
C735   C205    1.391   1_556 S
C735   H218    1.083   1_556 S
C736   H748    1.076   .     S
Cu737  O754    1.958   .     S
Cu737  Cu738   2.678   .     S
Cu737  O758    1.959   .     S
Cu737  N752    2.012   .     S
Cu737  O756    1.954   .     S
Cu737  O760    1.941   .     S
Cu738  O759    1.958   .     S
Cu738  N753    2.012   .     S
Cu738  O757    1.941   .     S
Cu738  O755    1.959   .     S
Cu738  O761    1.954   .     S
O762   H763    0.990   .     S
O764   H765    0.990   .     S
O766   H767    0.989   .     S
O766   C201    1.380   1_556 S
C768   C784    1.446   .     S
C768   O813    1.290   .     A
C768   O814    1.289   .     A
C769   C770    1.417   .     A
C769   C240    1.426   1_556 S
C769   C264    1.420   1_556 S
C770   C777    1.420   .     A
C770   C774    1.409   .     A
C771   C775    1.401   .     A
C772   C773    1.399   .     A
C772   C240    1.426   1_556 S
C772   C260    1.423   1_556 S
C773   C774    1.385   .     A
C773   H804    1.081   .     S
C774   H809    1.081   .     S
C775   C792    1.392   .     A
C775   H805    1.076   .     S
C776   C791    1.394   .     A
C776   C792    1.396   .     A
C776   H798    1.084   .     S
C777   C793    1.402   .     A
C777   C779    1.472   .     S
C778   H810    1.085   .     S
C778   C784    1.399   .     A
C778   C957    1.386   .     S
C779   O815    1.297   .     A
C779   O816    1.295   .     A
C780   O821    1.381   .     S
C780   C781    1.413   .     A
C781   C789    1.446   .     S
C781   C782    1.399   .     A
C782   H799    1.085   .     S
C783   O823    1.381   .     S
C783   C784    1.414   .     A
C783   C959    1.386   .     S
C785   H800    1.082   .     S
C785   N812    1.367   .     A
C785   C845    1.417   .     S
C786   N811    1.367   .     A
C786   H801    1.082   .     S
C787   N811    1.368   .     A
C787   H802    1.082   .     S
C788   N812    1.367   .     A
C788   H803    1.082   .     S
C788   C846    1.417   .     S
C789   O817    1.289   .     A
C789   O818    1.290   .     A
C790   O819    1.294   .     A
C790   O820    1.295   .     A
C790   C792    1.462   .     S
C793   C794    1.386   .     A
C793   H806    1.083   .     S
C794   C264    1.391   1_556 S
C794   H277    1.083   1_556 S
C795   H807    1.076   .     S
Cu796  O813    1.958   .     S
Cu796  Cu797   2.678   .     S
Cu796  O817    1.959   .     S
Cu796  N811    2.012   .     S
Cu796  O815    1.954   .     S
Cu796  O819    1.941   .     S
Cu797  O818    1.958   .     S
Cu797  N812    2.012   .     S
Cu797  O816    1.941   .     S
Cu797  O814    1.959   .     S
Cu797  O820    1.954   .     S
O821   H822    0.990   .     S
O823   H824    0.990   .     S
O825   H826    0.989   .     S
O825   C260    1.380   1_556 S
C827   C843    1.446   .     S
C827   O872    1.290   .     A
C827   O873    1.289   .     A
C828   C829    1.417   .     A
C828   C299    1.426   1_556 S
C828   C323    1.420   1_556 S
C829   C836    1.420   .     A
C829   C833    1.409   .     A
C830   C834    1.401   .     A
C831   C832    1.399   .     A
C831   C299    1.426   1_556 S
C831   C319    1.423   1_556 S
C832   C833    1.385   .     A
C832   H863    1.081   .     S
C833   H868    1.081   .     S
C834   C851    1.392   .     A
C834   H864    1.076   .     S
C835   C850    1.394   .     A
C835   C851    1.396   .     A
C835   H857    1.084   .     S
C836   C852    1.402   .     A
C836   C838    1.472   .     S
C837   H869    1.085   .     S
C837   C843    1.399   .     A
C837   C1016   1.386   .     S
C838   O874    1.297   .     A
C838   O875    1.295   .     A
C839   O880    1.381   .     S
C839   C840    1.413   .     A
C840   C848    1.446   .     S
C840   C841    1.399   .     A
C841   H858    1.085   .     S
C842   O882    1.381   .     S
C842   C843    1.414   .     A
C842   C1018   1.386   .     S
C844   H859    1.082   .     S
C844   N871    1.367   .     A
C844   C727    1.417   1_655 S
C845   N870    1.367   .     A
C845   H860    1.082   .     S
C846   N870    1.368   .     A
C846   H861    1.082   .     S
C847   N871    1.367   .     A
C847   H862    1.082   .     S
C847   C728    1.417   1_655 S
C848   O876    1.289   .     A
C848   O877    1.290   .     A
C849   O878    1.294   .     A
C849   O879    1.295   .     A
C849   C851    1.462   .     S
C852   C853    1.386   .     A
C852   H865    1.083   .     S
C853   C323    1.391   1_556 S
C853   H336    1.083   1_556 S
C854   H866    1.076   .     S
Cu855  O872    1.958   .     S
Cu855  Cu856   2.678   .     S
Cu855  O876    1.959   .     S
Cu855  N870    2.012   .     S
Cu855  O874    1.954   .     S
Cu855  O878    1.941   .     S
Cu856  O877    1.958   .     S
Cu856  N871    2.012   .     S
Cu856  O875    1.941   .     S
Cu856  O873    1.959   .     S
Cu856  O879    1.954   .     S
O880   H881    0.990   .     S
O882   H883    0.990   .     S
O884   H885    0.989   .     S
O884   C319    1.380   1_556 S
C886   C902    1.446   .     S
C886   O931    1.290   .     A
C886   O932    1.289   .     A
C887   C888    1.417   .     A
C887   C358    1.426   1_556 S
C887   C382    1.420   1_556 S
C888   C895    1.420   .     A
C888   C892    1.409   .     A
C889   C893    1.401   .     A
C890   C891    1.399   .     A
C890   C358    1.426   1_556 S
C890   C378    1.423   1_556 S
C891   C892    1.385   .     A
C891   H922    1.081   .     S
C892   H927    1.081   .     S
C893   C910    1.392   .     A
C893   H923    1.076   .     S
C894   C909    1.394   .     A
C894   C910    1.396   .     A
C894   H916    1.084   .     S
C895   C911    1.402   .     A
C895   C897    1.472   .     S
C896   H928    1.085   .     S
C896   C902    1.399   .     A
C896   C544    1.386   1_565 S
C897   O933    1.297   .     A
C897   O934    1.295   .     A
C898   O939    1.381   .     S
C898   C899    1.413   .     A
C899   C907    1.446   .     S
C899   C900    1.399   .     A
C900   H917    1.085   .     S
C901   O941    1.381   .     S
C901   C902    1.414   .     A
C901   C546    1.386   1_565 S
C903   H918    1.082   .     S
C903   N930    1.367   .     A
C903   C963    1.417   .     S
C904   N929    1.367   .     A
C904   H919    1.082   .     S
C904   C1021   1.417   1_455 S
C905   N929    1.368   .     A
C905   H920    1.082   .     S
C905   C1024   1.417   1_455 S
C906   N930    1.367   .     A
C906   H921    1.082   .     S
C906   C964    1.417   .     S
C907   O935    1.289   .     A
C907   O936    1.290   .     A
C908   O937    1.294   .     A
C908   O938    1.295   .     A
C908   C910    1.462   .     S
C911   C912    1.386   .     A
C911   H924    1.083   .     S
C912   C382    1.391   1_556 S
C912   H395    1.083   1_556 S
C913   H925    1.076   .     S
Cu914  O931    1.958   .     S
Cu914  Cu915   2.678   .     S
Cu914  O935    1.959   .     S
Cu914  N929    2.012   .     S
Cu914  O933    1.954   .     S
Cu914  O937    1.941   .     S
Cu915  O936    1.958   .     S
Cu915  N930    2.012   .     S
Cu915  O934    1.941   .     S
Cu915  O932    1.959   .     S
Cu915  O938    1.954   .     S
O939   H940    0.990   .     S
O941   H942    0.990   .     S
O943   H944    0.989   .     S
O943   C378    1.380   1_556 S
C945   C961    1.446   .     S
C945   O990    1.290   .     A
C945   O991    1.289   .     A
C946   C947    1.417   .     A
C946   C417    1.426   1_556 S
C946   C441    1.420   1_556 S
C947   C954    1.420   .     A
C947   C951    1.409   .     A
C948   C952    1.401   .     A
C949   C950    1.399   .     A
C949   C417    1.426   1_556 S
C949   C437    1.423   1_556 S
C950   C951    1.385   .     A
C950   H981    1.081   .     S
C951   H986    1.081   .     S
C952   C969    1.392   .     A
C952   H982    1.076   .     S
C953   C968    1.394   .     A
C953   C969    1.396   .     A
C953   H975    1.084   .     S
C954   C970    1.402   .     A
C954   C956    1.472   .     S
C955   H987    1.085   .     S
C955   C961    1.399   .     A
C955   C603    1.386   1_565 S
C956   O992    1.297   .     A
C956   O993    1.295   .     A
C957   O998    1.381   .     S
C957   C958    1.413   .     A
C958   C966    1.446   .     S
C958   C959    1.399   .     A
C959   H976    1.085   .     S
C960   O1000   1.381   .     S
C960   C961    1.414   .     A
C960   C605    1.386   1_565 S
C962   H977    1.082   .     S
C962   N989    1.367   .     A
C962   C1022   1.417   .     S
C963   N988    1.367   .     A
C963   H978    1.082   .     S
C964   N988    1.368   .     A
C964   H979    1.082   .     S
C965   N989    1.367   .     A
C965   H980    1.082   .     S
C965   C1023   1.417   .     S
C966   O994    1.289   .     A
C966   O995    1.290   .     A
C967   O996    1.294   .     A
C967   O997    1.295   .     A
C967   C969    1.462   .     S
C970   C971    1.386   .     A
C970   H983    1.083   .     S
C971   C441    1.391   1_556 S
C971   H454    1.083   1_556 S
C972   H984    1.076   .     S
Cu973  O990    1.958   .     S
Cu973  Cu974   2.678   .     S
Cu973  O994    1.959   .     S
Cu973  N988    2.012   .     S
Cu973  O992    1.954   .     S
Cu973  O996    1.941   .     S
Cu974  O995    1.958   .     S
Cu974  N989    2.012   .     S
Cu974  O993    1.941   .     S
Cu974  O991    1.959   .     S
Cu974  O997    1.954   .     S
O998   H999    0.990   .     S
O1000  H1001   0.990   .     S
O1002  H1003   0.989   .     S
O1002  C437    1.380   1_556 S
C1004  C1020   1.446   .     S
C1004  O1049   1.290   .     A
C1004  O1050   1.289   .     A
C1005  C1006   1.417   .     A
C1005  C476    1.426   1_556 S
C1005  C500    1.420   1_556 S
C1006  C1013   1.420   .     A
C1006  C1010   1.409   .     A
C1007  C1011   1.401   .     A
C1008  C1009   1.399   .     A
C1008  C476    1.426   1_556 S
C1008  C496    1.423   1_556 S
C1009  C1010   1.385   .     A
C1009  H1040   1.081   .     S
C1010  H1045   1.081   .     S
C1011  C1028   1.392   .     A
C1011  H1041   1.076   .     S
C1012  C1027   1.394   .     A
C1012  C1028   1.396   .     A
C1012  H1034   1.084   .     S
C1013  C1029   1.402   .     A
C1013  C1015   1.472   .     S
C1014  H1046   1.085   .     S
C1014  C1020   1.399   .     A
C1014  C662    1.386   1_565 S
C1015  O1051   1.297   .     A
C1015  O1052   1.295   .     A
C1016  O1057   1.381   .     S
C1016  C1017   1.413   .     A
C1017  C1025   1.446   .     S
C1017  C1018   1.399   .     A
C1018  H1035   1.085   .     S
C1019  O1059   1.381   .     S
C1019  C1020   1.414   .     A
C1019  C664    1.386   1_565 S
C1021  H1036   1.082   .     S
C1021  N1048   1.367   .     A
C1021  C904    1.417   1_655 S
C1022  N1047   1.367   .     A
C1022  H1037   1.082   .     S
C1023  N1047   1.368   .     A
C1023  H1038   1.082   .     S
C1024  N1048   1.367   .     A
C1024  H1039   1.082   .     S
C1024  C905    1.417   1_655 S
C1025  O1053   1.289   .     A
C1025  O1054   1.290   .     A
C1026  O1055   1.294   .     A
C1026  O1056   1.295   .     A
C1026  C1028   1.462   .     S
C1029  C1030   1.386   .     A
C1029  H1042   1.083   .     S
C1030  C500    1.391   1_556 S
C1030  H513    1.083   1_556 S
C1031  H1043   1.076   .     S
Cu1032 O1049   1.958   .     S
Cu1032 Cu1033  2.678   .     S
Cu1032 O1053   1.959   .     S
Cu1032 N1047   2.012   .     S
Cu1032 O1051   1.954   .     S
Cu1032 O1055   1.941   .     S
Cu1033 O1054   1.958   .     S
Cu1033 N1048   2.012   .     S
Cu1033 O1052   1.941   .     S
Cu1033 O1050   1.959   .     S
Cu1033 O1056   1.954   .     S
O1057  H1058   0.990   .     S
O1059  H1060   0.990   .     S
O1061  H1062   0.989   .     S
O1061  C496    1.380   1_556 S
