data_str_m2_o1_o10_pcu_sym.58
_audit_creation_date              2020-01-03
_audit_creation_method            'Materials Studio'
_symmetry_space_group_name_H-M    'P1'
_symmetry_Int_Tables_number       1
_symmetry_cell_setting            triclinic
loop_
_symmetry_equiv_pos_as_xyz
  x,y,z
_cell_length_a                    26.3908
_cell_length_b                    32.4964
_cell_length_c                    28.5658
_cell_angle_alpha                 90.1022
_cell_angle_beta                  97.9666
_cell_angle_gamma                 90.3624
loop_
_atom_site_label
_atom_site_type_symbol
_atom_site_fract_x
_atom_site_fract_y
_atom_site_fract_z
_atom_site_U_iso_or_equiv
_atom_site_adp_type
_atom_site_occupancy
O1     O     0.16666   0.10655   0.20625   0.00000  Uiso   1.00
O2     O     0.16667   0.22678   0.12709   0.00000  Uiso   1.00
O3     O     0.16666   0.10654   0.12706   0.00000  Uiso   1.00
O4     O     0.16667   0.22679   0.20628   0.00000  Uiso   1.00
C5     C     0.16662   0.08736   0.16662   0.00000  Uiso   1.00
C6     C     0.16671   0.24597   0.16671   0.00000  Uiso   1.00
O7     O     0.09161   0.16667   0.19712   0.00000  Uiso   1.00
O8     O     0.24172   0.16666   0.13621   0.00000  Uiso   1.00
O9     O     0.09161   0.16666   0.11793   0.00000  Uiso   1.00
O10    O     0.24172   0.16667   0.21540   0.00000  Uiso   1.00
C11    C     0.06805   0.16669   0.15468   0.00000  Uiso   1.00
C12    C     0.26528   0.16664   0.17866   0.00000  Uiso   1.00
Cu13   Cu    0.16667   0.16667   0.21355   0.00000  Uiso   1.00
Cu14   Cu    0.16667   0.16666   0.11978   0.00000  Uiso   1.00
N15    N     0.16668   0.16668   0.28403   0.00000  Uiso   1.00
N16    N     0.16665   0.16666   0.04931   0.00000  Uiso   1.00
C17    C     0.01325   0.16189   0.14861   0.00000  Uiso   1.00
C18    C     0.32008   0.17144   0.18472   0.00000  Uiso   1.00
C19    C     0.16703   0.02121   0.12415   0.00000  Uiso   1.00
C20    C     0.16630   0.31212   0.20918   0.00000  Uiso   1.00
H21    H     0.16733   0.03717   0.09093   0.00000  Uiso   1.00
H22    H     0.16601   0.29617   0.24241   0.00000  Uiso   1.00
C23    C     0.16709   0.31197   0.12420   0.00000  Uiso   1.00
C24    C     0.16624   0.02136   0.20914   0.00000  Uiso   1.00
H25    H     0.16745   0.29591   0.09099   0.00000  Uiso   1.00
H26    H     0.16588   0.03743   0.24235   0.00000  Uiso   1.00
C27    C     0.16672   0.29059   0.16671   0.00000  Uiso   1.00
C28    C     0.16662   0.04274   0.16662   0.00000  Uiso   1.00
C29    C     0.13404   0.14134   0.02071   0.00000  Uiso   1.00
C30    C     0.19930   0.19200   0.31262   0.00000  Uiso   1.00
C31    C     0.13424   0.14155   0.30417   0.00000  Uiso   1.00
C32    C     0.19910   0.19179   0.02917   0.00000  Uiso   1.00
H33    H     0.10850   0.12155   0.28159   0.00000  Uiso   1.00
H34    H     0.22483   0.21178   0.05175   0.00000  Uiso   1.00
N35    N     0.32319   0.14129   0.10627   0.00000  Uiso   1.00
O36    O     0.32869   0.15610   0.06497   0.00000  Uiso   1.00
O37    O     0.30270   0.10499   0.10902   0.00000  Uiso   1.00
N38    N     0.01014   0.19205   0.22706   0.00000  Uiso   1.00
O39    O     0.00463   0.17724   0.26836   0.00000  Uiso   1.00
O40    O     0.03064   0.22834   0.22431   0.00000  Uiso   1.00
O41    O     0.10146   0.11579   0.04111   0.00000  Uiso   1.00
H42    H     0.08047   0.09966   0.01593   0.00000  Uiso   1.00
O43    O     0.23187   0.21755   0.29222   0.00000  Uiso   1.00
H44    H     0.25286   0.23367   0.31740   0.00000  Uiso   1.00
O45    O     0.50000   0.10655   0.20625   0.00000  Uiso   1.00
O46    O     0.50000   0.22678   0.12709   0.00000  Uiso   1.00
O47    O     0.50000   0.10654   0.12706   0.00000  Uiso   1.00
O48    O     0.50000   0.22679   0.20628   0.00000  Uiso   1.00
C49    C     0.49996   0.08736   0.16662   0.00000  Uiso   1.00
C50    C     0.50004   0.24597   0.16671   0.00000  Uiso   1.00
O51    O     0.42495   0.16667   0.19712   0.00000  Uiso   1.00
O52    O     0.57505   0.16666   0.13621   0.00000  Uiso   1.00
O53    O     0.42494   0.16666   0.11793   0.00000  Uiso   1.00
O54    O     0.57506   0.16667   0.21540   0.00000  Uiso   1.00
C55    C     0.40139   0.16669   0.15468   0.00000  Uiso   1.00
C56    C     0.59861   0.16664   0.17866   0.00000  Uiso   1.00
Cu57   Cu    0.50000   0.16667   0.21355   0.00000  Uiso   1.00
Cu58   Cu    0.50000   0.16666   0.11978   0.00000  Uiso   1.00
N59    N     0.50001   0.16668   0.28403   0.00000  Uiso   1.00
N60    N     0.49999   0.16666   0.04931   0.00000  Uiso   1.00
C61    C     0.34659   0.16189   0.14861   0.00000  Uiso   1.00
C62    C     0.65341   0.17144   0.18472   0.00000  Uiso   1.00
C63    C     0.50036   0.02121   0.12415   0.00000  Uiso   1.00
C64    C     0.49963   0.31212   0.20918   0.00000  Uiso   1.00
H65    H     0.50066   0.03717   0.09093   0.00000  Uiso   1.00
H66    H     0.49934   0.29617   0.24241   0.00000  Uiso   1.00
C67    C     0.50043   0.31197   0.12420   0.00000  Uiso   1.00
C68    C     0.49957   0.02136   0.20914   0.00000  Uiso   1.00
H69    H     0.50078   0.29591   0.09099   0.00000  Uiso   1.00
H70    H     0.49922   0.03743   0.24235   0.00000  Uiso   1.00
C71    C     0.50005   0.29059   0.16671   0.00000  Uiso   1.00
C72    C     0.49995   0.04274   0.16662   0.00000  Uiso   1.00
C73    C     0.46737   0.14134   0.02071   0.00000  Uiso   1.00
C74    C     0.53263   0.19200   0.31262   0.00000  Uiso   1.00
C75    C     0.46757   0.14155   0.30417   0.00000  Uiso   1.00
C76    C     0.53243   0.19179   0.02917   0.00000  Uiso   1.00
H77    H     0.44183   0.12155   0.28159   0.00000  Uiso   1.00
H78    H     0.55817   0.21178   0.05175   0.00000  Uiso   1.00
N79    N     0.65653   0.14129   0.10627   0.00000  Uiso   1.00
O80    O     0.66203   0.15610   0.06497   0.00000  Uiso   1.00
O81    O     0.63603   0.10499   0.10902   0.00000  Uiso   1.00
N82    N     0.34347   0.19205   0.22706   0.00000  Uiso   1.00
O83    O     0.33797   0.17724   0.26836   0.00000  Uiso   1.00
O84    O     0.36397   0.22834   0.22431   0.00000  Uiso   1.00
O85    O     0.43479   0.11579   0.04111   0.00000  Uiso   1.00
H86    H     0.41381   0.09966   0.01593   0.00000  Uiso   1.00
O87    O     0.56521   0.21755   0.29222   0.00000  Uiso   1.00
H88    H     0.58619   0.23367   0.31740   0.00000  Uiso   1.00
O89    O     0.83333   0.10655   0.20625   0.00000  Uiso   1.00
O90    O     0.83334   0.22678   0.12709   0.00000  Uiso   1.00
O91    O     0.83333   0.10654   0.12706   0.00000  Uiso   1.00
O92    O     0.83334   0.22679   0.20628   0.00000  Uiso   1.00
C93    C     0.83329   0.08736   0.16662   0.00000  Uiso   1.00
C94    C     0.83338   0.24597   0.16671   0.00000  Uiso   1.00
O95    O     0.75828   0.16667   0.19712   0.00000  Uiso   1.00
O96    O     0.90839   0.16666   0.13621   0.00000  Uiso   1.00
O97    O     0.75828   0.16666   0.11793   0.00000  Uiso   1.00
O98    O     0.90839   0.16667   0.21540   0.00000  Uiso   1.00
C99    C     0.73472   0.16669   0.15468   0.00000  Uiso   1.00
C100   C     0.93195   0.16664   0.17866   0.00000  Uiso   1.00
Cu101  Cu    0.83333   0.16667   0.21355   0.00000  Uiso   1.00
Cu102  Cu    0.83333   0.16666   0.11978   0.00000  Uiso   1.00
N103   N     0.83335   0.16668   0.28403   0.00000  Uiso   1.00
N104   N     0.83332   0.16666   0.04931   0.00000  Uiso   1.00
C105   C     0.67992   0.16189   0.14861   0.00000  Uiso   1.00
C106   C     0.98675   0.17144   0.18472   0.00000  Uiso   1.00
C107   C     0.83370   0.02121   0.12415   0.00000  Uiso   1.00
C108   C     0.83297   0.31212   0.20918   0.00000  Uiso   1.00
H109   H     0.83399   0.03717   0.09093   0.00000  Uiso   1.00
H110   H     0.83267   0.29617   0.24241   0.00000  Uiso   1.00
C111   C     0.83376   0.31197   0.12420   0.00000  Uiso   1.00
C112   C     0.83291   0.02136   0.20914   0.00000  Uiso   1.00
H113   H     0.83411   0.29591   0.09099   0.00000  Uiso   1.00
H114   H     0.83255   0.03743   0.24235   0.00000  Uiso   1.00
C115   C     0.83338   0.29059   0.16671   0.00000  Uiso   1.00
C116   C     0.83328   0.04274   0.16662   0.00000  Uiso   1.00
C117   C     0.80070   0.14134   0.02071   0.00000  Uiso   1.00
C118   C     0.86596   0.19200   0.31262   0.00000  Uiso   1.00
C119   C     0.80090   0.14155   0.30417   0.00000  Uiso   1.00
C120   C     0.86576   0.19179   0.02917   0.00000  Uiso   1.00
H121   H     0.77517   0.12155   0.28159   0.00000  Uiso   1.00
H122   H     0.89150   0.21178   0.05175   0.00000  Uiso   1.00
N123   N     0.98986   0.14129   0.10627   0.00000  Uiso   1.00
O124   O     0.99536   0.15610   0.06497   0.00000  Uiso   1.00
O125   O     0.96936   0.10499   0.10902   0.00000  Uiso   1.00
N126   N     0.67681   0.19205   0.22706   0.00000  Uiso   1.00
O127   O     0.67130   0.17724   0.26836   0.00000  Uiso   1.00
O128   O     0.69731   0.22834   0.22431   0.00000  Uiso   1.00
O129   O     0.76813   0.11579   0.04111   0.00000  Uiso   1.00
H130   H     0.74714   0.09966   0.01593   0.00000  Uiso   1.00
O131   O     0.89854   0.21755   0.29222   0.00000  Uiso   1.00
H132   H     0.91953   0.23367   0.31740   0.00000  Uiso   1.00
O133   O     0.16666   0.43989   0.20625   0.00000  Uiso   1.00
O134   O     0.16667   0.56011   0.12709   0.00000  Uiso   1.00
O135   O     0.16666   0.43988   0.12706   0.00000  Uiso   1.00
O136   O     0.16667   0.56012   0.20628   0.00000  Uiso   1.00
C137   C     0.16662   0.42070   0.16662   0.00000  Uiso   1.00
C138   C     0.16671   0.57930   0.16671   0.00000  Uiso   1.00
O139   O     0.09161   0.50000   0.19712   0.00000  Uiso   1.00
O140   O     0.24172   0.50000   0.13621   0.00000  Uiso   1.00
O141   O     0.09161   0.49999   0.11793   0.00000  Uiso   1.00
O142   O     0.24172   0.50001   0.21540   0.00000  Uiso   1.00
C143   C     0.06805   0.50003   0.15468   0.00000  Uiso   1.00
C144   C     0.26528   0.49997   0.17866   0.00000  Uiso   1.00
Cu145  Cu    0.16667   0.50001   0.21355   0.00000  Uiso   1.00
Cu146  Cu    0.16667   0.49999   0.11978   0.00000  Uiso   1.00
N147   N     0.16668   0.50001   0.28403   0.00000  Uiso   1.00
N148   N     0.16665   0.49999   0.04931   0.00000  Uiso   1.00
C149   C     0.01325   0.49522   0.14861   0.00000  Uiso   1.00
C150   C     0.32008   0.50478   0.18472   0.00000  Uiso   1.00
C151   C     0.16703   0.35455   0.12415   0.00000  Uiso   1.00
C152   C     0.16630   0.64545   0.20918   0.00000  Uiso   1.00
H153   H     0.16733   0.37050   0.09093   0.00000  Uiso   1.00
H154   H     0.16601   0.62950   0.24241   0.00000  Uiso   1.00
C155   C     0.16709   0.64531   0.12420   0.00000  Uiso   1.00
C156   C     0.16624   0.35469   0.20914   0.00000  Uiso   1.00
H157   H     0.16745   0.62924   0.09099   0.00000  Uiso   1.00
H158   H     0.16588   0.37076   0.24235   0.00000  Uiso   1.00
C159   C     0.16672   0.62392   0.16671   0.00000  Uiso   1.00
C160   C     0.16662   0.37608   0.16662   0.00000  Uiso   1.00
C161   C     0.13404   0.47467   0.02071   0.00000  Uiso   1.00
C162   C     0.19930   0.52533   0.31262   0.00000  Uiso   1.00
C163   C     0.13424   0.47488   0.30417   0.00000  Uiso   1.00
C164   C     0.19910   0.52512   0.02917   0.00000  Uiso   1.00
H165   H     0.10850   0.45489   0.28159   0.00000  Uiso   1.00
H166   H     0.22483   0.54511   0.05175   0.00000  Uiso   1.00
N167   N     0.32319   0.47462   0.10627   0.00000  Uiso   1.00
O168   O     0.32869   0.48943   0.06497   0.00000  Uiso   1.00
O169   O     0.30270   0.43832   0.10902   0.00000  Uiso   1.00
N170   N     0.01014   0.52538   0.22706   0.00000  Uiso   1.00
O171   O     0.00463   0.51058   0.26836   0.00000  Uiso   1.00
O172   O     0.03064   0.56168   0.22431   0.00000  Uiso   1.00
O173   O     0.10146   0.44912   0.04111   0.00000  Uiso   1.00
H174   H     0.08047   0.43300   0.01593   0.00000  Uiso   1.00
O175   O     0.23187   0.55088   0.29222   0.00000  Uiso   1.00
H176   H     0.25286   0.56700   0.31740   0.00000  Uiso   1.00
O177   O     0.50000   0.43989   0.20625   0.00000  Uiso   1.00
O178   O     0.50000   0.56011   0.12709   0.00000  Uiso   1.00
O179   O     0.50000   0.43988   0.12706   0.00000  Uiso   1.00
O180   O     0.50000   0.56012   0.20628   0.00000  Uiso   1.00
C181   C     0.49996   0.42070   0.16662   0.00000  Uiso   1.00
C182   C     0.50004   0.57930   0.16671   0.00000  Uiso   1.00
O183   O     0.42495   0.50000   0.19712   0.00000  Uiso   1.00
O184   O     0.57505   0.50000   0.13621   0.00000  Uiso   1.00
O185   O     0.42494   0.49999   0.11793   0.00000  Uiso   1.00
O186   O     0.57506   0.50001   0.21540   0.00000  Uiso   1.00
C187   C     0.40139   0.50003   0.15468   0.00000  Uiso   1.00
C188   C     0.59861   0.49997   0.17866   0.00000  Uiso   1.00
Cu189  Cu    0.50000   0.50001   0.21355   0.00000  Uiso   1.00
Cu190  Cu    0.50000   0.49999   0.11978   0.00000  Uiso   1.00
N191   N     0.50001   0.50001   0.28403   0.00000  Uiso   1.00
N192   N     0.49999   0.49999   0.04931   0.00000  Uiso   1.00
C193   C     0.34659   0.49522   0.14861   0.00000  Uiso   1.00
C194   C     0.65341   0.50478   0.18472   0.00000  Uiso   1.00
C195   C     0.50036   0.35455   0.12415   0.00000  Uiso   1.00
C196   C     0.49963   0.64545   0.20918   0.00000  Uiso   1.00
H197   H     0.50066   0.37050   0.09093   0.00000  Uiso   1.00
H198   H     0.49934   0.62950   0.24241   0.00000  Uiso   1.00
C199   C     0.50043   0.64531   0.12420   0.00000  Uiso   1.00
C200   C     0.49957   0.35469   0.20914   0.00000  Uiso   1.00
H201   H     0.50078   0.62924   0.09099   0.00000  Uiso   1.00
H202   H     0.49922   0.37076   0.24235   0.00000  Uiso   1.00
C203   C     0.50005   0.62392   0.16671   0.00000  Uiso   1.00
C204   C     0.49995   0.37608   0.16662   0.00000  Uiso   1.00
C205   C     0.46737   0.47467   0.02071   0.00000  Uiso   1.00
C206   C     0.53263   0.52533   0.31262   0.00000  Uiso   1.00
C207   C     0.46757   0.47488   0.30417   0.00000  Uiso   1.00
C208   C     0.53243   0.52512   0.02917   0.00000  Uiso   1.00
H209   H     0.44183   0.45489   0.28159   0.00000  Uiso   1.00
H210   H     0.55817   0.54511   0.05175   0.00000  Uiso   1.00
N211   N     0.65653   0.47462   0.10627   0.00000  Uiso   1.00
O212   O     0.66203   0.48943   0.06497   0.00000  Uiso   1.00
O213   O     0.63603   0.43832   0.10902   0.00000  Uiso   1.00
N214   N     0.34347   0.52538   0.22706   0.00000  Uiso   1.00
O215   O     0.33797   0.51058   0.26836   0.00000  Uiso   1.00
O216   O     0.36397   0.56168   0.22431   0.00000  Uiso   1.00
O217   O     0.43479   0.44912   0.04111   0.00000  Uiso   1.00
H218   H     0.41381   0.43300   0.01593   0.00000  Uiso   1.00
O219   O     0.56521   0.55088   0.29222   0.00000  Uiso   1.00
H220   H     0.58619   0.56700   0.31740   0.00000  Uiso   1.00
O221   O     0.83333   0.43989   0.20625   0.00000  Uiso   1.00
O222   O     0.83334   0.56011   0.12709   0.00000  Uiso   1.00
O223   O     0.83333   0.43988   0.12706   0.00000  Uiso   1.00
O224   O     0.83334   0.56012   0.20628   0.00000  Uiso   1.00
C225   C     0.83329   0.42070   0.16662   0.00000  Uiso   1.00
C226   C     0.83338   0.57930   0.16671   0.00000  Uiso   1.00
O227   O     0.75828   0.50000   0.19712   0.00000  Uiso   1.00
O228   O     0.90839   0.50000   0.13621   0.00000  Uiso   1.00
O229   O     0.75828   0.49999   0.11793   0.00000  Uiso   1.00
O230   O     0.90839   0.50001   0.21540   0.00000  Uiso   1.00
C231   C     0.73472   0.50003   0.15468   0.00000  Uiso   1.00
C232   C     0.93195   0.49997   0.17866   0.00000  Uiso   1.00
Cu233  Cu    0.83333   0.50001   0.21355   0.00000  Uiso   1.00
Cu234  Cu    0.83333   0.49999   0.11978   0.00000  Uiso   1.00
N235   N     0.83335   0.50001   0.28403   0.00000  Uiso   1.00
N236   N     0.83332   0.49999   0.04931   0.00000  Uiso   1.00
C237   C     0.67992   0.49522   0.14861   0.00000  Uiso   1.00
C238   C     0.98675   0.50478   0.18472   0.00000  Uiso   1.00
C239   C     0.83370   0.35455   0.12415   0.00000  Uiso   1.00
C240   C     0.83297   0.64545   0.20918   0.00000  Uiso   1.00
H241   H     0.83399   0.37050   0.09093   0.00000  Uiso   1.00
H242   H     0.83267   0.62950   0.24241   0.00000  Uiso   1.00
C243   C     0.83376   0.64531   0.12420   0.00000  Uiso   1.00
C244   C     0.83291   0.35469   0.20914   0.00000  Uiso   1.00
H245   H     0.83411   0.62924   0.09099   0.00000  Uiso   1.00
H246   H     0.83255   0.37076   0.24235   0.00000  Uiso   1.00
C247   C     0.83338   0.62392   0.16671   0.00000  Uiso   1.00
C248   C     0.83328   0.37608   0.16662   0.00000  Uiso   1.00
C249   C     0.80070   0.47467   0.02071   0.00000  Uiso   1.00
C250   C     0.86596   0.52533   0.31262   0.00000  Uiso   1.00
C251   C     0.80090   0.47488   0.30417   0.00000  Uiso   1.00
C252   C     0.86576   0.52512   0.02917   0.00000  Uiso   1.00
H253   H     0.77517   0.45489   0.28159   0.00000  Uiso   1.00
H254   H     0.89150   0.54511   0.05175   0.00000  Uiso   1.00
N255   N     0.98986   0.47462   0.10627   0.00000  Uiso   1.00
O256   O     0.99536   0.48943   0.06497   0.00000  Uiso   1.00
O257   O     0.96936   0.43832   0.10902   0.00000  Uiso   1.00
N258   N     0.67681   0.52538   0.22706   0.00000  Uiso   1.00
O259   O     0.67130   0.51058   0.26836   0.00000  Uiso   1.00
O260   O     0.69731   0.56168   0.22431   0.00000  Uiso   1.00
O261   O     0.76813   0.44912   0.04111   0.00000  Uiso   1.00
H262   H     0.74714   0.43300   0.01593   0.00000  Uiso   1.00
O263   O     0.89854   0.55088   0.29222   0.00000  Uiso   1.00
H264   H     0.91953   0.56700   0.31740   0.00000  Uiso   1.00
O265   O     0.16666   0.77322   0.20625   0.00000  Uiso   1.00
O266   O     0.16667   0.89345   0.12709   0.00000  Uiso   1.00
O267   O     0.16666   0.77321   0.12706   0.00000  Uiso   1.00
O268   O     0.16667   0.89346   0.20628   0.00000  Uiso   1.00
C269   C     0.16662   0.75403   0.16662   0.00000  Uiso   1.00
C270   C     0.16671   0.91264   0.16671   0.00000  Uiso   1.00
O271   O     0.09161   0.83334   0.19712   0.00000  Uiso   1.00
O272   O     0.24172   0.83333   0.13621   0.00000  Uiso   1.00
O273   O     0.09161   0.83333   0.11793   0.00000  Uiso   1.00
O274   O     0.24172   0.83334   0.21540   0.00000  Uiso   1.00
C275   C     0.06805   0.83336   0.15468   0.00000  Uiso   1.00
C276   C     0.26528   0.83331   0.17866   0.00000  Uiso   1.00
Cu277  Cu    0.16667   0.83334   0.21355   0.00000  Uiso   1.00
Cu278  Cu    0.16667   0.83333   0.11978   0.00000  Uiso   1.00
N279   N     0.16668   0.83334   0.28403   0.00000  Uiso   1.00
N280   N     0.16665   0.83332   0.04931   0.00000  Uiso   1.00
C281   C     0.01325   0.82856   0.14861   0.00000  Uiso   1.00
C282   C     0.32008   0.83811   0.18472   0.00000  Uiso   1.00
C283   C     0.16703   0.68788   0.12415   0.00000  Uiso   1.00
C284   C     0.16630   0.97879   0.20918   0.00000  Uiso   1.00
H285   H     0.16733   0.70383   0.09093   0.00000  Uiso   1.00
H286   H     0.16601   0.96283   0.24241   0.00000  Uiso   1.00
C287   C     0.16709   0.97864   0.12420   0.00000  Uiso   1.00
C288   C     0.16624   0.68803   0.20914   0.00000  Uiso   1.00
H289   H     0.16745   0.96257   0.09099   0.00000  Uiso   1.00
H290   H     0.16588   0.70409   0.24235   0.00000  Uiso   1.00
C291   C     0.16672   0.95726   0.16671   0.00000  Uiso   1.00
C292   C     0.16662   0.70941   0.16662   0.00000  Uiso   1.00
C293   C     0.13404   0.80800   0.02071   0.00000  Uiso   1.00
C294   C     0.19930   0.85866   0.31262   0.00000  Uiso   1.00
C295   C     0.13424   0.80821   0.30417   0.00000  Uiso   1.00
C296   C     0.19910   0.85845   0.02917   0.00000  Uiso   1.00
H297   H     0.10850   0.78822   0.28159   0.00000  Uiso   1.00
H298   H     0.22483   0.87845   0.05175   0.00000  Uiso   1.00
N299   N     0.32319   0.80796   0.10627   0.00000  Uiso   1.00
O300   O     0.32869   0.82276   0.06497   0.00000  Uiso   1.00
O301   O     0.30270   0.77166   0.10902   0.00000  Uiso   1.00
N302   N     0.01014   0.85871   0.22706   0.00000  Uiso   1.00
O303   O     0.00463   0.84391   0.26836   0.00000  Uiso   1.00
O304   O     0.03064   0.89501   0.22431   0.00000  Uiso   1.00
O305   O     0.10146   0.78245   0.04111   0.00000  Uiso   1.00
H306   H     0.08047   0.76633   0.01593   0.00000  Uiso   1.00
O307   O     0.23187   0.88422   0.29222   0.00000  Uiso   1.00
H308   H     0.25286   0.90034   0.31740   0.00000  Uiso   1.00
O309   O     0.50000   0.77322   0.20625   0.00000  Uiso   1.00
O310   O     0.50000   0.89345   0.12709   0.00000  Uiso   1.00
O311   O     0.50000   0.77321   0.12706   0.00000  Uiso   1.00
O312   O     0.50000   0.89346   0.20628   0.00000  Uiso   1.00
C313   C     0.49996   0.75403   0.16662   0.00000  Uiso   1.00
C314   C     0.50004   0.91264   0.16671   0.00000  Uiso   1.00
O315   O     0.42495   0.83334   0.19712   0.00000  Uiso   1.00
O316   O     0.57505   0.83333   0.13621   0.00000  Uiso   1.00
O317   O     0.42494   0.83333   0.11793   0.00000  Uiso   1.00
O318   O     0.57506   0.83334   0.21540   0.00000  Uiso   1.00
C319   C     0.40139   0.83336   0.15468   0.00000  Uiso   1.00
C320   C     0.59861   0.83331   0.17866   0.00000  Uiso   1.00
Cu321  Cu    0.50000   0.83334   0.21355   0.00000  Uiso   1.00
Cu322  Cu    0.50000   0.83333   0.11978   0.00000  Uiso   1.00
N323   N     0.50001   0.83334   0.28403   0.00000  Uiso   1.00
N324   N     0.49999   0.83332   0.04931   0.00000  Uiso   1.00
C325   C     0.34659   0.82856   0.14861   0.00000  Uiso   1.00
C326   C     0.65341   0.83811   0.18472   0.00000  Uiso   1.00
C327   C     0.50036   0.68788   0.12415   0.00000  Uiso   1.00
C328   C     0.49963   0.97879   0.20918   0.00000  Uiso   1.00
H329   H     0.50066   0.70383   0.09093   0.00000  Uiso   1.00
H330   H     0.49934   0.96283   0.24241   0.00000  Uiso   1.00
C331   C     0.50043   0.97864   0.12420   0.00000  Uiso   1.00
C332   C     0.49957   0.68803   0.20914   0.00000  Uiso   1.00
H333   H     0.50078   0.96257   0.09099   0.00000  Uiso   1.00
H334   H     0.49922   0.70409   0.24235   0.00000  Uiso   1.00
C335   C     0.50005   0.95726   0.16671   0.00000  Uiso   1.00
C336   C     0.49995   0.70941   0.16662   0.00000  Uiso   1.00
C337   C     0.46737   0.80800   0.02071   0.00000  Uiso   1.00
C338   C     0.53263   0.85866   0.31262   0.00000  Uiso   1.00
C339   C     0.46757   0.80821   0.30417   0.00000  Uiso   1.00
C340   C     0.53243   0.85845   0.02917   0.00000  Uiso   1.00
H341   H     0.44183   0.78822   0.28159   0.00000  Uiso   1.00
H342   H     0.55817   0.87845   0.05175   0.00000  Uiso   1.00
N343   N     0.65653   0.80796   0.10627   0.00000  Uiso   1.00
O344   O     0.66203   0.82276   0.06497   0.00000  Uiso   1.00
O345   O     0.63603   0.77166   0.10902   0.00000  Uiso   1.00
N346   N     0.34347   0.85871   0.22706   0.00000  Uiso   1.00
O347   O     0.33797   0.84391   0.26836   0.00000  Uiso   1.00
O348   O     0.36397   0.89501   0.22431   0.00000  Uiso   1.00
O349   O     0.43479   0.78245   0.04111   0.00000  Uiso   1.00
H350   H     0.41381   0.76633   0.01593   0.00000  Uiso   1.00
O351   O     0.56521   0.88422   0.29222   0.00000  Uiso   1.00
H352   H     0.58619   0.90034   0.31740   0.00000  Uiso   1.00
O353   O     0.83333   0.77322   0.20625   0.00000  Uiso   1.00
O354   O     0.83334   0.89345   0.12709   0.00000  Uiso   1.00
O355   O     0.83333   0.77321   0.12706   0.00000  Uiso   1.00
O356   O     0.83334   0.89346   0.20628   0.00000  Uiso   1.00
C357   C     0.83329   0.75403   0.16662   0.00000  Uiso   1.00
C358   C     0.83338   0.91264   0.16671   0.00000  Uiso   1.00
O359   O     0.75828   0.83334   0.19712   0.00000  Uiso   1.00
O360   O     0.90839   0.83333   0.13621   0.00000  Uiso   1.00
O361   O     0.75828   0.83333   0.11793   0.00000  Uiso   1.00
O362   O     0.90839   0.83334   0.21540   0.00000  Uiso   1.00
C363   C     0.73472   0.83336   0.15468   0.00000  Uiso   1.00
C364   C     0.93195   0.83331   0.17866   0.00000  Uiso   1.00
Cu365  Cu    0.83333   0.83334   0.21355   0.00000  Uiso   1.00
Cu366  Cu    0.83333   0.83333   0.11978   0.00000  Uiso   1.00
N367   N     0.83335   0.83334   0.28403   0.00000  Uiso   1.00
N368   N     0.83332   0.83332   0.04931   0.00000  Uiso   1.00
C369   C     0.67992   0.82856   0.14861   0.00000  Uiso   1.00
C370   C     0.98675   0.83811   0.18472   0.00000  Uiso   1.00
C371   C     0.83370   0.68788   0.12415   0.00000  Uiso   1.00
C372   C     0.83297   0.97879   0.20918   0.00000  Uiso   1.00
H373   H     0.83399   0.70383   0.09093   0.00000  Uiso   1.00
H374   H     0.83267   0.96283   0.24241   0.00000  Uiso   1.00
C375   C     0.83376   0.97864   0.12420   0.00000  Uiso   1.00
C376   C     0.83291   0.68803   0.20914   0.00000  Uiso   1.00
H377   H     0.83411   0.96257   0.09099   0.00000  Uiso   1.00
H378   H     0.83255   0.70409   0.24235   0.00000  Uiso   1.00
C379   C     0.83338   0.95726   0.16671   0.00000  Uiso   1.00
C380   C     0.83328   0.70941   0.16662   0.00000  Uiso   1.00
C381   C     0.80070   0.80800   0.02071   0.00000  Uiso   1.00
C382   C     0.86596   0.85866   0.31262   0.00000  Uiso   1.00
C383   C     0.80090   0.80821   0.30417   0.00000  Uiso   1.00
C384   C     0.86576   0.85845   0.02917   0.00000  Uiso   1.00
H385   H     0.77517   0.78822   0.28159   0.00000  Uiso   1.00
H386   H     0.89150   0.87845   0.05175   0.00000  Uiso   1.00
N387   N     0.98986   0.80796   0.10627   0.00000  Uiso   1.00
O388   O     0.99536   0.82276   0.06497   0.00000  Uiso   1.00
O389   O     0.96936   0.77166   0.10902   0.00000  Uiso   1.00
N390   N     0.67681   0.85871   0.22706   0.00000  Uiso   1.00
O391   O     0.67130   0.84391   0.26836   0.00000  Uiso   1.00
O392   O     0.69731   0.89501   0.22431   0.00000  Uiso   1.00
O393   O     0.76813   0.78245   0.04111   0.00000  Uiso   1.00
H394   H     0.74714   0.76633   0.01593   0.00000  Uiso   1.00
O395   O     0.89854   0.88422   0.29222   0.00000  Uiso   1.00
H396   H     0.91953   0.90034   0.31740   0.00000  Uiso   1.00
O397   O     0.16666   0.10655   0.53958   0.00000  Uiso   1.00
O398   O     0.16667   0.22678   0.46042   0.00000  Uiso   1.00
O399   O     0.16666   0.10654   0.46039   0.00000  Uiso   1.00
O400   O     0.16667   0.22679   0.53961   0.00000  Uiso   1.00
C401   C     0.16662   0.08736   0.49996   0.00000  Uiso   1.00
C402   C     0.16671   0.24597   0.50004   0.00000  Uiso   1.00
O403   O     0.09161   0.16667   0.53046   0.00000  Uiso   1.00
O404   O     0.24172   0.16666   0.46954   0.00000  Uiso   1.00
O405   O     0.09161   0.16666   0.45127   0.00000  Uiso   1.00
O406   O     0.24172   0.16667   0.54873   0.00000  Uiso   1.00
C407   C     0.06805   0.16669   0.48801   0.00000  Uiso   1.00
C408   C     0.26528   0.16664   0.51199   0.00000  Uiso   1.00
Cu409  Cu    0.16667   0.16667   0.54689   0.00000  Uiso   1.00
Cu410  Cu    0.16667   0.16666   0.45311   0.00000  Uiso   1.00
N411   N     0.16668   0.16668   0.61736   0.00000  Uiso   1.00
N412   N     0.16665   0.16666   0.38264   0.00000  Uiso   1.00
C413   C     0.01325   0.16189   0.48195   0.00000  Uiso   1.00
C414   C     0.32008   0.17144   0.51806   0.00000  Uiso   1.00
C415   C     0.16703   0.02121   0.45749   0.00000  Uiso   1.00
C416   C     0.16630   0.31212   0.54251   0.00000  Uiso   1.00
H417   H     0.16733   0.03717   0.42426   0.00000  Uiso   1.00
H418   H     0.16601   0.29617   0.57574   0.00000  Uiso   1.00
C419   C     0.16709   0.31197   0.45753   0.00000  Uiso   1.00
C420   C     0.16624   0.02136   0.54247   0.00000  Uiso   1.00
H421   H     0.16745   0.29591   0.42432   0.00000  Uiso   1.00
H422   H     0.16588   0.03743   0.57568   0.00000  Uiso   1.00
C423   C     0.16672   0.29059   0.50004   0.00000  Uiso   1.00
C424   C     0.16662   0.04274   0.49996   0.00000  Uiso   1.00
C425   C     0.13404   0.14134   0.35405   0.00000  Uiso   1.00
C426   C     0.19930   0.19200   0.64595   0.00000  Uiso   1.00
C427   C     0.13424   0.14155   0.63750   0.00000  Uiso   1.00
C428   C     0.19910   0.19179   0.36250   0.00000  Uiso   1.00
H429   H     0.10850   0.12155   0.61492   0.00000  Uiso   1.00
H430   H     0.22483   0.21178   0.38508   0.00000  Uiso   1.00
N431   N     0.32319   0.14129   0.43961   0.00000  Uiso   1.00
O432   O     0.32869   0.15610   0.39831   0.00000  Uiso   1.00
O433   O     0.30270   0.10499   0.44235   0.00000  Uiso   1.00
N434   N     0.01014   0.19205   0.56039   0.00000  Uiso   1.00
O435   O     0.00463   0.17724   0.60169   0.00000  Uiso   1.00
O436   O     0.03064   0.22834   0.55765   0.00000  Uiso   1.00
O437   O     0.10146   0.11579   0.37445   0.00000  Uiso   1.00
H438   H     0.08047   0.09966   0.34927   0.00000  Uiso   1.00
O439   O     0.23187   0.21755   0.62555   0.00000  Uiso   1.00
H440   H     0.25286   0.23367   0.65073   0.00000  Uiso   1.00
O441   O     0.50000   0.10655   0.53958   0.00000  Uiso   1.00
O442   O     0.50000   0.22678   0.46042   0.00000  Uiso   1.00
O443   O     0.50000   0.10654   0.46039   0.00000  Uiso   1.00
O444   O     0.50000   0.22679   0.53961   0.00000  Uiso   1.00
C445   C     0.49996   0.08736   0.49996   0.00000  Uiso   1.00
C446   C     0.50004   0.24597   0.50004   0.00000  Uiso   1.00
O447   O     0.42495   0.16667   0.53046   0.00000  Uiso   1.00
O448   O     0.57505   0.16666   0.46954   0.00000  Uiso   1.00
O449   O     0.42494   0.16666   0.45127   0.00000  Uiso   1.00
O450   O     0.57506   0.16667   0.54873   0.00000  Uiso   1.00
C451   C     0.40139   0.16669   0.48801   0.00000  Uiso   1.00
C452   C     0.59861   0.16664   0.51199   0.00000  Uiso   1.00
Cu453  Cu    0.50000   0.16667   0.54689   0.00000  Uiso   1.00
Cu454  Cu    0.50000   0.16666   0.45311   0.00000  Uiso   1.00
N455   N     0.50001   0.16668   0.61736   0.00000  Uiso   1.00
N456   N     0.49999   0.16666   0.38264   0.00000  Uiso   1.00
C457   C     0.34659   0.16189   0.48195   0.00000  Uiso   1.00
C458   C     0.65341   0.17144   0.51806   0.00000  Uiso   1.00
C459   C     0.50036   0.02121   0.45749   0.00000  Uiso   1.00
C460   C     0.49963   0.31212   0.54251   0.00000  Uiso   1.00
H461   H     0.50066   0.03717   0.42426   0.00000  Uiso   1.00
H462   H     0.49934   0.29617   0.57574   0.00000  Uiso   1.00
C463   C     0.50043   0.31197   0.45753   0.00000  Uiso   1.00
C464   C     0.49957   0.02136   0.54247   0.00000  Uiso   1.00
H465   H     0.50078   0.29591   0.42432   0.00000  Uiso   1.00
H466   H     0.49922   0.03743   0.57568   0.00000  Uiso   1.00
C467   C     0.50005   0.29059   0.50004   0.00000  Uiso   1.00
C468   C     0.49995   0.04274   0.49996   0.00000  Uiso   1.00
C469   C     0.46737   0.14134   0.35405   0.00000  Uiso   1.00
C470   C     0.53263   0.19200   0.64595   0.00000  Uiso   1.00
C471   C     0.46757   0.14155   0.63750   0.00000  Uiso   1.00
C472   C     0.53243   0.19179   0.36250   0.00000  Uiso   1.00
H473   H     0.44183   0.12155   0.61492   0.00000  Uiso   1.00
H474   H     0.55817   0.21178   0.38508   0.00000  Uiso   1.00
N475   N     0.65653   0.14129   0.43961   0.00000  Uiso   1.00
O476   O     0.66203   0.15610   0.39831   0.00000  Uiso   1.00
O477   O     0.63603   0.10499   0.44235   0.00000  Uiso   1.00
N478   N     0.34347   0.19205   0.56039   0.00000  Uiso   1.00
O479   O     0.33797   0.17724   0.60169   0.00000  Uiso   1.00
O480   O     0.36397   0.22834   0.55765   0.00000  Uiso   1.00
O481   O     0.43479   0.11579   0.37445   0.00000  Uiso   1.00
H482   H     0.41381   0.09966   0.34927   0.00000  Uiso   1.00
O483   O     0.56521   0.21755   0.62555   0.00000  Uiso   1.00
H484   H     0.58619   0.23367   0.65073   0.00000  Uiso   1.00
O485   O     0.83333   0.10655   0.53958   0.00000  Uiso   1.00
O486   O     0.83334   0.22678   0.46042   0.00000  Uiso   1.00
O487   O     0.83333   0.10654   0.46039   0.00000  Uiso   1.00
O488   O     0.83334   0.22679   0.53961   0.00000  Uiso   1.00
C489   C     0.83329   0.08736   0.49996   0.00000  Uiso   1.00
C490   C     0.83338   0.24597   0.50004   0.00000  Uiso   1.00
O491   O     0.75828   0.16667   0.53046   0.00000  Uiso   1.00
O492   O     0.90839   0.16666   0.46954   0.00000  Uiso   1.00
O493   O     0.75828   0.16666   0.45127   0.00000  Uiso   1.00
O494   O     0.90839   0.16667   0.54873   0.00000  Uiso   1.00
C495   C     0.73472   0.16669   0.48801   0.00000  Uiso   1.00
C496   C     0.93195   0.16664   0.51199   0.00000  Uiso   1.00
Cu497  Cu    0.83333   0.16667   0.54689   0.00000  Uiso   1.00
Cu498  Cu    0.83333   0.16666   0.45311   0.00000  Uiso   1.00
N499   N     0.83335   0.16668   0.61736   0.00000  Uiso   1.00
N500   N     0.83332   0.16666   0.38264   0.00000  Uiso   1.00
C501   C     0.67992   0.16189   0.48195   0.00000  Uiso   1.00
C502   C     0.98675   0.17144   0.51806   0.00000  Uiso   1.00
C503   C     0.83370   0.02121   0.45749   0.00000  Uiso   1.00
C504   C     0.83297   0.31212   0.54251   0.00000  Uiso   1.00
H505   H     0.83399   0.03717   0.42426   0.00000  Uiso   1.00
H506   H     0.83267   0.29617   0.57574   0.00000  Uiso   1.00
C507   C     0.83376   0.31197   0.45753   0.00000  Uiso   1.00
C508   C     0.83291   0.02136   0.54247   0.00000  Uiso   1.00
H509   H     0.83411   0.29591   0.42432   0.00000  Uiso   1.00
H510   H     0.83255   0.03743   0.57568   0.00000  Uiso   1.00
C511   C     0.83338   0.29059   0.50004   0.00000  Uiso   1.00
C512   C     0.83328   0.04274   0.49996   0.00000  Uiso   1.00
C513   C     0.80070   0.14134   0.35405   0.00000  Uiso   1.00
C514   C     0.86596   0.19200   0.64595   0.00000  Uiso   1.00
C515   C     0.80090   0.14155   0.63750   0.00000  Uiso   1.00
C516   C     0.86576   0.19179   0.36250   0.00000  Uiso   1.00
H517   H     0.77517   0.12155   0.61492   0.00000  Uiso   1.00
H518   H     0.89150   0.21178   0.38508   0.00000  Uiso   1.00
N519   N     0.98986   0.14129   0.43961   0.00000  Uiso   1.00
O520   O     0.99536   0.15610   0.39831   0.00000  Uiso   1.00
O521   O     0.96936   0.10499   0.44235   0.00000  Uiso   1.00
N522   N     0.67681   0.19205   0.56039   0.00000  Uiso   1.00
O523   O     0.67130   0.17724   0.60169   0.00000  Uiso   1.00
O524   O     0.69731   0.22834   0.55765   0.00000  Uiso   1.00
O525   O     0.76813   0.11579   0.37445   0.00000  Uiso   1.00
H526   H     0.74714   0.09966   0.34927   0.00000  Uiso   1.00
O527   O     0.89854   0.21755   0.62555   0.00000  Uiso   1.00
H528   H     0.91953   0.23367   0.65073   0.00000  Uiso   1.00
O529   O     0.16666   0.43989   0.53958   0.00000  Uiso   1.00
O530   O     0.16667   0.56011   0.46042   0.00000  Uiso   1.00
O531   O     0.16666   0.43988   0.46039   0.00000  Uiso   1.00
O532   O     0.16667   0.56012   0.53961   0.00000  Uiso   1.00
C533   C     0.16662   0.42070   0.49996   0.00000  Uiso   1.00
C534   C     0.16671   0.57930   0.50004   0.00000  Uiso   1.00
O535   O     0.09161   0.50000   0.53046   0.00000  Uiso   1.00
O536   O     0.24172   0.50000   0.46954   0.00000  Uiso   1.00
O537   O     0.09161   0.49999   0.45127   0.00000  Uiso   1.00
O538   O     0.24172   0.50001   0.54873   0.00000  Uiso   1.00
C539   C     0.06805   0.50003   0.48801   0.00000  Uiso   1.00
C540   C     0.26528   0.49997   0.51199   0.00000  Uiso   1.00
Cu541  Cu    0.16667   0.50001   0.54689   0.00000  Uiso   1.00
Cu542  Cu    0.16667   0.49999   0.45311   0.00000  Uiso   1.00
N543   N     0.16668   0.50001   0.61736   0.00000  Uiso   1.00
N544   N     0.16665   0.49999   0.38264   0.00000  Uiso   1.00
C545   C     0.01325   0.49522   0.48195   0.00000  Uiso   1.00
C546   C     0.32008   0.50478   0.51806   0.00000  Uiso   1.00
C547   C     0.16703   0.35455   0.45749   0.00000  Uiso   1.00
C548   C     0.16630   0.64545   0.54251   0.00000  Uiso   1.00
H549   H     0.16733   0.37050   0.42426   0.00000  Uiso   1.00
H550   H     0.16601   0.62950   0.57574   0.00000  Uiso   1.00
C551   C     0.16709   0.64531   0.45753   0.00000  Uiso   1.00
C552   C     0.16624   0.35469   0.54247   0.00000  Uiso   1.00
H553   H     0.16745   0.62924   0.42432   0.00000  Uiso   1.00
H554   H     0.16588   0.37076   0.57568   0.00000  Uiso   1.00
C555   C     0.16672   0.62392   0.50004   0.00000  Uiso   1.00
C556   C     0.16662   0.37608   0.49996   0.00000  Uiso   1.00
C557   C     0.13404   0.47467   0.35405   0.00000  Uiso   1.00
C558   C     0.19930   0.52533   0.64595   0.00000  Uiso   1.00
C559   C     0.13424   0.47488   0.63750   0.00000  Uiso   1.00
C560   C     0.19910   0.52512   0.36250   0.00000  Uiso   1.00
H561   H     0.10850   0.45489   0.61492   0.00000  Uiso   1.00
H562   H     0.22483   0.54511   0.38508   0.00000  Uiso   1.00
N563   N     0.32319   0.47462   0.43961   0.00000  Uiso   1.00
O564   O     0.32869   0.48943   0.39831   0.00000  Uiso   1.00
O565   O     0.30270   0.43832   0.44235   0.00000  Uiso   1.00
N566   N     0.01014   0.52538   0.56039   0.00000  Uiso   1.00
O567   O     0.00463   0.51058   0.60169   0.00000  Uiso   1.00
O568   O     0.03064   0.56168   0.55765   0.00000  Uiso   1.00
O569   O     0.10146   0.44912   0.37445   0.00000  Uiso   1.00
H570   H     0.08047   0.43300   0.34927   0.00000  Uiso   1.00
O571   O     0.23187   0.55088   0.62555   0.00000  Uiso   1.00
H572   H     0.25286   0.56700   0.65073   0.00000  Uiso   1.00
O573   O     0.50000   0.43989   0.53958   0.00000  Uiso   1.00
O574   O     0.50000   0.56011   0.46042   0.00000  Uiso   1.00
O575   O     0.50000   0.43988   0.46039   0.00000  Uiso   1.00
O576   O     0.50000   0.56012   0.53961   0.00000  Uiso   1.00
C577   C     0.49996   0.42070   0.49996   0.00000  Uiso   1.00
C578   C     0.50004   0.57930   0.50004   0.00000  Uiso   1.00
O579   O     0.42495   0.50000   0.53046   0.00000  Uiso   1.00
O580   O     0.57505   0.50000   0.46954   0.00000  Uiso   1.00
O581   O     0.42494   0.49999   0.45127   0.00000  Uiso   1.00
O582   O     0.57506   0.50001   0.54873   0.00000  Uiso   1.00
C583   C     0.40139   0.50003   0.48801   0.00000  Uiso   1.00
C584   C     0.59861   0.49997   0.51199   0.00000  Uiso   1.00
Cu585  Cu    0.50000   0.50001   0.54689   0.00000  Uiso   1.00
Cu586  Cu    0.50000   0.49999   0.45311   0.00000  Uiso   1.00
N587   N     0.50001   0.50001   0.61736   0.00000  Uiso   1.00
N588   N     0.49999   0.49999   0.38264   0.00000  Uiso   1.00
C589   C     0.34659   0.49522   0.48195   0.00000  Uiso   1.00
C590   C     0.65341   0.50478   0.51806   0.00000  Uiso   1.00
C591   C     0.50036   0.35455   0.45749   0.00000  Uiso   1.00
C592   C     0.49963   0.64545   0.54251   0.00000  Uiso   1.00
H593   H     0.50066   0.37050   0.42426   0.00000  Uiso   1.00
H594   H     0.49934   0.62950   0.57574   0.00000  Uiso   1.00
C595   C     0.50043   0.64531   0.45753   0.00000  Uiso   1.00
C596   C     0.49957   0.35469   0.54247   0.00000  Uiso   1.00
H597   H     0.50078   0.62924   0.42432   0.00000  Uiso   1.00
H598   H     0.49922   0.37076   0.57568   0.00000  Uiso   1.00
C599   C     0.50005   0.62392   0.50004   0.00000  Uiso   1.00
C600   C     0.49995   0.37608   0.49996   0.00000  Uiso   1.00
C601   C     0.46737   0.47467   0.35405   0.00000  Uiso   1.00
C602   C     0.53263   0.52533   0.64595   0.00000  Uiso   1.00
C603   C     0.46757   0.47488   0.63750   0.00000  Uiso   1.00
C604   C     0.53243   0.52512   0.36250   0.00000  Uiso   1.00
H605   H     0.44183   0.45489   0.61492   0.00000  Uiso   1.00
H606   H     0.55817   0.54511   0.38508   0.00000  Uiso   1.00
N607   N     0.65653   0.47462   0.43961   0.00000  Uiso   1.00
O608   O     0.66203   0.48943   0.39831   0.00000  Uiso   1.00
O609   O     0.63603   0.43832   0.44235   0.00000  Uiso   1.00
N610   N     0.34347   0.52538   0.56039   0.00000  Uiso   1.00
O611   O     0.33797   0.51058   0.60169   0.00000  Uiso   1.00
O612   O     0.36397   0.56168   0.55765   0.00000  Uiso   1.00
O613   O     0.43479   0.44912   0.37445   0.00000  Uiso   1.00
H614   H     0.41381   0.43300   0.34927   0.00000  Uiso   1.00
O615   O     0.56521   0.55088   0.62555   0.00000  Uiso   1.00
H616   H     0.58619   0.56700   0.65073   0.00000  Uiso   1.00
O617   O     0.83333   0.43989   0.53958   0.00000  Uiso   1.00
O618   O     0.83334   0.56011   0.46042   0.00000  Uiso   1.00
O619   O     0.83333   0.43988   0.46039   0.00000  Uiso   1.00
O620   O     0.83334   0.56012   0.53961   0.00000  Uiso   1.00
C621   C     0.83329   0.42070   0.49996   0.00000  Uiso   1.00
C622   C     0.83338   0.57930   0.50004   0.00000  Uiso   1.00
O623   O     0.75828   0.50000   0.53046   0.00000  Uiso   1.00
O624   O     0.90839   0.50000   0.46954   0.00000  Uiso   1.00
O625   O     0.75828   0.49999   0.45127   0.00000  Uiso   1.00
O626   O     0.90839   0.50001   0.54873   0.00000  Uiso   1.00
C627   C     0.73472   0.50003   0.48801   0.00000  Uiso   1.00
C628   C     0.93195   0.49997   0.51199   0.00000  Uiso   1.00
Cu629  Cu    0.83333   0.50001   0.54689   0.00000  Uiso   1.00
Cu630  Cu    0.83333   0.49999   0.45311   0.00000  Uiso   1.00
N631   N     0.83335   0.50001   0.61736   0.00000  Uiso   1.00
N632   N     0.83332   0.49999   0.38264   0.00000  Uiso   1.00
C633   C     0.67992   0.49522   0.48195   0.00000  Uiso   1.00
C634   C     0.98675   0.50478   0.51806   0.00000  Uiso   1.00
C635   C     0.83370   0.35455   0.45749   0.00000  Uiso   1.00
C636   C     0.83297   0.64545   0.54251   0.00000  Uiso   1.00
H637   H     0.83399   0.37050   0.42426   0.00000  Uiso   1.00
H638   H     0.83267   0.62950   0.57574   0.00000  Uiso   1.00
C639   C     0.83376   0.64531   0.45753   0.00000  Uiso   1.00
C640   C     0.83291   0.35469   0.54247   0.00000  Uiso   1.00
H641   H     0.83411   0.62924   0.42432   0.00000  Uiso   1.00
H642   H     0.83255   0.37076   0.57568   0.00000  Uiso   1.00
C643   C     0.83338   0.62392   0.50004   0.00000  Uiso   1.00
C644   C     0.83328   0.37608   0.49996   0.00000  Uiso   1.00
C645   C     0.80070   0.47467   0.35405   0.00000  Uiso   1.00
C646   C     0.86596   0.52533   0.64595   0.00000  Uiso   1.00
C647   C     0.80090   0.47488   0.63750   0.00000  Uiso   1.00
C648   C     0.86576   0.52512   0.36250   0.00000  Uiso   1.00
H649   H     0.77517   0.45489   0.61492   0.00000  Uiso   1.00
H650   H     0.89150   0.54511   0.38508   0.00000  Uiso   1.00
N651   N     0.98986   0.47462   0.43961   0.00000  Uiso   1.00
O652   O     0.99536   0.48943   0.39831   0.00000  Uiso   1.00
O653   O     0.96936   0.43832   0.44235   0.00000  Uiso   1.00
N654   N     0.67681   0.52538   0.56039   0.00000  Uiso   1.00
O655   O     0.67130   0.51058   0.60169   0.00000  Uiso   1.00
O656   O     0.69731   0.56168   0.55765   0.00000  Uiso   1.00
O657   O     0.76813   0.44912   0.37445   0.00000  Uiso   1.00
H658   H     0.74714   0.43300   0.34927   0.00000  Uiso   1.00
O659   O     0.89854   0.55088   0.62555   0.00000  Uiso   1.00
H660   H     0.91953   0.56700   0.65073   0.00000  Uiso   1.00
O661   O     0.16666   0.77322   0.53958   0.00000  Uiso   1.00
O662   O     0.16667   0.89345   0.46042   0.00000  Uiso   1.00
O663   O     0.16666   0.77321   0.46039   0.00000  Uiso   1.00
O664   O     0.16667   0.89346   0.53961   0.00000  Uiso   1.00
C665   C     0.16662   0.75403   0.49996   0.00000  Uiso   1.00
C666   C     0.16671   0.91264   0.50004   0.00000  Uiso   1.00
O667   O     0.09161   0.83334   0.53046   0.00000  Uiso   1.00
O668   O     0.24172   0.83333   0.46954   0.00000  Uiso   1.00
O669   O     0.09161   0.83333   0.45127   0.00000  Uiso   1.00
O670   O     0.24172   0.83334   0.54873   0.00000  Uiso   1.00
C671   C     0.06805   0.83336   0.48801   0.00000  Uiso   1.00
C672   C     0.26528   0.83331   0.51199   0.00000  Uiso   1.00
Cu673  Cu    0.16667   0.83334   0.54689   0.00000  Uiso   1.00
Cu674  Cu    0.16667   0.83333   0.45311   0.00000  Uiso   1.00
N675   N     0.16668   0.83334   0.61736   0.00000  Uiso   1.00
N676   N     0.16665   0.83332   0.38264   0.00000  Uiso   1.00
C677   C     0.01325   0.82856   0.48195   0.00000  Uiso   1.00
C678   C     0.32008   0.83811   0.51806   0.00000  Uiso   1.00
C679   C     0.16703   0.68788   0.45749   0.00000  Uiso   1.00
C680   C     0.16630   0.97879   0.54251   0.00000  Uiso   1.00
H681   H     0.16733   0.70383   0.42426   0.00000  Uiso   1.00
H682   H     0.16601   0.96283   0.57574   0.00000  Uiso   1.00
C683   C     0.16709   0.97864   0.45753   0.00000  Uiso   1.00
C684   C     0.16624   0.68803   0.54247   0.00000  Uiso   1.00
H685   H     0.16745   0.96257   0.42432   0.00000  Uiso   1.00
H686   H     0.16588   0.70409   0.57568   0.00000  Uiso   1.00
C687   C     0.16672   0.95726   0.50004   0.00000  Uiso   1.00
C688   C     0.16662   0.70941   0.49996   0.00000  Uiso   1.00
C689   C     0.13404   0.80800   0.35405   0.00000  Uiso   1.00
C690   C     0.19930   0.85866   0.64595   0.00000  Uiso   1.00
C691   C     0.13424   0.80821   0.63750   0.00000  Uiso   1.00
C692   C     0.19910   0.85845   0.36250   0.00000  Uiso   1.00
H693   H     0.10850   0.78822   0.61492   0.00000  Uiso   1.00
H694   H     0.22483   0.87845   0.38508   0.00000  Uiso   1.00
N695   N     0.32319   0.80796   0.43961   0.00000  Uiso   1.00
O696   O     0.32869   0.82276   0.39831   0.00000  Uiso   1.00
O697   O     0.30270   0.77166   0.44235   0.00000  Uiso   1.00
N698   N     0.01014   0.85871   0.56039   0.00000  Uiso   1.00
O699   O     0.00463   0.84391   0.60169   0.00000  Uiso   1.00
O700   O     0.03064   0.89501   0.55765   0.00000  Uiso   1.00
O701   O     0.10146   0.78245   0.37445   0.00000  Uiso   1.00
H702   H     0.08047   0.76633   0.34927   0.00000  Uiso   1.00
O703   O     0.23187   0.88422   0.62555   0.00000  Uiso   1.00
H704   H     0.25286   0.90034   0.65073   0.00000  Uiso   1.00
O705   O     0.50000   0.77322   0.53958   0.00000  Uiso   1.00
O706   O     0.50000   0.89345   0.46042   0.00000  Uiso   1.00
O707   O     0.50000   0.77321   0.46039   0.00000  Uiso   1.00
O708   O     0.50000   0.89346   0.53961   0.00000  Uiso   1.00
C709   C     0.49996   0.75403   0.49996   0.00000  Uiso   1.00
C710   C     0.50004   0.91264   0.50004   0.00000  Uiso   1.00
O711   O     0.42495   0.83334   0.53046   0.00000  Uiso   1.00
O712   O     0.57505   0.83333   0.46954   0.00000  Uiso   1.00
O713   O     0.42494   0.83333   0.45127   0.00000  Uiso   1.00
O714   O     0.57506   0.83334   0.54873   0.00000  Uiso   1.00
C715   C     0.40139   0.83336   0.48801   0.00000  Uiso   1.00
C716   C     0.59861   0.83331   0.51199   0.00000  Uiso   1.00
Cu717  Cu    0.50000   0.83334   0.54689   0.00000  Uiso   1.00
Cu718  Cu    0.50000   0.83333   0.45311   0.00000  Uiso   1.00
N719   N     0.50001   0.83334   0.61736   0.00000  Uiso   1.00
N720   N     0.49999   0.83332   0.38264   0.00000  Uiso   1.00
C721   C     0.34659   0.82856   0.48195   0.00000  Uiso   1.00
C722   C     0.65341   0.83811   0.51806   0.00000  Uiso   1.00
C723   C     0.50036   0.68788   0.45749   0.00000  Uiso   1.00
C724   C     0.49963   0.97879   0.54251   0.00000  Uiso   1.00
H725   H     0.50066   0.70383   0.42426   0.00000  Uiso   1.00
H726   H     0.49934   0.96283   0.57574   0.00000  Uiso   1.00
C727   C     0.50043   0.97864   0.45753   0.00000  Uiso   1.00
C728   C     0.49957   0.68803   0.54247   0.00000  Uiso   1.00
H729   H     0.50078   0.96257   0.42432   0.00000  Uiso   1.00
H730   H     0.49922   0.70409   0.57568   0.00000  Uiso   1.00
C731   C     0.50005   0.95726   0.50004   0.00000  Uiso   1.00
C732   C     0.49995   0.70941   0.49996   0.00000  Uiso   1.00
C733   C     0.46737   0.80800   0.35405   0.00000  Uiso   1.00
C734   C     0.53263   0.85866   0.64595   0.00000  Uiso   1.00
C735   C     0.46757   0.80821   0.63750   0.00000  Uiso   1.00
C736   C     0.53243   0.85845   0.36250   0.00000  Uiso   1.00
H737   H     0.44183   0.78822   0.61492   0.00000  Uiso   1.00
H738   H     0.55817   0.87845   0.38508   0.00000  Uiso   1.00
N739   N     0.65653   0.80796   0.43961   0.00000  Uiso   1.00
O740   O     0.66203   0.82276   0.39831   0.00000  Uiso   1.00
O741   O     0.63603   0.77166   0.44235   0.00000  Uiso   1.00
N742   N     0.34347   0.85871   0.56039   0.00000  Uiso   1.00
O743   O     0.33797   0.84391   0.60169   0.00000  Uiso   1.00
O744   O     0.36397   0.89501   0.55765   0.00000  Uiso   1.00
O745   O     0.43479   0.78245   0.37445   0.00000  Uiso   1.00
H746   H     0.41381   0.76633   0.34927   0.00000  Uiso   1.00
O747   O     0.56521   0.88422   0.62555   0.00000  Uiso   1.00
H748   H     0.58619   0.90034   0.65073   0.00000  Uiso   1.00
O749   O     0.83333   0.77322   0.53958   0.00000  Uiso   1.00
O750   O     0.83334   0.89345   0.46042   0.00000  Uiso   1.00
O751   O     0.83333   0.77321   0.46039   0.00000  Uiso   1.00
O752   O     0.83334   0.89346   0.53961   0.00000  Uiso   1.00
C753   C     0.83329   0.75403   0.49996   0.00000  Uiso   1.00
C754   C     0.83338   0.91264   0.50004   0.00000  Uiso   1.00
O755   O     0.75828   0.83334   0.53046   0.00000  Uiso   1.00
O756   O     0.90839   0.83333   0.46954   0.00000  Uiso   1.00
O757   O     0.75828   0.83333   0.45127   0.00000  Uiso   1.00
O758   O     0.90839   0.83334   0.54873   0.00000  Uiso   1.00
C759   C     0.73472   0.83336   0.48801   0.00000  Uiso   1.00
C760   C     0.93195   0.83331   0.51199   0.00000  Uiso   1.00
Cu761  Cu    0.83333   0.83334   0.54689   0.00000  Uiso   1.00
Cu762  Cu    0.83333   0.83333   0.45311   0.00000  Uiso   1.00
N763   N     0.83335   0.83334   0.61736   0.00000  Uiso   1.00
N764   N     0.83332   0.83332   0.38264   0.00000  Uiso   1.00
C765   C     0.67992   0.82856   0.48195   0.00000  Uiso   1.00
C766   C     0.98675   0.83811   0.51806   0.00000  Uiso   1.00
C767   C     0.83370   0.68788   0.45749   0.00000  Uiso   1.00
C768   C     0.83297   0.97879   0.54251   0.00000  Uiso   1.00
H769   H     0.83399   0.70383   0.42426   0.00000  Uiso   1.00
H770   H     0.83267   0.96283   0.57574   0.00000  Uiso   1.00
C771   C     0.83376   0.97864   0.45753   0.00000  Uiso   1.00
C772   C     0.83291   0.68803   0.54247   0.00000  Uiso   1.00
H773   H     0.83411   0.96257   0.42432   0.00000  Uiso   1.00
H774   H     0.83255   0.70409   0.57568   0.00000  Uiso   1.00
C775   C     0.83338   0.95726   0.50004   0.00000  Uiso   1.00
C776   C     0.83328   0.70941   0.49996   0.00000  Uiso   1.00
C777   C     0.80070   0.80800   0.35405   0.00000  Uiso   1.00
C778   C     0.86596   0.85866   0.64595   0.00000  Uiso   1.00
C779   C     0.80090   0.80821   0.63750   0.00000  Uiso   1.00
C780   C     0.86576   0.85845   0.36250   0.00000  Uiso   1.00
H781   H     0.77517   0.78822   0.61492   0.00000  Uiso   1.00
H782   H     0.89150   0.87845   0.38508   0.00000  Uiso   1.00
N783   N     0.98986   0.80796   0.43961   0.00000  Uiso   1.00
O784   O     0.99536   0.82276   0.39831   0.00000  Uiso   1.00
O785   O     0.96936   0.77166   0.44235   0.00000  Uiso   1.00
N786   N     0.67681   0.85871   0.56039   0.00000  Uiso   1.00
O787   O     0.67130   0.84391   0.60169   0.00000  Uiso   1.00
O788   O     0.69731   0.89501   0.55765   0.00000  Uiso   1.00
O789   O     0.76813   0.78245   0.37445   0.00000  Uiso   1.00
H790   H     0.74714   0.76633   0.34927   0.00000  Uiso   1.00
O791   O     0.89854   0.88422   0.62555   0.00000  Uiso   1.00
H792   H     0.91953   0.90034   0.65073   0.00000  Uiso   1.00
O793   O     0.16666   0.10655   0.87291   0.00000  Uiso   1.00
O794   O     0.16667   0.22678   0.79375   0.00000  Uiso   1.00
O795   O     0.16666   0.10654   0.79372   0.00000  Uiso   1.00
O796   O     0.16667   0.22679   0.87294   0.00000  Uiso   1.00
C797   C     0.16662   0.08736   0.83329   0.00000  Uiso   1.00
C798   C     0.16671   0.24597   0.83338   0.00000  Uiso   1.00
O799   O     0.09161   0.16667   0.86379   0.00000  Uiso   1.00
O800   O     0.24172   0.16666   0.80288   0.00000  Uiso   1.00
O801   O     0.09161   0.16666   0.78460   0.00000  Uiso   1.00
O802   O     0.24172   0.16667   0.88207   0.00000  Uiso   1.00
C803   C     0.06805   0.16669   0.82134   0.00000  Uiso   1.00
C804   C     0.26528   0.16664   0.84532   0.00000  Uiso   1.00
Cu805  Cu    0.16667   0.16667   0.88022   0.00000  Uiso   1.00
Cu806  Cu    0.16667   0.16666   0.78645   0.00000  Uiso   1.00
N807   N     0.16668   0.16668   0.95069   0.00000  Uiso   1.00
N808   N     0.16665   0.16666   0.71597   0.00000  Uiso   1.00
C809   C     0.01325   0.16189   0.81528   0.00000  Uiso   1.00
C810   C     0.32008   0.17144   0.85139   0.00000  Uiso   1.00
C811   C     0.16703   0.02121   0.79082   0.00000  Uiso   1.00
C812   C     0.16630   0.31212   0.87585   0.00000  Uiso   1.00
H813   H     0.16733   0.03717   0.75759   0.00000  Uiso   1.00
H814   H     0.16601   0.29617   0.90908   0.00000  Uiso   1.00
C815   C     0.16709   0.31197   0.79086   0.00000  Uiso   1.00
C816   C     0.16624   0.02136   0.87580   0.00000  Uiso   1.00
H817   H     0.16745   0.29591   0.75765   0.00000  Uiso   1.00
H818   H     0.16588   0.03743   0.90901   0.00000  Uiso   1.00
C819   C     0.16672   0.29059   0.83338   0.00000  Uiso   1.00
C820   C     0.16662   0.04274   0.83329   0.00000  Uiso   1.00
C821   C     0.13404   0.14134   0.68738   0.00000  Uiso   1.00
C822   C     0.19930   0.19200   0.97929   0.00000  Uiso   1.00
C823   C     0.13424   0.14155   0.97083   0.00000  Uiso   1.00
C824   C     0.19910   0.19179   0.69583   0.00000  Uiso   1.00
H825   H     0.10850   0.12155   0.94825   0.00000  Uiso   1.00
H826   H     0.22483   0.21178   0.71841   0.00000  Uiso   1.00
N827   N     0.32319   0.14129   0.77294   0.00000  Uiso   1.00
O828   O     0.32869   0.15610   0.73164   0.00000  Uiso   1.00
O829   O     0.30270   0.10499   0.77568   0.00000  Uiso   1.00
N830   N     0.01014   0.19205   0.89373   0.00000  Uiso   1.00
O831   O     0.00463   0.17724   0.93503   0.00000  Uiso   1.00
O832   O     0.03064   0.22834   0.89098   0.00000  Uiso   1.00
O833   O     0.10146   0.11579   0.70778   0.00000  Uiso   1.00
H834   H     0.08047   0.09966   0.68260   0.00000  Uiso   1.00
O835   O     0.23187   0.21755   0.95889   0.00000  Uiso   1.00
H836   H     0.25286   0.23367   0.98407   0.00000  Uiso   1.00
O837   O     0.50000   0.10655   0.87291   0.00000  Uiso   1.00
O838   O     0.50000   0.22678   0.79375   0.00000  Uiso   1.00
O839   O     0.50000   0.10654   0.79372   0.00000  Uiso   1.00
O840   O     0.50000   0.22679   0.87294   0.00000  Uiso   1.00
C841   C     0.49996   0.08736   0.83329   0.00000  Uiso   1.00
C842   C     0.50004   0.24597   0.83338   0.00000  Uiso   1.00
O843   O     0.42495   0.16667   0.86379   0.00000  Uiso   1.00
O844   O     0.57505   0.16666   0.80288   0.00000  Uiso   1.00
O845   O     0.42494   0.16666   0.78460   0.00000  Uiso   1.00
O846   O     0.57506   0.16667   0.88207   0.00000  Uiso   1.00
C847   C     0.40139   0.16669   0.82134   0.00000  Uiso   1.00
C848   C     0.59861   0.16664   0.84532   0.00000  Uiso   1.00
Cu849  Cu    0.50000   0.16667   0.88022   0.00000  Uiso   1.00
Cu850  Cu    0.50000   0.16666   0.78645   0.00000  Uiso   1.00
N851   N     0.50001   0.16668   0.95069   0.00000  Uiso   1.00
N852   N     0.49999   0.16666   0.71597   0.00000  Uiso   1.00
C853   C     0.34659   0.16189   0.81528   0.00000  Uiso   1.00
C854   C     0.65341   0.17144   0.85139   0.00000  Uiso   1.00
C855   C     0.50036   0.02121   0.79082   0.00000  Uiso   1.00
C856   C     0.49963   0.31212   0.87585   0.00000  Uiso   1.00
H857   H     0.50066   0.03717   0.75759   0.00000  Uiso   1.00
H858   H     0.49934   0.29617   0.90908   0.00000  Uiso   1.00
C859   C     0.50043   0.31197   0.79086   0.00000  Uiso   1.00
C860   C     0.49957   0.02136   0.87580   0.00000  Uiso   1.00
H861   H     0.50078   0.29591   0.75765   0.00000  Uiso   1.00
H862   H     0.49922   0.03743   0.90901   0.00000  Uiso   1.00
C863   C     0.50005   0.29059   0.83338   0.00000  Uiso   1.00
C864   C     0.49995   0.04274   0.83329   0.00000  Uiso   1.00
C865   C     0.46737   0.14134   0.68738   0.00000  Uiso   1.00
C866   C     0.53263   0.19200   0.97929   0.00000  Uiso   1.00
C867   C     0.46757   0.14155   0.97083   0.00000  Uiso   1.00
C868   C     0.53243   0.19179   0.69583   0.00000  Uiso   1.00
H869   H     0.44183   0.12155   0.94825   0.00000  Uiso   1.00
H870   H     0.55817   0.21178   0.71841   0.00000  Uiso   1.00
N871   N     0.65653   0.14129   0.77294   0.00000  Uiso   1.00
O872   O     0.66203   0.15610   0.73164   0.00000  Uiso   1.00
O873   O     0.63603   0.10499   0.77568   0.00000  Uiso   1.00
N874   N     0.34347   0.19205   0.89373   0.00000  Uiso   1.00
O875   O     0.33797   0.17724   0.93503   0.00000  Uiso   1.00
O876   O     0.36397   0.22834   0.89098   0.00000  Uiso   1.00
O877   O     0.43479   0.11579   0.70778   0.00000  Uiso   1.00
H878   H     0.41381   0.09966   0.68260   0.00000  Uiso   1.00
O879   O     0.56521   0.21755   0.95889   0.00000  Uiso   1.00
H880   H     0.58619   0.23367   0.98407   0.00000  Uiso   1.00
O881   O     0.83333   0.10655   0.87291   0.00000  Uiso   1.00
O882   O     0.83334   0.22678   0.79375   0.00000  Uiso   1.00
O883   O     0.83333   0.10654   0.79372   0.00000  Uiso   1.00
O884   O     0.83334   0.22679   0.87294   0.00000  Uiso   1.00
C885   C     0.83329   0.08736   0.83329   0.00000  Uiso   1.00
C886   C     0.83338   0.24597   0.83338   0.00000  Uiso   1.00
O887   O     0.75828   0.16667   0.86379   0.00000  Uiso   1.00
O888   O     0.90839   0.16666   0.80288   0.00000  Uiso   1.00
O889   O     0.75828   0.16666   0.78460   0.00000  Uiso   1.00
O890   O     0.90839   0.16667   0.88207   0.00000  Uiso   1.00
C891   C     0.73472   0.16669   0.82134   0.00000  Uiso   1.00
C892   C     0.93195   0.16664   0.84532   0.00000  Uiso   1.00
Cu893  Cu    0.83333   0.16667   0.88022   0.00000  Uiso   1.00
Cu894  Cu    0.83333   0.16666   0.78645   0.00000  Uiso   1.00
N895   N     0.83335   0.16668   0.95069   0.00000  Uiso   1.00
N896   N     0.83332   0.16666   0.71597   0.00000  Uiso   1.00
C897   C     0.67992   0.16189   0.81528   0.00000  Uiso   1.00
C898   C     0.98675   0.17144   0.85139   0.00000  Uiso   1.00
C899   C     0.83370   0.02121   0.79082   0.00000  Uiso   1.00
C900   C     0.83297   0.31212   0.87585   0.00000  Uiso   1.00
H901   H     0.83399   0.03717   0.75759   0.00000  Uiso   1.00
H902   H     0.83267   0.29617   0.90908   0.00000  Uiso   1.00
C903   C     0.83376   0.31197   0.79086   0.00000  Uiso   1.00
C904   C     0.83291   0.02136   0.87580   0.00000  Uiso   1.00
H905   H     0.83411   0.29591   0.75765   0.00000  Uiso   1.00
H906   H     0.83255   0.03743   0.90901   0.00000  Uiso   1.00
C907   C     0.83338   0.29059   0.83338   0.00000  Uiso   1.00
C908   C     0.83328   0.04274   0.83329   0.00000  Uiso   1.00
C909   C     0.80070   0.14134   0.68738   0.00000  Uiso   1.00
C910   C     0.86596   0.19200   0.97929   0.00000  Uiso   1.00
C911   C     0.80090   0.14155   0.97083   0.00000  Uiso   1.00
C912   C     0.86576   0.19179   0.69583   0.00000  Uiso   1.00
H913   H     0.77517   0.12155   0.94825   0.00000  Uiso   1.00
H914   H     0.89150   0.21178   0.71841   0.00000  Uiso   1.00
N915   N     0.98986   0.14129   0.77294   0.00000  Uiso   1.00
O916   O     0.99536   0.15610   0.73164   0.00000  Uiso   1.00
O917   O     0.96936   0.10499   0.77568   0.00000  Uiso   1.00
N918   N     0.67681   0.19205   0.89373   0.00000  Uiso   1.00
O919   O     0.67130   0.17724   0.93503   0.00000  Uiso   1.00
O920   O     0.69731   0.22834   0.89098   0.00000  Uiso   1.00
O921   O     0.76813   0.11579   0.70778   0.00000  Uiso   1.00
H922   H     0.74714   0.09966   0.68260   0.00000  Uiso   1.00
O923   O     0.89854   0.21755   0.95889   0.00000  Uiso   1.00
H924   H     0.91953   0.23367   0.98407   0.00000  Uiso   1.00
O925   O     0.16666   0.43989   0.87291   0.00000  Uiso   1.00
O926   O     0.16667   0.56011   0.79375   0.00000  Uiso   1.00
O927   O     0.16666   0.43988   0.79372   0.00000  Uiso   1.00
O928   O     0.16667   0.56012   0.87294   0.00000  Uiso   1.00
C929   C     0.16662   0.42070   0.83329   0.00000  Uiso   1.00
C930   C     0.16671   0.57930   0.83338   0.00000  Uiso   1.00
O931   O     0.09161   0.50000   0.86379   0.00000  Uiso   1.00
O932   O     0.24172   0.50000   0.80288   0.00000  Uiso   1.00
O933   O     0.09161   0.49999   0.78460   0.00000  Uiso   1.00
O934   O     0.24172   0.50001   0.88207   0.00000  Uiso   1.00
C935   C     0.06805   0.50003   0.82134   0.00000  Uiso   1.00
C936   C     0.26528   0.49997   0.84532   0.00000  Uiso   1.00
Cu937  Cu    0.16667   0.50001   0.88022   0.00000  Uiso   1.00
Cu938  Cu    0.16667   0.49999   0.78645   0.00000  Uiso   1.00
N939   N     0.16668   0.50001   0.95069   0.00000  Uiso   1.00
N940   N     0.16665   0.49999   0.71597   0.00000  Uiso   1.00
C941   C     0.01325   0.49522   0.81528   0.00000  Uiso   1.00
C942   C     0.32008   0.50478   0.85139   0.00000  Uiso   1.00
C943   C     0.16703   0.35455   0.79082   0.00000  Uiso   1.00
C944   C     0.16630   0.64545   0.87585   0.00000  Uiso   1.00
H945   H     0.16733   0.37050   0.75759   0.00000  Uiso   1.00
H946   H     0.16601   0.62950   0.90908   0.00000  Uiso   1.00
C947   C     0.16709   0.64531   0.79086   0.00000  Uiso   1.00
C948   C     0.16624   0.35469   0.87580   0.00000  Uiso   1.00
H949   H     0.16745   0.62924   0.75765   0.00000  Uiso   1.00
H950   H     0.16588   0.37076   0.90901   0.00000  Uiso   1.00
C951   C     0.16672   0.62392   0.83338   0.00000  Uiso   1.00
C952   C     0.16662   0.37608   0.83329   0.00000  Uiso   1.00
C953   C     0.13404   0.47467   0.68738   0.00000  Uiso   1.00
C954   C     0.19930   0.52533   0.97929   0.00000  Uiso   1.00
C955   C     0.13424   0.47488   0.97083   0.00000  Uiso   1.00
C956   C     0.19910   0.52512   0.69583   0.00000  Uiso   1.00
H957   H     0.10850   0.45489   0.94825   0.00000  Uiso   1.00
H958   H     0.22483   0.54511   0.71841   0.00000  Uiso   1.00
N959   N     0.32319   0.47462   0.77294   0.00000  Uiso   1.00
O960   O     0.32869   0.48943   0.73164   0.00000  Uiso   1.00
O961   O     0.30270   0.43832   0.77568   0.00000  Uiso   1.00
N962   N     0.01014   0.52538   0.89373   0.00000  Uiso   1.00
O963   O     0.00463   0.51058   0.93503   0.00000  Uiso   1.00
O964   O     0.03064   0.56168   0.89098   0.00000  Uiso   1.00
O965   O     0.10146   0.44912   0.70778   0.00000  Uiso   1.00
H966   H     0.08047   0.43300   0.68260   0.00000  Uiso   1.00
O967   O     0.23187   0.55088   0.95889   0.00000  Uiso   1.00
H968   H     0.25286   0.56700   0.98407   0.00000  Uiso   1.00
O969   O     0.50000   0.43989   0.87291   0.00000  Uiso   1.00
O970   O     0.50000   0.56011   0.79375   0.00000  Uiso   1.00
O971   O     0.50000   0.43988   0.79372   0.00000  Uiso   1.00
O972   O     0.50000   0.56012   0.87294   0.00000  Uiso   1.00
C973   C     0.49996   0.42070   0.83329   0.00000  Uiso   1.00
C974   C     0.50004   0.57930   0.83338   0.00000  Uiso   1.00
O975   O     0.42495   0.50000   0.86379   0.00000  Uiso   1.00
O976   O     0.57505   0.50000   0.80288   0.00000  Uiso   1.00
O977   O     0.42494   0.49999   0.78460   0.00000  Uiso   1.00
O978   O     0.57506   0.50001   0.88207   0.00000  Uiso   1.00
C979   C     0.40139   0.50003   0.82134   0.00000  Uiso   1.00
C980   C     0.59861   0.49997   0.84532   0.00000  Uiso   1.00
Cu981  Cu    0.50000   0.50001   0.88022   0.00000  Uiso   1.00
Cu982  Cu    0.50000   0.49999   0.78645   0.00000  Uiso   1.00
N983   N     0.50001   0.50001   0.95069   0.00000  Uiso   1.00
N984   N     0.49999   0.49999   0.71597   0.00000  Uiso   1.00
C985   C     0.34659   0.49522   0.81528   0.00000  Uiso   1.00
C986   C     0.65341   0.50478   0.85139   0.00000  Uiso   1.00
C987   C     0.50036   0.35455   0.79082   0.00000  Uiso   1.00
C988   C     0.49963   0.64545   0.87585   0.00000  Uiso   1.00
H989   H     0.50066   0.37050   0.75759   0.00000  Uiso   1.00
H990   H     0.49934   0.62950   0.90908   0.00000  Uiso   1.00
C991   C     0.50043   0.64531   0.79086   0.00000  Uiso   1.00
C992   C     0.49957   0.35469   0.87580   0.00000  Uiso   1.00
H993   H     0.50078   0.62924   0.75765   0.00000  Uiso   1.00
H994   H     0.49922   0.37076   0.90901   0.00000  Uiso   1.00
C995   C     0.50005   0.62392   0.83338   0.00000  Uiso   1.00
C996   C     0.49995   0.37608   0.83329   0.00000  Uiso   1.00
C997   C     0.46737   0.47467   0.68738   0.00000  Uiso   1.00
C998   C     0.53263   0.52533   0.97929   0.00000  Uiso   1.00
C999   C     0.46757   0.47488   0.97083   0.00000  Uiso   1.00
C1000  C     0.53243   0.52512   0.69583   0.00000  Uiso   1.00
H1001  H     0.44183   0.45489   0.94825   0.00000  Uiso   1.00
H1002  H     0.55817   0.54511   0.71841   0.00000  Uiso   1.00
N1003  N     0.65653   0.47462   0.77294   0.00000  Uiso   1.00
O1004  O     0.66203   0.48943   0.73164   0.00000  Uiso   1.00
O1005  O     0.63603   0.43832   0.77568   0.00000  Uiso   1.00
N1006  N     0.34347   0.52538   0.89373   0.00000  Uiso   1.00
O1007  O     0.33797   0.51058   0.93503   0.00000  Uiso   1.00
O1008  O     0.36397   0.56168   0.89098   0.00000  Uiso   1.00
O1009  O     0.43479   0.44912   0.70778   0.00000  Uiso   1.00
H1010  H     0.41381   0.43300   0.68260   0.00000  Uiso   1.00
O1011  O     0.56521   0.55088   0.95889   0.00000  Uiso   1.00
H1012  H     0.58619   0.56700   0.98407   0.00000  Uiso   1.00
O1013  O     0.83333   0.43989   0.87291   0.00000  Uiso   1.00
O1014  O     0.83334   0.56011   0.79375   0.00000  Uiso   1.00
O1015  O     0.83333   0.43988   0.79372   0.00000  Uiso   1.00
O1016  O     0.83334   0.56012   0.87294   0.00000  Uiso   1.00
C1017  C     0.83329   0.42070   0.83329   0.00000  Uiso   1.00
C1018  C     0.83338   0.57930   0.83338   0.00000  Uiso   1.00
O1019  O     0.75828   0.50000   0.86379   0.00000  Uiso   1.00
O1020  O     0.90839   0.50000   0.80288   0.00000  Uiso   1.00
O1021  O     0.75828   0.49999   0.78460   0.00000  Uiso   1.00
O1022  O     0.90839   0.50001   0.88207   0.00000  Uiso   1.00
C1023  C     0.73472   0.50003   0.82134   0.00000  Uiso   1.00
C1024  C     0.93195   0.49997   0.84532   0.00000  Uiso   1.00
Cu1025 Cu    0.83333   0.50001   0.88022   0.00000  Uiso   1.00
Cu1026 Cu    0.83333   0.49999   0.78645   0.00000  Uiso   1.00
N1027  N     0.83335   0.50001   0.95069   0.00000  Uiso   1.00
N1028  N     0.83332   0.49999   0.71597   0.00000  Uiso   1.00
C1029  C     0.67992   0.49522   0.81528   0.00000  Uiso   1.00
C1030  C     0.98675   0.50478   0.85139   0.00000  Uiso   1.00
C1031  C     0.83370   0.35455   0.79082   0.00000  Uiso   1.00
C1032  C     0.83297   0.64545   0.87585   0.00000  Uiso   1.00
H1033  H     0.83399   0.37050   0.75759   0.00000  Uiso   1.00
H1034  H     0.83267   0.62950   0.90908   0.00000  Uiso   1.00
C1035  C     0.83376   0.64531   0.79086   0.00000  Uiso   1.00
C1036  C     0.83291   0.35469   0.87580   0.00000  Uiso   1.00
H1037  H     0.83411   0.62924   0.75765   0.00000  Uiso   1.00
H1038  H     0.83255   0.37076   0.90901   0.00000  Uiso   1.00
C1039  C     0.83338   0.62392   0.83338   0.00000  Uiso   1.00
C1040  C     0.83328   0.37608   0.83329   0.00000  Uiso   1.00
C1041  C     0.80070   0.47467   0.68738   0.00000  Uiso   1.00
C1042  C     0.86596   0.52533   0.97929   0.00000  Uiso   1.00
C1043  C     0.80090   0.47488   0.97083   0.00000  Uiso   1.00
C1044  C     0.86576   0.52512   0.69583   0.00000  Uiso   1.00
H1045  H     0.77517   0.45489   0.94825   0.00000  Uiso   1.00
H1046  H     0.89150   0.54511   0.71841   0.00000  Uiso   1.00
N1047  N     0.98986   0.47462   0.77294   0.00000  Uiso   1.00
O1048  O     0.99536   0.48943   0.73164   0.00000  Uiso   1.00
O1049  O     0.96936   0.43832   0.77568   0.00000  Uiso   1.00
N1050  N     0.67681   0.52538   0.89373   0.00000  Uiso   1.00
O1051  O     0.67130   0.51058   0.93503   0.00000  Uiso   1.00
O1052  O     0.69731   0.56168   0.89098   0.00000  Uiso   1.00
O1053  O     0.76813   0.44912   0.70778   0.00000  Uiso   1.00
H1054  H     0.74714   0.43300   0.68260   0.00000  Uiso   1.00
O1055  O     0.89854   0.55088   0.95889   0.00000  Uiso   1.00
H1056  H     0.91953   0.56700   0.98407   0.00000  Uiso   1.00
O1057  O     0.16666   0.77322   0.87291   0.00000  Uiso   1.00
O1058  O     0.16667   0.89345   0.79375   0.00000  Uiso   1.00
O1059  O     0.16666   0.77321   0.79372   0.00000  Uiso   1.00
O1060  O     0.16667   0.89346   0.87294   0.00000  Uiso   1.00
C1061  C     0.16662   0.75403   0.83329   0.00000  Uiso   1.00
C1062  C     0.16671   0.91264   0.83338   0.00000  Uiso   1.00
O1063  O     0.09161   0.83334   0.86379   0.00000  Uiso   1.00
O1064  O     0.24172   0.83333   0.80288   0.00000  Uiso   1.00
O1065  O     0.09161   0.83333   0.78460   0.00000  Uiso   1.00
O1066  O     0.24172   0.83334   0.88207   0.00000  Uiso   1.00
C1067  C     0.06805   0.83336   0.82134   0.00000  Uiso   1.00
C1068  C     0.26528   0.83331   0.84532   0.00000  Uiso   1.00
Cu1069 Cu    0.16667   0.83334   0.88022   0.00000  Uiso   1.00
Cu1070 Cu    0.16667   0.83333   0.78645   0.00000  Uiso   1.00
N1071  N     0.16668   0.83334   0.95069   0.00000  Uiso   1.00
N1072  N     0.16665   0.83332   0.71597   0.00000  Uiso   1.00
C1073  C     0.01325   0.82856   0.81528   0.00000  Uiso   1.00
C1074  C     0.32008   0.83811   0.85139   0.00000  Uiso   1.00
C1075  C     0.16703   0.68788   0.79082   0.00000  Uiso   1.00
C1076  C     0.16630   0.97879   0.87585   0.00000  Uiso   1.00
H1077  H     0.16733   0.70383   0.75759   0.00000  Uiso   1.00
H1078  H     0.16601   0.96283   0.90908   0.00000  Uiso   1.00
C1079  C     0.16709   0.97864   0.79086   0.00000  Uiso   1.00
C1080  C     0.16624   0.68803   0.87580   0.00000  Uiso   1.00
H1081  H     0.16745   0.96257   0.75765   0.00000  Uiso   1.00
H1082  H     0.16588   0.70409   0.90901   0.00000  Uiso   1.00
C1083  C     0.16672   0.95726   0.83338   0.00000  Uiso   1.00
C1084  C     0.16662   0.70941   0.83329   0.00000  Uiso   1.00
C1085  C     0.13404   0.80800   0.68738   0.00000  Uiso   1.00
C1086  C     0.19930   0.85866   0.97929   0.00000  Uiso   1.00
C1087  C     0.13424   0.80821   0.97083   0.00000  Uiso   1.00
C1088  C     0.19910   0.85845   0.69583   0.00000  Uiso   1.00
H1089  H     0.10850   0.78822   0.94825   0.00000  Uiso   1.00
H1090  H     0.22483   0.87845   0.71841   0.00000  Uiso   1.00
N1091  N     0.32319   0.80796   0.77294   0.00000  Uiso   1.00
O1092  O     0.32869   0.82276   0.73164   0.00000  Uiso   1.00
O1093  O     0.30270   0.77166   0.77568   0.00000  Uiso   1.00
N1094  N     0.01014   0.85871   0.89373   0.00000  Uiso   1.00
O1095  O     0.00463   0.84391   0.93503   0.00000  Uiso   1.00
O1096  O     0.03064   0.89501   0.89098   0.00000  Uiso   1.00
O1097  O     0.10146   0.78245   0.70778   0.00000  Uiso   1.00
H1098  H     0.08047   0.76633   0.68260   0.00000  Uiso   1.00
O1099  O     0.23187   0.88422   0.95889   0.00000  Uiso   1.00
H1100  H     0.25286   0.90034   0.98407   0.00000  Uiso   1.00
O1101  O     0.50000   0.77322   0.87291   0.00000  Uiso   1.00
O1102  O     0.50000   0.89345   0.79375   0.00000  Uiso   1.00
O1103  O     0.50000   0.77321   0.79372   0.00000  Uiso   1.00
O1104  O     0.50000   0.89346   0.87294   0.00000  Uiso   1.00
C1105  C     0.49996   0.75403   0.83329   0.00000  Uiso   1.00
C1106  C     0.50004   0.91264   0.83338   0.00000  Uiso   1.00
O1107  O     0.42495   0.83334   0.86379   0.00000  Uiso   1.00
O1108  O     0.57505   0.83333   0.80288   0.00000  Uiso   1.00
O1109  O     0.42494   0.83333   0.78460   0.00000  Uiso   1.00
O1110  O     0.57506   0.83334   0.88207   0.00000  Uiso   1.00
C1111  C     0.40139   0.83336   0.82134   0.00000  Uiso   1.00
C1112  C     0.59861   0.83331   0.84532   0.00000  Uiso   1.00
Cu1113 Cu    0.50000   0.83334   0.88022   0.00000  Uiso   1.00
Cu1114 Cu    0.50000   0.83333   0.78645   0.00000  Uiso   1.00
N1115  N     0.50001   0.83334   0.95069   0.00000  Uiso   1.00
N1116  N     0.49999   0.83332   0.71597   0.00000  Uiso   1.00
C1117  C     0.34659   0.82856   0.81528   0.00000  Uiso   1.00
C1118  C     0.65341   0.83811   0.85139   0.00000  Uiso   1.00
C1119  C     0.50036   0.68788   0.79082   0.00000  Uiso   1.00
C1120  C     0.49963   0.97879   0.87585   0.00000  Uiso   1.00
H1121  H     0.50066   0.70383   0.75759   0.00000  Uiso   1.00
H1122  H     0.49934   0.96283   0.90908   0.00000  Uiso   1.00
C1123  C     0.50043   0.97864   0.79086   0.00000  Uiso   1.00
C1124  C     0.49957   0.68803   0.87580   0.00000  Uiso   1.00
H1125  H     0.50078   0.96257   0.75765   0.00000  Uiso   1.00
H1126  H     0.49922   0.70409   0.90901   0.00000  Uiso   1.00
C1127  C     0.50005   0.95726   0.83338   0.00000  Uiso   1.00
C1128  C     0.49995   0.70941   0.83329   0.00000  Uiso   1.00
C1129  C     0.46737   0.80800   0.68738   0.00000  Uiso   1.00
C1130  C     0.53263   0.85866   0.97929   0.00000  Uiso   1.00
C1131  C     0.46757   0.80821   0.97083   0.00000  Uiso   1.00
C1132  C     0.53243   0.85845   0.69583   0.00000  Uiso   1.00
H1133  H     0.44183   0.78822   0.94825   0.00000  Uiso   1.00
H1134  H     0.55817   0.87845   0.71841   0.00000  Uiso   1.00
N1135  N     0.65653   0.80796   0.77294   0.00000  Uiso   1.00
O1136  O     0.66203   0.82276   0.73164   0.00000  Uiso   1.00
O1137  O     0.63603   0.77166   0.77568   0.00000  Uiso   1.00
N1138  N     0.34347   0.85871   0.89373   0.00000  Uiso   1.00
O1139  O     0.33797   0.84391   0.93503   0.00000  Uiso   1.00
O1140  O     0.36397   0.89501   0.89098   0.00000  Uiso   1.00
O1141  O     0.43479   0.78245   0.70778   0.00000  Uiso   1.00
H1142  H     0.41381   0.76633   0.68260   0.00000  Uiso   1.00
O1143  O     0.56521   0.88422   0.95889   0.00000  Uiso   1.00
H1144  H     0.58619   0.90034   0.98407   0.00000  Uiso   1.00
O1145  O     0.83333   0.77322   0.87291   0.00000  Uiso   1.00
O1146  O     0.83334   0.89345   0.79375   0.00000  Uiso   1.00
O1147  O     0.83333   0.77321   0.79372   0.00000  Uiso   1.00
O1148  O     0.83334   0.89346   0.87294   0.00000  Uiso   1.00
C1149  C     0.83329   0.75403   0.83329   0.00000  Uiso   1.00
C1150  C     0.83338   0.91264   0.83338   0.00000  Uiso   1.00
O1151  O     0.75828   0.83334   0.86379   0.00000  Uiso   1.00
O1152  O     0.90839   0.83333   0.80288   0.00000  Uiso   1.00
O1153  O     0.75828   0.83333   0.78460   0.00000  Uiso   1.00
O1154  O     0.90839   0.83334   0.88207   0.00000  Uiso   1.00
C1155  C     0.73472   0.83336   0.82134   0.00000  Uiso   1.00
C1156  C     0.93195   0.83331   0.84532   0.00000  Uiso   1.00
Cu1157 Cu    0.83333   0.83334   0.88022   0.00000  Uiso   1.00
Cu1158 Cu    0.83333   0.83333   0.78645   0.00000  Uiso   1.00
N1159  N     0.83335   0.83334   0.95069   0.00000  Uiso   1.00
N1160  N     0.83332   0.83332   0.71597   0.00000  Uiso   1.00
C1161  C     0.67992   0.82856   0.81528   0.00000  Uiso   1.00
C1162  C     0.98675   0.83811   0.85139   0.00000  Uiso   1.00
C1163  C     0.83370   0.68788   0.79082   0.00000  Uiso   1.00
C1164  C     0.83297   0.97879   0.87585   0.00000  Uiso   1.00
H1165  H     0.83399   0.70383   0.75759   0.00000  Uiso   1.00
H1166  H     0.83267   0.96283   0.90908   0.00000  Uiso   1.00
C1167  C     0.83376   0.97864   0.79086   0.00000  Uiso   1.00
C1168  C     0.83291   0.68803   0.87580   0.00000  Uiso   1.00
H1169  H     0.83411   0.96257   0.75765   0.00000  Uiso   1.00
H1170  H     0.83255   0.70409   0.90901   0.00000  Uiso   1.00
C1171  C     0.83338   0.95726   0.83338   0.00000  Uiso   1.00
C1172  C     0.83328   0.70941   0.83329   0.00000  Uiso   1.00
C1173  C     0.80070   0.80800   0.68738   0.00000  Uiso   1.00
C1174  C     0.86596   0.85866   0.97929   0.00000  Uiso   1.00
C1175  C     0.80090   0.80821   0.97083   0.00000  Uiso   1.00
C1176  C     0.86576   0.85845   0.69583   0.00000  Uiso   1.00
H1177  H     0.77517   0.78822   0.94825   0.00000  Uiso   1.00
H1178  H     0.89150   0.87845   0.71841   0.00000  Uiso   1.00
N1179  N     0.98986   0.80796   0.77294   0.00000  Uiso   1.00
O1180  O     0.99536   0.82276   0.73164   0.00000  Uiso   1.00
O1181  O     0.96936   0.77166   0.77568   0.00000  Uiso   1.00
N1182  N     0.67681   0.85871   0.89373   0.00000  Uiso   1.00
O1183  O     0.67130   0.84391   0.93503   0.00000  Uiso   1.00
O1184  O     0.69731   0.89501   0.89098   0.00000  Uiso   1.00
O1185  O     0.76813   0.78245   0.70778   0.00000  Uiso   1.00
H1186  H     0.74714   0.76633   0.68260   0.00000  Uiso   1.00
O1187  O     0.89854   0.88422   0.95889   0.00000  Uiso   1.00
H1188  H     0.91953   0.90034   0.98407   0.00000  Uiso   1.00
loop_
_geom_bond_atom_site_label_1
_geom_bond_atom_site_label_2
_geom_bond_distance
_geom_bond_site_symmetry_2
_ccdc_geom_bond_type
O1     C5      1.291   .     A
O1     Cu13    1.964   .     S
O2     C6      1.291   .     A
O2     Cu14    1.964   .     S
O3     Cu14    1.965   .     S
O3     C5      1.292   .     A
O4     C6      1.292   .     A
O4     Cu13    1.965   .     S
C5     C28     1.450   .     S
C6     C27     1.450   .     S
O7     C11     1.284   .     A
O7     Cu13    1.971   .     S
O8     C12     1.284   .     A
O8     Cu14    1.971   .     S
O9     Cu14    1.974   .     S
O9     C11     1.292   .     A
O10    C12     1.292   .     A
O10    Cu13    1.974   .     S
C11    C17     1.440   .     S
C12    C18     1.440   .     S
Cu13   N15     2.013   .     S
Cu13   Cu14    2.679   .     S
Cu14   N16     2.013   .     S
N15    C31     1.364   .     A
N15    C30     1.371   .     A
N16    C32     1.364   .     A
N16    C29     1.371   .     A
C17    C106    1.361   1_455 S
C17    N123    1.441   1_455 S
C18    C61     1.361   .     S
C18    N82     1.441   .     S
C19    C28     1.401   .     A
C19    H21     1.083   .     S
C19    C287    1.383   1_545 S
C20    C27     1.401   .     A
C20    H22     1.083   .     S
C20    C156    1.383   .     S
C23    C27     1.401   .     A
C23    H25     1.083   .     S
C23    C151    1.383   .     S
C24    C28     1.401   .     A
C24    H26     1.083   .     S
C24    C284    1.383   1_545 S
C29    O41     1.378   .     S
C29    C823    1.426   1_554 S
C30    O43     1.378   .     S
C30    C428    1.426   .     S
C31    H33     1.082   .     S
C31    C425    1.426   .     S
C32    H34     1.082   .     S
C32    C822    1.426   1_554 S
N35    O36     1.301   .     A
N35    O37     1.302   .     A
N35    C61     1.441   .     S
N38    O40     1.302   .     A
N38    O39     1.301   .     A
N38    C106    1.441   1_455 S
O41    H42     0.992   .     S
O43    H44     0.992   .     S
O45    C49     1.291   .     A
O45    Cu57    1.964   .     S
O46    C50     1.291   .     A
O46    Cu58    1.964   .     S
O47    Cu58    1.965   .     S
O47    C49     1.292   .     A
O48    C50     1.292   .     A
O48    Cu57    1.965   .     S
C49    C72     1.450   .     S
C50    C71     1.450   .     S
O51    C55     1.284   .     A
O51    Cu57    1.971   .     S
O52    C56     1.284   .     A
O52    Cu58    1.971   .     S
O53    Cu58    1.974   .     S
O53    C55     1.292   .     A
O54    C56     1.292   .     A
O54    Cu57    1.974   .     S
C55    C61     1.440   .     S
C56    C62     1.440   .     S
Cu57   N59     2.013   .     S
Cu57   Cu58    2.679   .     S
Cu58   N60     2.013   .     S
N59    C75     1.364   .     A
N59    C74     1.371   .     A
N60    C76     1.364   .     A
N60    C73     1.371   .     A
C62    C105    1.361   .     S
C62    N126    1.441   .     S
C63    C72     1.401   .     A
C63    H65     1.083   .     S
C63    C331    1.383   1_545 S
C64    C71     1.401   .     A
C64    H66     1.083   .     S
C64    C200    1.383   .     S
C67    C71     1.401   .     A
C67    H69     1.083   .     S
C67    C195    1.383   .     S
C68    C72     1.401   .     A
C68    H70     1.083   .     S
C68    C328    1.383   1_545 S
C73    O85     1.378   .     S
C73    C867    1.426   1_554 S
C74    O87     1.378   .     S
C74    C472    1.426   .     S
C75    H77     1.082   .     S
C75    C469    1.426   .     S
C76    H78     1.082   .     S
C76    C866    1.426   1_554 S
N79    O80     1.301   .     A
N79    O81     1.302   .     A
N79    C105    1.441   .     S
N82    O84     1.302   .     A
N82    O83     1.301   .     A
O85    H86     0.992   .     S
O87    H88     0.992   .     S
O89    C93     1.291   .     A
O89    Cu101   1.964   .     S
O90    C94     1.291   .     A
O90    Cu102   1.964   .     S
O91    Cu102   1.965   .     S
O91    C93     1.292   .     A
O92    C94     1.292   .     A
O92    Cu101   1.965   .     S
C93    C116    1.450   .     S
C94    C115    1.450   .     S
O95    C99     1.284   .     A
O95    Cu101   1.971   .     S
O96    C100    1.284   .     A
O96    Cu102   1.971   .     S
O97    Cu102   1.974   .     S
O97    C99     1.292   .     A
O98    C100    1.292   .     A
O98    Cu101   1.974   .     S
C99    C105    1.440   .     S
C100   C106    1.440   .     S
Cu101  N103    2.013   .     S
Cu101  Cu102   2.679   .     S
Cu102  N104    2.013   .     S
N103   C119    1.364   .     A
N103   C118    1.371   .     A
N104   C120    1.364   .     A
N104   C117    1.371   .     A
C106   C17     1.361   1_655 S
C106   N38     1.441   1_655 S
C107   C116    1.401   .     A
C107   H109    1.083   .     S
C107   C375    1.383   1_545 S
C108   C115    1.401   .     A
C108   H110    1.083   .     S
C108   C244    1.383   .     S
C111   C115    1.401   .     A
C111   H113    1.083   .     S
C111   C239    1.383   .     S
C112   C116    1.401   .     A
C112   H114    1.083   .     S
C112   C372    1.383   1_545 S
C117   O129    1.378   .     S
C117   C911    1.426   1_554 S
C118   O131    1.378   .     S
C118   C516    1.426   .     S
C119   H121    1.082   .     S
C119   C513    1.426   .     S
C120   H122    1.082   .     S
C120   C910    1.426   1_554 S
N123   O124    1.301   .     A
N123   O125    1.302   .     A
N123   C17     1.441   1_655 S
N126   O128    1.302   .     A
N126   O127    1.301   .     A
O129   H130    0.992   .     S
O131   H132    0.992   .     S
O133   C137    1.291   .     A
O133   Cu145   1.964   .     S
O134   C138    1.291   .     A
O134   Cu146   1.964   .     S
O135   Cu146   1.965   .     S
O135   C137    1.292   .     A
O136   C138    1.292   .     A
O136   Cu145   1.965   .     S
C137   C160    1.450   .     S
C138   C159    1.450   .     S
O139   C143    1.284   .     A
O139   Cu145   1.971   .     S
O140   C144    1.284   .     A
O140   Cu146   1.971   .     S
O141   Cu146   1.974   .     S
O141   C143    1.292   .     A
O142   C144    1.292   .     A
O142   Cu145   1.974   .     S
C143   C149    1.440   .     S
C144   C150    1.440   .     S
Cu145  N147    2.013   .     S
Cu145  Cu146   2.679   .     S
Cu146  N148    2.013   .     S
N147   C163    1.364   .     A
N147   C162    1.371   .     A
N148   C164    1.364   .     A
N148   C161    1.371   .     A
C149   C238    1.361   1_455 S
C149   N255    1.441   1_455 S
C150   C193    1.361   .     S
C150   N214    1.441   .     S
C151   C160    1.401   .     A
C151   H153    1.083   .     S
C152   C159    1.401   .     A
C152   H154    1.083   .     S
C152   C288    1.383   .     S
C155   C159    1.401   .     A
C155   H157    1.083   .     S
C155   C283    1.383   .     S
C156   C160    1.401   .     A
C156   H158    1.083   .     S
C161   O173    1.378   .     S
C161   C955    1.426   1_554 S
C162   O175    1.378   .     S
C162   C560    1.426   .     S
C163   H165    1.082   .     S
C163   C557    1.426   .     S
C164   H166    1.082   .     S
C164   C954    1.426   1_554 S
N167   O168    1.301   .     A
N167   O169    1.302   .     A
N167   C193    1.441   .     S
N170   O172    1.302   .     A
N170   O171    1.301   .     A
N170   C238    1.441   1_455 S
O173   H174    0.992   .     S
O175   H176    0.992   .     S
O177   C181    1.291   .     A
O177   Cu189   1.964   .     S
O178   C182    1.291   .     A
O178   Cu190   1.964   .     S
O179   Cu190   1.965   .     S
O179   C181    1.292   .     A
O180   C182    1.292   .     A
O180   Cu189   1.965   .     S
C181   C204    1.450   .     S
C182   C203    1.450   .     S
O183   C187    1.284   .     A
O183   Cu189   1.971   .     S
O184   C188    1.284   .     A
O184   Cu190   1.971   .     S
O185   Cu190   1.974   .     S
O185   C187    1.292   .     A
O186   C188    1.292   .     A
O186   Cu189   1.974   .     S
C187   C193    1.440   .     S
C188   C194    1.440   .     S
Cu189  N191    2.013   .     S
Cu189  Cu190   2.679   .     S
Cu190  N192    2.013   .     S
N191   C207    1.364   .     A
N191   C206    1.371   .     A
N192   C208    1.364   .     A
N192   C205    1.371   .     A
C194   C237    1.361   .     S
C194   N258    1.441   .     S
C195   C204    1.401   .     A
C195   H197    1.083   .     S
C196   C203    1.401   .     A
C196   H198    1.083   .     S
C196   C332    1.383   .     S
C199   C203    1.401   .     A
C199   H201    1.083   .     S
C199   C327    1.383   .     S
C200   C204    1.401   .     A
C200   H202    1.083   .     S
C205   O217    1.378   .     S
C205   C999    1.426   1_554 S
C206   O219    1.378   .     S
C206   C604    1.426   .     S
C207   H209    1.082   .     S
C207   C601    1.426   .     S
C208   H210    1.082   .     S
C208   C998    1.426   1_554 S
N211   O212    1.301   .     A
N211   O213    1.302   .     A
N211   C237    1.441   .     S
N214   O216    1.302   .     A
N214   O215    1.301   .     A
O217   H218    0.992   .     S
O219   H220    0.992   .     S
O221   C225    1.291   .     A
O221   Cu233   1.964   .     S
O222   C226    1.291   .     A
O222   Cu234   1.964   .     S
O223   Cu234   1.965   .     S
O223   C225    1.292   .     A
O224   C226    1.292   .     A
O224   Cu233   1.965   .     S
C225   C248    1.450   .     S
C226   C247    1.450   .     S
O227   C231    1.284   .     A
O227   Cu233   1.971   .     S
O228   C232    1.284   .     A
O228   Cu234   1.971   .     S
O229   Cu234   1.974   .     S
O229   C231    1.292   .     A
O230   C232    1.292   .     A
O230   Cu233   1.974   .     S
C231   C237    1.440   .     S
C232   C238    1.440   .     S
Cu233  N235    2.013   .     S
Cu233  Cu234   2.679   .     S
Cu234  N236    2.013   .     S
N235   C251    1.364   .     A
N235   C250    1.371   .     A
N236   C252    1.364   .     A
N236   C249    1.371   .     A
C238   C149    1.361   1_655 S
C238   N170    1.441   1_655 S
C239   C248    1.401   .     A
C239   H241    1.083   .     S
C240   C247    1.401   .     A
C240   H242    1.083   .     S
C240   C376    1.383   .     S
C243   C247    1.401   .     A
C243   H245    1.083   .     S
C243   C371    1.383   .     S
C244   C248    1.401   .     A
C244   H246    1.083   .     S
C249   O261    1.378   .     S
C249   C1043   1.426   1_554 S
C250   O263    1.378   .     S
C250   C648    1.426   .     S
C251   H253    1.082   .     S
C251   C645    1.426   .     S
C252   H254    1.082   .     S
C252   C1042   1.426   1_554 S
N255   O256    1.301   .     A
N255   O257    1.302   .     A
N255   C149    1.441   1_655 S
N258   O260    1.302   .     A
N258   O259    1.301   .     A
O261   H262    0.992   .     S
O263   H264    0.992   .     S
O265   C269    1.291   .     A
O265   Cu277   1.964   .     S
O266   C270    1.291   .     A
O266   Cu278   1.964   .     S
O267   Cu278   1.965   .     S
O267   C269    1.292   .     A
O268   C270    1.292   .     A
O268   Cu277   1.965   .     S
C269   C292    1.450   .     S
C270   C291    1.450   .     S
O271   C275    1.284   .     A
O271   Cu277   1.971   .     S
O272   C276    1.284   .     A
O272   Cu278   1.971   .     S
O273   Cu278   1.974   .     S
O273   C275    1.292   .     A
O274   C276    1.292   .     A
O274   Cu277   1.974   .     S
C275   C281    1.440   .     S
C276   C282    1.440   .     S
Cu277  N279    2.013   .     S
Cu277  Cu278   2.679   .     S
Cu278  N280    2.013   .     S
N279   C295    1.364   .     A
N279   C294    1.371   .     A
N280   C296    1.364   .     A
N280   C293    1.371   .     A
C281   C370    1.361   1_455 S
C281   N387    1.441   1_455 S
C282   C325    1.361   .     S
C282   N346    1.441   .     S
C283   C292    1.401   .     A
C283   H285    1.083   .     S
C284   C291    1.401   .     A
C284   H286    1.083   .     S
C284   C24     1.383   1_565 S
C287   C291    1.401   .     A
C287   H289    1.083   .     S
C287   C19     1.383   1_565 S
C288   C292    1.401   .     A
C288   H290    1.083   .     S
C293   O305    1.378   .     S
C293   C1087   1.426   1_554 S
C294   O307    1.378   .     S
C294   C692    1.426   .     S
C295   H297    1.082   .     S
C295   C689    1.426   .     S
C296   H298    1.082   .     S
C296   C1086   1.426   1_554 S
N299   O300    1.301   .     A
N299   O301    1.302   .     A
N299   C325    1.441   .     S
N302   O304    1.302   .     A
N302   O303    1.301   .     A
N302   C370    1.441   1_455 S
O305   H306    0.992   .     S
O307   H308    0.992   .     S
O309   C313    1.291   .     A
O309   Cu321   1.964   .     S
O310   C314    1.291   .     A
O310   Cu322   1.964   .     S
O311   Cu322   1.965   .     S
O311   C313    1.292   .     A
O312   C314    1.292   .     A
O312   Cu321   1.965   .     S
C313   C336    1.450   .     S
C314   C335    1.450   .     S
O315   C319    1.284   .     A
O315   Cu321   1.971   .     S
O316   C320    1.284   .     A
O316   Cu322   1.971   .     S
O317   Cu322   1.974   .     S
O317   C319    1.292   .     A
O318   C320    1.292   .     A
O318   Cu321   1.974   .     S
C319   C325    1.440   .     S
C320   C326    1.440   .     S
Cu321  N323    2.013   .     S
Cu321  Cu322   2.679   .     S
Cu322  N324    2.013   .     S
N323   C339    1.364   .     A
N323   C338    1.371   .     A
N324   C340    1.364   .     A
N324   C337    1.371   .     A
C326   C369    1.361   .     S
C326   N390    1.441   .     S
C327   C336    1.401   .     A
C327   H329    1.083   .     S
C328   C335    1.401   .     A
C328   H330    1.083   .     S
C328   C68     1.383   1_565 S
C331   C335    1.401   .     A
C331   H333    1.083   .     S
C331   C63     1.383   1_565 S
C332   C336    1.401   .     A
C332   H334    1.083   .     S
C337   O349    1.378   .     S
C337   C1131   1.426   1_554 S
C338   O351    1.378   .     S
C338   C736    1.426   .     S
C339   H341    1.082   .     S
C339   C733    1.426   .     S
C340   H342    1.082   .     S
C340   C1130   1.426   1_554 S
N343   O344    1.301   .     A
N343   O345    1.302   .     A
N343   C369    1.441   .     S
N346   O348    1.302   .     A
N346   O347    1.301   .     A
O349   H350    0.992   .     S
O351   H352    0.992   .     S
O353   C357    1.291   .     A
O353   Cu365   1.964   .     S
O354   C358    1.291   .     A
O354   Cu366   1.964   .     S
O355   Cu366   1.965   .     S
O355   C357    1.292   .     A
O356   C358    1.292   .     A
O356   Cu365   1.965   .     S
C357   C380    1.450   .     S
C358   C379    1.450   .     S
O359   C363    1.284   .     A
O359   Cu365   1.971   .     S
O360   C364    1.284   .     A
O360   Cu366   1.971   .     S
O361   Cu366   1.974   .     S
O361   C363    1.292   .     A
O362   C364    1.292   .     A
O362   Cu365   1.974   .     S
C363   C369    1.440   .     S
C364   C370    1.440   .     S
Cu365  N367    2.013   .     S
Cu365  Cu366   2.679   .     S
Cu366  N368    2.013   .     S
N367   C383    1.364   .     A
N367   C382    1.371   .     A
N368   C384    1.364   .     A
N368   C381    1.371   .     A
C370   C281    1.361   1_655 S
C370   N302    1.441   1_655 S
C371   C380    1.401   .     A
C371   H373    1.083   .     S
C372   C379    1.401   .     A
C372   H374    1.083   .     S
C372   C112    1.383   1_565 S
C375   C379    1.401   .     A
C375   H377    1.083   .     S
C375   C107    1.383   1_565 S
C376   C380    1.401   .     A
C376   H378    1.083   .     S
C381   O393    1.378   .     S
C381   C1175   1.426   1_554 S
C382   O395    1.378   .     S
C382   C780    1.426   .     S
C383   H385    1.082   .     S
C383   C777    1.426   .     S
C384   H386    1.082   .     S
C384   C1174   1.426   1_554 S
N387   O388    1.301   .     A
N387   O389    1.302   .     A
N387   C281    1.441   1_655 S
N390   O392    1.302   .     A
N390   O391    1.301   .     A
O393   H394    0.992   .     S
O395   H396    0.992   .     S
O397   C401    1.291   .     A
O397   Cu409   1.964   .     S
O398   C402    1.291   .     A
O398   Cu410   1.964   .     S
O399   Cu410   1.965   .     S
O399   C401    1.292   .     A
O400   C402    1.292   .     A
O400   Cu409   1.965   .     S
C401   C424    1.450   .     S
C402   C423    1.450   .     S
O403   C407    1.284   .     A
O403   Cu409   1.971   .     S
O404   C408    1.284   .     A
O404   Cu410   1.971   .     S
O405   Cu410   1.974   .     S
O405   C407    1.292   .     A
O406   C408    1.292   .     A
O406   Cu409   1.974   .     S
C407   C413    1.440   .     S
C408   C414    1.440   .     S
Cu409  N411    2.013   .     S
Cu409  Cu410   2.679   .     S
Cu410  N412    2.013   .     S
N411   C427    1.364   .     A
N411   C426    1.371   .     A
N412   C428    1.364   .     A
N412   C425    1.371   .     A
C413   C502    1.361   1_455 S
C413   N519    1.441   1_455 S
C414   C457    1.361   .     S
C414   N478    1.441   .     S
C415   C424    1.401   .     A
C415   H417    1.083   .     S
C415   C683    1.383   1_545 S
C416   C423    1.401   .     A
C416   H418    1.083   .     S
C416   C552    1.383   .     S
C419   C423    1.401   .     A
C419   H421    1.083   .     S
C419   C547    1.383   .     S
C420   C424    1.401   .     A
C420   H422    1.083   .     S
C420   C680    1.383   1_545 S
C425   O437    1.378   .     S
C426   O439    1.378   .     S
C426   C824    1.426   .     S
C427   H429    1.082   .     S
C427   C821    1.426   .     S
C428   H430    1.082   .     S
N431   O432    1.301   .     A
N431   O433    1.302   .     A
N431   C457    1.441   .     S
N434   O436    1.302   .     A
N434   O435    1.301   .     A
N434   C502    1.441   1_455 S
O437   H438    0.992   .     S
O439   H440    0.992   .     S
O441   C445    1.291   .     A
O441   Cu453   1.964   .     S
O442   C446    1.291   .     A
O442   Cu454   1.964   .     S
O443   Cu454   1.965   .     S
O443   C445    1.292   .     A
O444   C446    1.292   .     A
O444   Cu453   1.965   .     S
C445   C468    1.450   .     S
C446   C467    1.450   .     S
O447   C451    1.284   .     A
O447   Cu453   1.971   .     S
O448   C452    1.284   .     A
O448   Cu454   1.971   .     S
O449   Cu454   1.974   .     S
O449   C451    1.292   .     A
O450   C452    1.292   .     A
O450   Cu453   1.974   .     S
C451   C457    1.440   .     S
C452   C458    1.440   .     S
Cu453  N455    2.013   .     S
Cu453  Cu454   2.679   .     S
Cu454  N456    2.013   .     S
N455   C471    1.364   .     A
N455   C470    1.371   .     A
N456   C472    1.364   .     A
N456   C469    1.371   .     A
C458   C501    1.361   .     S
C458   N522    1.441   .     S
C459   C468    1.401   .     A
C459   H461    1.083   .     S
C459   C727    1.383   1_545 S
C460   C467    1.401   .     A
C460   H462    1.083   .     S
C460   C596    1.383   .     S
C463   C467    1.401   .     A
C463   H465    1.083   .     S
C463   C591    1.383   .     S
C464   C468    1.401   .     A
C464   H466    1.083   .     S
C464   C724    1.383   1_545 S
C469   O481    1.378   .     S
C470   O483    1.378   .     S
C470   C868    1.426   .     S
C471   H473    1.082   .     S
C471   C865    1.426   .     S
C472   H474    1.082   .     S
N475   O476    1.301   .     A
N475   O477    1.302   .     A
N475   C501    1.441   .     S
N478   O480    1.302   .     A
N478   O479    1.301   .     A
O481   H482    0.992   .     S
O483   H484    0.992   .     S
O485   C489    1.291   .     A
O485   Cu497   1.964   .     S
O486   C490    1.291   .     A
O486   Cu498   1.964   .     S
O487   Cu498   1.965   .     S
O487   C489    1.292   .     A
O488   C490    1.292   .     A
O488   Cu497   1.965   .     S
C489   C512    1.450   .     S
C490   C511    1.450   .     S
O491   C495    1.284   .     A
O491   Cu497   1.971   .     S
O492   C496    1.284   .     A
O492   Cu498   1.971   .     S
O493   Cu498   1.974   .     S
O493   C495    1.292   .     A
O494   C496    1.292   .     A
O494   Cu497   1.974   .     S
C495   C501    1.440   .     S
C496   C502    1.440   .     S
Cu497  N499    2.013   .     S
Cu497  Cu498   2.679   .     S
Cu498  N500    2.013   .     S
N499   C515    1.364   .     A
N499   C514    1.371   .     A
N500   C516    1.364   .     A
N500   C513    1.371   .     A
C502   C413    1.361   1_655 S
C502   N434    1.441   1_655 S
C503   C512    1.401   .     A
C503   H505    1.083   .     S
C503   C771    1.383   1_545 S
C504   C511    1.401   .     A
C504   H506    1.083   .     S
C504   C640    1.383   .     S
C507   C511    1.401   .     A
C507   H509    1.083   .     S
C507   C635    1.383   .     S
C508   C512    1.401   .     A
C508   H510    1.083   .     S
C508   C768    1.383   1_545 S
C513   O525    1.378   .     S
C514   O527    1.378   .     S
C514   C912    1.426   .     S
C515   H517    1.082   .     S
C515   C909    1.426   .     S
C516   H518    1.082   .     S
N519   O520    1.301   .     A
N519   O521    1.302   .     A
N519   C413    1.441   1_655 S
N522   O524    1.302   .     A
N522   O523    1.301   .     A
O525   H526    0.992   .     S
O527   H528    0.992   .     S
O529   C533    1.291   .     A
O529   Cu541   1.964   .     S
O530   C534    1.291   .     A
O530   Cu542   1.964   .     S
O531   Cu542   1.965   .     S
O531   C533    1.292   .     A
O532   C534    1.292   .     A
O532   Cu541   1.965   .     S
C533   C556    1.450   .     S
C534   C555    1.450   .     S
O535   C539    1.284   .     A
O535   Cu541   1.971   .     S
O536   C540    1.284   .     A
O536   Cu542   1.971   .     S
O537   Cu542   1.974   .     S
O537   C539    1.292   .     A
O538   C540    1.292   .     A
O538   Cu541   1.974   .     S
C539   C545    1.440   .     S
C540   C546    1.440   .     S
Cu541  N543    2.013   .     S
Cu541  Cu542   2.679   .     S
Cu542  N544    2.013   .     S
N543   C559    1.364   .     A
N543   C558    1.371   .     A
N544   C560    1.364   .     A
N544   C557    1.371   .     A
C545   C634    1.361   1_455 S
C545   N651    1.441   1_455 S
C546   C589    1.361   .     S
C546   N610    1.441   .     S
C547   C556    1.401   .     A
C547   H549    1.083   .     S
C548   C555    1.401   .     A
C548   H550    1.083   .     S
C548   C684    1.383   .     S
C551   C555    1.401   .     A
C551   H553    1.083   .     S
C551   C679    1.383   .     S
C552   C556    1.401   .     A
C552   H554    1.083   .     S
C557   O569    1.378   .     S
C558   O571    1.378   .     S
C558   C956    1.426   .     S
C559   H561    1.082   .     S
C559   C953    1.426   .     S
C560   H562    1.082   .     S
N563   O564    1.301   .     A
N563   O565    1.302   .     A
N563   C589    1.441   .     S
N566   O568    1.302   .     A
N566   O567    1.301   .     A
N566   C634    1.441   1_455 S
O569   H570    0.992   .     S
O571   H572    0.992   .     S
O573   C577    1.291   .     A
O573   Cu585   1.964   .     S
O574   C578    1.291   .     A
O574   Cu586   1.964   .     S
O575   Cu586   1.965   .     S
O575   C577    1.292   .     A
O576   C578    1.292   .     A
O576   Cu585   1.965   .     S
C577   C600    1.450   .     S
C578   C599    1.450   .     S
O579   C583    1.284   .     A
O579   Cu585   1.971   .     S
O580   C584    1.284   .     A
O580   Cu586   1.971   .     S
O581   Cu586   1.974   .     S
O581   C583    1.292   .     A
O582   C584    1.292   .     A
O582   Cu585   1.974   .     S
C583   C589    1.440   .     S
C584   C590    1.440   .     S
Cu585  N587    2.013   .     S
Cu585  Cu586   2.679   .     S
Cu586  N588    2.013   .     S
N587   C603    1.364   .     A
N587   C602    1.371   .     A
N588   C604    1.364   .     A
N588   C601    1.371   .     A
C590   C633    1.361   .     S
C590   N654    1.441   .     S
C591   C600    1.401   .     A
C591   H593    1.083   .     S
C592   C599    1.401   .     A
C592   H594    1.083   .     S
C592   C728    1.383   .     S
C595   C599    1.401   .     A
C595   H597    1.083   .     S
C595   C723    1.383   .     S
C596   C600    1.401   .     A
C596   H598    1.083   .     S
C601   O613    1.378   .     S
C602   O615    1.378   .     S
C602   C1000   1.426   .     S
C603   H605    1.082   .     S
C603   C997    1.426   .     S
C604   H606    1.082   .     S
N607   O608    1.301   .     A
N607   O609    1.302   .     A
N607   C633    1.441   .     S
N610   O612    1.302   .     A
N610   O611    1.301   .     A
O613   H614    0.992   .     S
O615   H616    0.992   .     S
O617   C621    1.291   .     A
O617   Cu629   1.964   .     S
O618   C622    1.291   .     A
O618   Cu630   1.964   .     S
O619   Cu630   1.965   .     S
O619   C621    1.292   .     A
O620   C622    1.292   .     A
O620   Cu629   1.965   .     S
C621   C644    1.450   .     S
C622   C643    1.450   .     S
O623   C627    1.284   .     A
O623   Cu629   1.971   .     S
O624   C628    1.284   .     A
O624   Cu630   1.971   .     S
O625   Cu630   1.974   .     S
O625   C627    1.292   .     A
O626   C628    1.292   .     A
O626   Cu629   1.974   .     S
C627   C633    1.440   .     S
C628   C634    1.440   .     S
Cu629  N631    2.013   .     S
Cu629  Cu630   2.679   .     S
Cu630  N632    2.013   .     S
N631   C647    1.364   .     A
N631   C646    1.371   .     A
N632   C648    1.364   .     A
N632   C645    1.371   .     A
C634   C545    1.361   1_655 S
C634   N566    1.441   1_655 S
C635   C644    1.401   .     A
C635   H637    1.083   .     S
C636   C643    1.401   .     A
C636   H638    1.083   .     S
C636   C772    1.383   .     S
C639   C643    1.401   .     A
C639   H641    1.083   .     S
C639   C767    1.383   .     S
C640   C644    1.401   .     A
C640   H642    1.083   .     S
C645   O657    1.378   .     S
C646   O659    1.378   .     S
C646   C1044   1.426   .     S
C647   H649    1.082   .     S
C647   C1041   1.426   .     S
C648   H650    1.082   .     S
N651   O652    1.301   .     A
N651   O653    1.302   .     A
N651   C545    1.441   1_655 S
N654   O656    1.302   .     A
N654   O655    1.301   .     A
O657   H658    0.992   .     S
O659   H660    0.992   .     S
O661   C665    1.291   .     A
O661   Cu673   1.964   .     S
O662   C666    1.291   .     A
O662   Cu674   1.964   .     S
O663   Cu674   1.965   .     S
O663   C665    1.292   .     A
O664   C666    1.292   .     A
O664   Cu673   1.965   .     S
C665   C688    1.450   .     S
C666   C687    1.450   .     S
O667   C671    1.284   .     A
O667   Cu673   1.971   .     S
O668   C672    1.284   .     A
O668   Cu674   1.971   .     S
O669   Cu674   1.974   .     S
O669   C671    1.292   .     A
O670   C672    1.292   .     A
O670   Cu673   1.974   .     S
C671   C677    1.440   .     S
C672   C678    1.440   .     S
Cu673  N675    2.013   .     S
Cu673  Cu674   2.679   .     S
Cu674  N676    2.013   .     S
N675   C691    1.364   .     A
N675   C690    1.371   .     A
N676   C692    1.364   .     A
N676   C689    1.371   .     A
C677   C766    1.361   1_455 S
C677   N783    1.441   1_455 S
C678   C721    1.361   .     S
C678   N742    1.441   .     S
C679   C688    1.401   .     A
C679   H681    1.083   .     S
C680   C687    1.401   .     A
C680   H682    1.083   .     S
C680   C420    1.383   1_565 S
C683   C687    1.401   .     A
C683   H685    1.083   .     S
C683   C415    1.383   1_565 S
C684   C688    1.401   .     A
C684   H686    1.083   .     S
C689   O701    1.378   .     S
C690   O703    1.378   .     S
C690   C1088   1.426   .     S
C691   H693    1.082   .     S
C691   C1085   1.426   .     S
C692   H694    1.082   .     S
N695   O696    1.301   .     A
N695   O697    1.302   .     A
N695   C721    1.441   .     S
N698   O700    1.302   .     A
N698   O699    1.301   .     A
N698   C766    1.441   1_455 S
O701   H702    0.992   .     S
O703   H704    0.992   .     S
O705   C709    1.291   .     A
O705   Cu717   1.964   .     S
O706   C710    1.291   .     A
O706   Cu718   1.964   .     S
O707   Cu718   1.965   .     S
O707   C709    1.292   .     A
O708   C710    1.292   .     A
O708   Cu717   1.965   .     S
C709   C732    1.450   .     S
C710   C731    1.450   .     S
O711   C715    1.284   .     A
O711   Cu717   1.971   .     S
O712   C716    1.284   .     A
O712   Cu718   1.971   .     S
O713   Cu718   1.974   .     S
O713   C715    1.292   .     A
O714   C716    1.292   .     A
O714   Cu717   1.974   .     S
C715   C721    1.440   .     S
C716   C722    1.440   .     S
Cu717  N719    2.013   .     S
Cu717  Cu718   2.679   .     S
Cu718  N720    2.013   .     S
N719   C735    1.364   .     A
N719   C734    1.371   .     A
N720   C736    1.364   .     A
N720   C733    1.371   .     A
C722   C765    1.361   .     S
C722   N786    1.441   .     S
C723   C732    1.401   .     A
C723   H725    1.083   .     S
C724   C731    1.401   .     A
C724   H726    1.083   .     S
C724   C464    1.383   1_565 S
C727   C731    1.401   .     A
C727   H729    1.083   .     S
C727   C459    1.383   1_565 S
C728   C732    1.401   .     A
C728   H730    1.083   .     S
C733   O745    1.378   .     S
C734   O747    1.378   .     S
C734   C1132   1.426   .     S
C735   H737    1.082   .     S
C735   C1129   1.426   .     S
C736   H738    1.082   .     S
N739   O740    1.301   .     A
N739   O741    1.302   .     A
N739   C765    1.441   .     S
N742   O744    1.302   .     A
N742   O743    1.301   .     A
O745   H746    0.992   .     S
O747   H748    0.992   .     S
O749   C753    1.291   .     A
O749   Cu761   1.964   .     S
O750   C754    1.291   .     A
O750   Cu762   1.964   .     S
O751   Cu762   1.965   .     S
O751   C753    1.292   .     A
O752   C754    1.292   .     A
O752   Cu761   1.965   .     S
C753   C776    1.450   .     S
C754   C775    1.450   .     S
O755   C759    1.284   .     A
O755   Cu761   1.971   .     S
O756   C760    1.284   .     A
O756   Cu762   1.971   .     S
O757   Cu762   1.974   .     S
O757   C759    1.292   .     A
O758   C760    1.292   .     A
O758   Cu761   1.974   .     S
C759   C765    1.440   .     S
C760   C766    1.440   .     S
Cu761  N763    2.013   .     S
Cu761  Cu762   2.679   .     S
Cu762  N764    2.013   .     S
N763   C779    1.364   .     A
N763   C778    1.371   .     A
N764   C780    1.364   .     A
N764   C777    1.371   .     A
C766   C677    1.361   1_655 S
C766   N698    1.441   1_655 S
C767   C776    1.401   .     A
C767   H769    1.083   .     S
C768   C775    1.401   .     A
C768   H770    1.083   .     S
C768   C508    1.383   1_565 S
C771   C775    1.401   .     A
C771   H773    1.083   .     S
C771   C503    1.383   1_565 S
C772   C776    1.401   .     A
C772   H774    1.083   .     S
C777   O789    1.378   .     S
C778   O791    1.378   .     S
C778   C1176   1.426   .     S
C779   H781    1.082   .     S
C779   C1173   1.426   .     S
C780   H782    1.082   .     S
N783   O784    1.301   .     A
N783   O785    1.302   .     A
N783   C677    1.441   1_655 S
N786   O788    1.302   .     A
N786   O787    1.301   .     A
O789   H790    0.992   .     S
O791   H792    0.992   .     S
O793   C797    1.291   .     A
O793   Cu805   1.964   .     S
O794   C798    1.291   .     A
O794   Cu806   1.964   .     S
O795   Cu806   1.965   .     S
O795   C797    1.292   .     A
O796   C798    1.292   .     A
O796   Cu805   1.965   .     S
C797   C820    1.450   .     S
C798   C819    1.450   .     S
O799   C803    1.284   .     A
O799   Cu805   1.971   .     S
O800   C804    1.284   .     A
O800   Cu806   1.971   .     S
O801   Cu806   1.974   .     S
O801   C803    1.292   .     A
O802   C804    1.292   .     A
O802   Cu805   1.974   .     S
C803   C809    1.440   .     S
C804   C810    1.440   .     S
Cu805  N807    2.013   .     S
Cu805  Cu806   2.679   .     S
Cu806  N808    2.013   .     S
N807   C823    1.364   .     A
N807   C822    1.371   .     A
N808   C824    1.364   .     A
N808   C821    1.371   .     A
C809   C898    1.361   1_455 S
C809   N915    1.441   1_455 S
C810   C853    1.361   .     S
C810   N874    1.441   .     S
C811   C820    1.401   .     A
C811   H813    1.083   .     S
C811   C1079   1.383   1_545 S
C812   C819    1.401   .     A
C812   H814    1.083   .     S
C812   C948    1.383   .     S
C815   C819    1.401   .     A
C815   H817    1.083   .     S
C815   C943    1.383   .     S
C816   C820    1.401   .     A
C816   H818    1.083   .     S
C816   C1076   1.383   1_545 S
C821   O833    1.378   .     S
C822   O835    1.378   .     S
C822   C32     1.426   1_556 S
C823   H825    1.082   .     S
C823   C29     1.426   1_556 S
C824   H826    1.082   .     S
N827   O828    1.301   .     A
N827   O829    1.302   .     A
N827   C853    1.441   .     S
N830   O832    1.302   .     A
N830   O831    1.301   .     A
N830   C898    1.441   1_455 S
O833   H834    0.992   .     S
O835   H836    0.992   .     S
O837   C841    1.291   .     A
O837   Cu849   1.964   .     S
O838   C842    1.291   .     A
O838   Cu850   1.964   .     S
O839   Cu850   1.965   .     S
O839   C841    1.292   .     A
O840   C842    1.292   .     A
O840   Cu849   1.965   .     S
C841   C864    1.450   .     S
C842   C863    1.450   .     S
O843   C847    1.284   .     A
O843   Cu849   1.971   .     S
O844   C848    1.284   .     A
O844   Cu850   1.971   .     S
O845   Cu850   1.974   .     S
O845   C847    1.292   .     A
O846   C848    1.292   .     A
O846   Cu849   1.974   .     S
C847   C853    1.440   .     S
C848   C854    1.440   .     S
Cu849  N851    2.013   .     S
Cu849  Cu850   2.679   .     S
Cu850  N852    2.013   .     S
N851   C867    1.364   .     A
N851   C866    1.371   .     A
N852   C868    1.364   .     A
N852   C865    1.371   .     A
C854   C897    1.361   .     S
C854   N918    1.441   .     S
C855   C864    1.401   .     A
C855   H857    1.083   .     S
C855   C1123   1.383   1_545 S
C856   C863    1.401   .     A
C856   H858    1.083   .     S
C856   C992    1.383   .     S
C859   C863    1.401   .     A
C859   H861    1.083   .     S
C859   C987    1.383   .     S
C860   C864    1.401   .     A
C860   H862    1.083   .     S
C860   C1120   1.383   1_545 S
C865   O877    1.378   .     S
C866   O879    1.378   .     S
C866   C76     1.426   1_556 S
C867   H869    1.082   .     S
C867   C73     1.426   1_556 S
C868   H870    1.082   .     S
N871   O872    1.301   .     A
N871   O873    1.302   .     A
N871   C897    1.441   .     S
N874   O876    1.302   .     A
N874   O875    1.301   .     A
O877   H878    0.992   .     S
O879   H880    0.992   .     S
O881   C885    1.291   .     A
O881   Cu893   1.964   .     S
O882   C886    1.291   .     A
O882   Cu894   1.964   .     S
O883   Cu894   1.965   .     S
O883   C885    1.292   .     A
O884   C886    1.292   .     A
O884   Cu893   1.965   .     S
C885   C908    1.450   .     S
C886   C907    1.450   .     S
O887   C891    1.284   .     A
O887   Cu893   1.971   .     S
O888   C892    1.284   .     A
O888   Cu894   1.971   .     S
O889   Cu894   1.974   .     S
O889   C891    1.292   .     A
O890   C892    1.292   .     A
O890   Cu893   1.974   .     S
C891   C897    1.440   .     S
C892   C898    1.440   .     S
Cu893  N895    2.013   .     S
Cu893  Cu894   2.679   .     S
Cu894  N896    2.013   .     S
N895   C911    1.364   .     A
N895   C910    1.371   .     A
N896   C912    1.364   .     A
N896   C909    1.371   .     A
C898   C809    1.361   1_655 S
C898   N830    1.441   1_655 S
C899   C908    1.401   .     A
C899   H901    1.083   .     S
C899   C1167   1.383   1_545 S
C900   C907    1.401   .     A
C900   H902    1.083   .     S
C900   C1036   1.383   .     S
C903   C907    1.401   .     A
C903   H905    1.083   .     S
C903   C1031   1.383   .     S
C904   C908    1.401   .     A
C904   H906    1.083   .     S
C904   C1164   1.383   1_545 S
C909   O921    1.378   .     S
C910   O923    1.378   .     S
C910   C120    1.426   1_556 S
C911   H913    1.082   .     S
C911   C117    1.426   1_556 S
C912   H914    1.082   .     S
N915   O916    1.301   .     A
N915   O917    1.302   .     A
N915   C809    1.441   1_655 S
N918   O920    1.302   .     A
N918   O919    1.301   .     A
O921   H922    0.992   .     S
O923   H924    0.992   .     S
O925   C929    1.291   .     A
O925   Cu937   1.964   .     S
O926   C930    1.291   .     A
O926   Cu938   1.964   .     S
O927   Cu938   1.965   .     S
O927   C929    1.292   .     A
O928   C930    1.292   .     A
O928   Cu937   1.965   .     S
C929   C952    1.450   .     S
C930   C951    1.450   .     S
O931   C935    1.284   .     A
O931   Cu937   1.971   .     S
O932   C936    1.284   .     A
O932   Cu938   1.971   .     S
O933   Cu938   1.974   .     S
O933   C935    1.292   .     A
O934   C936    1.292   .     A
O934   Cu937   1.974   .     S
C935   C941    1.440   .     S
C936   C942    1.440   .     S
Cu937  N939    2.013   .     S
Cu937  Cu938   2.679   .     S
Cu938  N940    2.013   .     S
N939   C955    1.364   .     A
N939   C954    1.371   .     A
N940   C956    1.364   .     A
N940   C953    1.371   .     A
C941   C1030   1.361   1_455 S
C941   N1047   1.441   1_455 S
C942   C985    1.361   .     S
C942   N1006   1.441   .     S
C943   C952    1.401   .     A
C943   H945    1.083   .     S
C944   C951    1.401   .     A
C944   H946    1.083   .     S
C944   C1080   1.383   .     S
C947   C951    1.401   .     A
C947   H949    1.083   .     S
C947   C1075   1.383   .     S
C948   C952    1.401   .     A
C948   H950    1.083   .     S
C953   O965    1.378   .     S
C954   O967    1.378   .     S
C954   C164    1.426   1_556 S
C955   H957    1.082   .     S
C955   C161    1.426   1_556 S
C956   H958    1.082   .     S
N959   O960    1.301   .     A
N959   O961    1.302   .     A
N959   C985    1.441   .     S
N962   O964    1.302   .     A
N962   O963    1.301   .     A
N962   C1030   1.441   1_455 S
O965   H966    0.992   .     S
O967   H968    0.992   .     S
O969   C973    1.291   .     A
O969   Cu981   1.964   .     S
O970   C974    1.291   .     A
O970   Cu982   1.964   .     S
O971   Cu982   1.965   .     S
O971   C973    1.292   .     A
O972   C974    1.292   .     A
O972   Cu981   1.965   .     S
C973   C996    1.450   .     S
C974   C995    1.450   .     S
O975   C979    1.284   .     A
O975   Cu981   1.971   .     S
O976   C980    1.284   .     A
O976   Cu982   1.971   .     S
O977   Cu982   1.974   .     S
O977   C979    1.292   .     A
O978   C980    1.292   .     A
O978   Cu981   1.974   .     S
C979   C985    1.440   .     S
C980   C986    1.440   .     S
Cu981  N983    2.013   .     S
Cu981  Cu982   2.679   .     S
Cu982  N984    2.013   .     S
N983   C999    1.364   .     A
N983   C998    1.371   .     A
N984   C1000   1.364   .     A
N984   C997    1.371   .     A
C986   C1029   1.361   .     S
C986   N1050   1.441   .     S
C987   C996    1.401   .     A
C987   H989    1.083   .     S
C988   C995    1.401   .     A
C988   H990    1.083   .     S
C988   C1124   1.383   .     S
C991   C995    1.401   .     A
C991   H993    1.083   .     S
C991   C1119   1.383   .     S
C992   C996    1.401   .     A
C992   H994    1.083   .     S
C997   O1009   1.378   .     S
C998   O1011   1.378   .     S
C998   C208    1.426   1_556 S
C999   H1001   1.082   .     S
C999   C205    1.426   1_556 S
C1000  H1002   1.082   .     S
N1003  O1004   1.301   .     A
N1003  O1005   1.302   .     A
N1003  C1029   1.441   .     S
N1006  O1008   1.302   .     A
N1006  O1007   1.301   .     A
O1009  H1010   0.992   .     S
O1011  H1012   0.992   .     S
O1013  C1017   1.291   .     A
O1013  Cu1025  1.964   .     S
O1014  C1018   1.291   .     A
O1014  Cu1026  1.964   .     S
O1015  Cu1026  1.965   .     S
O1015  C1017   1.292   .     A
O1016  C1018   1.292   .     A
O1016  Cu1025  1.965   .     S
C1017  C1040   1.450   .     S
C1018  C1039   1.450   .     S
O1019  C1023   1.284   .     A
O1019  Cu1025  1.971   .     S
O1020  C1024   1.284   .     A
O1020  Cu1026  1.971   .     S
O1021  Cu1026  1.974   .     S
O1021  C1023   1.292   .     A
O1022  C1024   1.292   .     A
O1022  Cu1025  1.974   .     S
C1023  C1029   1.440   .     S
C1024  C1030   1.440   .     S
Cu1025 N1027   2.013   .     S
Cu1025 Cu1026  2.679   .     S
Cu1026 N1028   2.013   .     S
N1027  C1043   1.364   .     A
N1027  C1042   1.371   .     A
N1028  C1044   1.364   .     A
N1028  C1041   1.371   .     A
C1030  C941    1.361   1_655 S
C1030  N962    1.441   1_655 S
C1031  C1040   1.401   .     A
C1031  H1033   1.083   .     S
C1032  C1039   1.401   .     A
C1032  H1034   1.083   .     S
C1032  C1168   1.383   .     S
C1035  C1039   1.401   .     A
C1035  H1037   1.083   .     S
C1035  C1163   1.383   .     S
C1036  C1040   1.401   .     A
C1036  H1038   1.083   .     S
C1041  O1053   1.378   .     S
C1042  O1055   1.378   .     S
C1042  C252    1.426   1_556 S
C1043  H1045   1.082   .     S
C1043  C249    1.426   1_556 S
C1044  H1046   1.082   .     S
N1047  O1048   1.301   .     A
N1047  O1049   1.302   .     A
N1047  C941    1.441   1_655 S
N1050  O1052   1.302   .     A
N1050  O1051   1.301   .     A
O1053  H1054   0.992   .     S
O1055  H1056   0.992   .     S
O1057  C1061   1.291   .     A
O1057  Cu1069  1.964   .     S
O1058  C1062   1.291   .     A
O1058  Cu1070  1.964   .     S
O1059  Cu1070  1.965   .     S
O1059  C1061   1.292   .     A
O1060  C1062   1.292   .     A
O1060  Cu1069  1.965   .     S
C1061  C1084   1.450   .     S
C1062  C1083   1.450   .     S
O1063  C1067   1.284   .     A
O1063  Cu1069  1.971   .     S
O1064  C1068   1.284   .     A
O1064  Cu1070  1.971   .     S
O1065  Cu1070  1.974   .     S
O1065  C1067   1.292   .     A
O1066  C1068   1.292   .     A
O1066  Cu1069  1.974   .     S
C1067  C1073   1.440   .     S
C1068  C1074   1.440   .     S
Cu1069 N1071   2.013   .     S
Cu1069 Cu1070  2.679   .     S
Cu1070 N1072   2.013   .     S
N1071  C1087   1.364   .     A
N1071  C1086   1.371   .     A
N1072  C1088   1.364   .     A
N1072  C1085   1.371   .     A
C1073  C1162   1.361   1_455 S
C1073  N1179   1.441   1_455 S
C1074  C1117   1.361   .     S
C1074  N1138   1.441   .     S
C1075  C1084   1.401   .     A
C1075  H1077   1.083   .     S
C1076  C1083   1.401   .     A
C1076  H1078   1.083   .     S
C1076  C816    1.383   1_565 S
C1079  C1083   1.401   .     A
C1079  H1081   1.083   .     S
C1079  C811    1.383   1_565 S
C1080  C1084   1.401   .     A
C1080  H1082   1.083   .     S
C1085  O1097   1.378   .     S
C1086  O1099   1.378   .     S
C1086  C296    1.426   1_556 S
C1087  H1089   1.082   .     S
C1087  C293    1.426   1_556 S
C1088  H1090   1.082   .     S
N1091  O1092   1.301   .     A
N1091  O1093   1.302   .     A
N1091  C1117   1.441   .     S
N1094  O1096   1.302   .     A
N1094  O1095   1.301   .     A
N1094  C1162   1.441   1_455 S
O1097  H1098   0.992   .     S
O1099  H1100   0.992   .     S
O1101  C1105   1.291   .     A
O1101  Cu1113  1.964   .     S
O1102  C1106   1.291   .     A
O1102  Cu1114  1.964   .     S
O1103  Cu1114  1.965   .     S
O1103  C1105   1.292   .     A
O1104  C1106   1.292   .     A
O1104  Cu1113  1.965   .     S
C1105  C1128   1.450   .     S
C1106  C1127   1.450   .     S
O1107  C1111   1.284   .     A
O1107  Cu1113  1.971   .     S
O1108  C1112   1.284   .     A
O1108  Cu1114  1.971   .     S
O1109  Cu1114  1.974   .     S
O1109  C1111   1.292   .     A
O1110  C1112   1.292   .     A
O1110  Cu1113  1.974   .     S
C1111  C1117   1.440   .     S
C1112  C1118   1.440   .     S
Cu1113 N1115   2.013   .     S
Cu1113 Cu1114  2.679   .     S
Cu1114 N1116   2.013   .     S
N1115  C1131   1.364   .     A
N1115  C1130   1.371   .     A
N1116  C1132   1.364   .     A
N1116  C1129   1.371   .     A
C1118  C1161   1.361   .     S
C1118  N1182   1.441   .     S
C1119  C1128   1.401   .     A
C1119  H1121   1.083   .     S
C1120  C1127   1.401   .     A
C1120  H1122   1.083   .     S
C1120  C860    1.383   1_565 S
C1123  C1127   1.401   .     A
C1123  H1125   1.083   .     S
C1123  C855    1.383   1_565 S
C1124  C1128   1.401   .     A
C1124  H1126   1.083   .     S
C1129  O1141   1.378   .     S
C1130  O1143   1.378   .     S
C1130  C340    1.426   1_556 S
C1131  H1133   1.082   .     S
C1131  C337    1.426   1_556 S
C1132  H1134   1.082   .     S
N1135  O1136   1.301   .     A
N1135  O1137   1.302   .     A
N1135  C1161   1.441   .     S
N1138  O1140   1.302   .     A
N1138  O1139   1.301   .     A
O1141  H1142   0.992   .     S
O1143  H1144   0.992   .     S
O1145  C1149   1.291   .     A
O1145  Cu1157  1.964   .     S
O1146  C1150   1.291   .     A
O1146  Cu1158  1.964   .     S
O1147  Cu1158  1.965   .     S
O1147  C1149   1.292   .     A
O1148  C1150   1.292   .     A
O1148  Cu1157  1.965   .     S
C1149  C1172   1.450   .     S
C1150  C1171   1.450   .     S
O1151  C1155   1.284   .     A
O1151  Cu1157  1.971   .     S
O1152  C1156   1.284   .     A
O1152  Cu1158  1.971   .     S
O1153  Cu1158  1.974   .     S
O1153  C1155   1.292   .     A
O1154  C1156   1.292   .     A
O1154  Cu1157  1.974   .     S
C1155  C1161   1.440   .     S
C1156  C1162   1.440   .     S
Cu1157 N1159   2.013   .     S
Cu1157 Cu1158  2.679   .     S
Cu1158 N1160   2.013   .     S
N1159  C1175   1.364   .     A
N1159  C1174   1.371   .     A
N1160  C1176   1.364   .     A
N1160  C1173   1.371   .     A
C1162  C1073   1.361   1_655 S
C1162  N1094   1.441   1_655 S
C1163  C1172   1.401   .     A
C1163  H1165   1.083   .     S
C1164  C1171   1.401   .     A
C1164  H1166   1.083   .     S
C1164  C904    1.383   1_565 S
C1167  C1171   1.401   .     A
C1167  H1169   1.083   .     S
C1167  C899    1.383   1_565 S
C1168  C1172   1.401   .     A
C1168  H1170   1.083   .     S
C1173  O1185   1.378   .     S
C1174  O1187   1.378   .     S
C1174  C384    1.426   1_556 S
C1175  H1177   1.082   .     S
C1175  C381    1.426   1_556 S
C1176  H1178   1.082   .     S
N1179  O1180   1.301   .     A
N1179  O1181   1.302   .     A
N1179  C1073   1.441   1_655 S
N1182  O1184   1.302   .     A
N1182  O1183   1.301   .     A
O1185  H1186   0.992   .     S
O1187  H1188   0.992   .     S
