data_str_m2_o1_o16_pcu_sym.68
_audit_creation_date              2020-01-03
_audit_creation_method            'Materials Studio'
_symmetry_space_group_name_H-M    'P1'
_symmetry_Int_Tables_number       1
_symmetry_cell_setting            triclinic
loop_
_symmetry_equiv_pos_as_xyz
  x,y,z
_cell_length_a                    28.5881
_cell_length_b                    32.4975
_cell_length_c                    26.8046
_cell_angle_alpha                 90.1074
_cell_angle_beta                  73.1206
_cell_angle_gamma                 90.0322
loop_
_atom_site_label
_atom_site_type_symbol
_atom_site_fract_x
_atom_site_fract_y
_atom_site_fract_z
_atom_site_U_iso_or_equiv
_atom_site_adp_type
_atom_site_occupancy
O1     O     0.12708   0.22678   0.25000   0.00000  Uiso   1.00
O2     O     0.20627   0.22679   0.25000   0.00000  Uiso   1.00
C3     C     0.16675   0.24596   0.24975   0.00000  Uiso   1.00
O4     O     0.10775   0.16665   0.32549   0.00000  Uiso   1.00
O5     O     0.18694   0.16666   0.32549   0.00000  Uiso   1.00
C6     C     0.14107   0.17228   0.34938   0.00000  Uiso   1.00
Cu7    Cu    0.11978   0.16666   0.25000   0.00000  Uiso   1.00
Cu8    Cu    0.21355   0.16667   0.25000   0.00000  Uiso   1.00
O9     O     0.12706   0.10654   0.24999   0.00000  Uiso   1.00
O10    O     0.20625   0.10655   0.24999   0.00000  Uiso   1.00
O11    O     0.14640   0.16667   0.17451   0.00000  Uiso   1.00
O12    O     0.22559   0.16668   0.17451   0.00000  Uiso   1.00
C13    C     0.16664   0.08737   0.25004   0.00000  Uiso   1.00
C14    C     0.19259   0.16631   0.14991   0.00000  Uiso   1.00
C15    C     0.26796   0.16588   0.00884   0.00000  Uiso   1.00
H16    H     0.28355   0.15426   0.08105   0.00000  Uiso   1.00
H17    H     0.28576   0.19164   0.41176   0.00000  Uiso   1.00
H18    H     0.30520   0.16038   0.48572   0.00000  Uiso   1.00
C19    C     0.20693   0.16771   0.09280   0.00000  Uiso   1.00
C20    C     0.07722   0.18859   0.43244   0.00000  Uiso   1.00
C21    C     0.06288   0.19537   0.48600   0.00000  Uiso   1.00
C22    C     0.09680   0.19288   0.01390   0.00000  Uiso   1.00
C23    C     0.14708   0.18797   0.48775   0.00000  Uiso   1.00
C24    C     0.16229   0.19058   0.43265   0.00000  Uiso   1.00
C25    C     0.18293   0.18078   0.01398   0.00000  Uiso   1.00
C26    C     0.23272   0.17739   0.48462   0.00000  Uiso   1.00
C27    C     0.24719   0.18843   0.43217   0.00000  Uiso   1.00
C28    C     0.21221   0.19958   0.40763   0.00000  Uiso   1.00
C29    C     0.17090   0.17561   0.06813   0.00000  Uiso   1.00
C30    C     0.25543   0.16177   0.06283   0.00000  Uiso   1.00
C31    C     0.12694   0.18441   0.40519   0.00000  Uiso   1.00
H32    H     0.13365   0.17805   0.09211   0.00000  Uiso   1.00
H33    H     0.04941   0.18698   0.41235   0.00000  Uiso   1.00
H34    H     0.08253   0.19593   0.05559   0.00000  Uiso   1.00
H35    H     0.02509   0.20124   0.00671   0.00000  Uiso   1.00
C36    C     0.20937   0.31207   0.24929   0.00000  Uiso   1.00
H37    H     0.24272   0.29607   0.24890   0.00000  Uiso   1.00
C38    C     0.20931   0.02130   0.24947   0.00000  Uiso   1.00
H39    H     0.24263   0.03733   0.24918   0.00000  Uiso   1.00
C40    C     0.16666   0.04274   0.24998   0.00000  Uiso   1.00
C41    C     0.12405   0.02125   0.25037   0.00000  Uiso   1.00
H42    H     0.09070   0.03724   0.25080   0.00000  Uiso   1.00
C43    C     0.12410   0.31201   0.25023   0.00000  Uiso   1.00
H44    H     0.09078   0.29599   0.25057   0.00000  Uiso   1.00
C45    C     0.16676   0.29058   0.24971   0.00000  Uiso   1.00
C46    C     0.31766   0.19127   0.21651   0.00000  Uiso   1.00
H47    H     0.30630   0.21102   0.18973   0.00000  Uiso   1.00
C48    C     0.03392   0.19125   0.21650   0.00000  Uiso   1.00
H49    H     0.05988   0.21099   0.18969   0.00000  Uiso   1.00
N50    N     0.04931   0.16666   0.24998   0.00000  Uiso   1.00
C51    C     0.01566   0.14209   0.28349   0.00000  Uiso   1.00
H52    H     0.02699   0.12241   0.31035   0.00000  Uiso   1.00
C53    C     0.29944   0.14202   0.28340   0.00000  Uiso   1.00
H54    H     0.27347   0.12231   0.31024   0.00000  Uiso   1.00
N55    N     0.28402   0.16669   0.24999   0.00000  Uiso   1.00
N56    N     0.22620   0.22687   0.36347   0.00000  Uiso   1.00
O57    O     0.19493   0.25368   0.35643   0.00000  Uiso   1.00
O58    O     0.27188   0.23056   0.33652   0.00000  Uiso   1.00
O59    O     0.46042   0.22678   0.25000   0.00000  Uiso   1.00
O60    O     0.53961   0.22679   0.25000   0.00000  Uiso   1.00
C61    C     0.50008   0.24596   0.24975   0.00000  Uiso   1.00
O62    O     0.44108   0.16665   0.32549   0.00000  Uiso   1.00
O63    O     0.52027   0.16666   0.32549   0.00000  Uiso   1.00
C64    C     0.47441   0.17228   0.34938   0.00000  Uiso   1.00
Cu65   Cu    0.45311   0.16666   0.25000   0.00000  Uiso   1.00
Cu66   Cu    0.54689   0.16667   0.25000   0.00000  Uiso   1.00
O67    O     0.46039   0.10654   0.24999   0.00000  Uiso   1.00
O68    O     0.53958   0.10655   0.24999   0.00000  Uiso   1.00
O69    O     0.47973   0.16667   0.17451   0.00000  Uiso   1.00
O70    O     0.55892   0.16668   0.17451   0.00000  Uiso   1.00
C71    C     0.49997   0.08737   0.25004   0.00000  Uiso   1.00
C72    C     0.52593   0.16631   0.14991   0.00000  Uiso   1.00
C73    C     0.60129   0.16588   0.00884   0.00000  Uiso   1.00
H74    H     0.61689   0.15426   0.08105   0.00000  Uiso   1.00
H75    H     0.61909   0.19164   0.41176   0.00000  Uiso   1.00
H76    H     0.63853   0.16038   0.48572   0.00000  Uiso   1.00
C77    C     0.54027   0.16771   0.09280   0.00000  Uiso   1.00
C78    C     0.41055   0.18859   0.43244   0.00000  Uiso   1.00
C79    C     0.39622   0.19537   0.48600   0.00000  Uiso   1.00
C80    C     0.43013   0.19288   0.01390   0.00000  Uiso   1.00
C81    C     0.48041   0.18797   0.48775   0.00000  Uiso   1.00
C82    C     0.49563   0.19058   0.43265   0.00000  Uiso   1.00
C83    C     0.51626   0.18078   0.01398   0.00000  Uiso   1.00
C84    C     0.56605   0.17739   0.48462   0.00000  Uiso   1.00
C85    C     0.58052   0.18843   0.43217   0.00000  Uiso   1.00
C86    C     0.54554   0.19958   0.40763   0.00000  Uiso   1.00
C87    C     0.50423   0.17561   0.06813   0.00000  Uiso   1.00
C88    C     0.58876   0.16177   0.06283   0.00000  Uiso   1.00
C89    C     0.46027   0.18441   0.40519   0.00000  Uiso   1.00
H90    H     0.46698   0.17805   0.09211   0.00000  Uiso   1.00
H91    H     0.38275   0.18698   0.41235   0.00000  Uiso   1.00
H92    H     0.41587   0.19593   0.05559   0.00000  Uiso   1.00
H93    H     0.35842   0.20124   0.00671   0.00000  Uiso   1.00
C94    C     0.54271   0.31207   0.24929   0.00000  Uiso   1.00
H95    H     0.57605   0.29607   0.24890   0.00000  Uiso   1.00
C96    C     0.54265   0.02130   0.24947   0.00000  Uiso   1.00
H97    H     0.57596   0.03733   0.24918   0.00000  Uiso   1.00
C98    C     0.49999   0.04274   0.24998   0.00000  Uiso   1.00
C99    C     0.45739   0.02125   0.25037   0.00000  Uiso   1.00
H100   H     0.42403   0.03724   0.25080   0.00000  Uiso   1.00
C101   C     0.45744   0.31201   0.25023   0.00000  Uiso   1.00
H102   H     0.42411   0.29599   0.25057   0.00000  Uiso   1.00
C103   C     0.50009   0.29058   0.24971   0.00000  Uiso   1.00
C104   C     0.65100   0.19127   0.21651   0.00000  Uiso   1.00
H105   H     0.63963   0.21102   0.18973   0.00000  Uiso   1.00
C106   C     0.36725   0.19125   0.21650   0.00000  Uiso   1.00
H107   H     0.39321   0.21099   0.18969   0.00000  Uiso   1.00
N108   N     0.38265   0.16666   0.24998   0.00000  Uiso   1.00
C109   C     0.34899   0.14209   0.28349   0.00000  Uiso   1.00
H110   H     0.36033   0.12241   0.31035   0.00000  Uiso   1.00
C111   C     0.63277   0.14202   0.28340   0.00000  Uiso   1.00
H112   H     0.60680   0.12231   0.31024   0.00000  Uiso   1.00
N113   N     0.61735   0.16669   0.24999   0.00000  Uiso   1.00
N114   N     0.55953   0.22687   0.36347   0.00000  Uiso   1.00
O115   O     0.52826   0.25368   0.35643   0.00000  Uiso   1.00
O116   O     0.60521   0.23056   0.33652   0.00000  Uiso   1.00
O117   O     0.79375   0.22678   0.25000   0.00000  Uiso   1.00
O118   O     0.87294   0.22679   0.25000   0.00000  Uiso   1.00
C119   C     0.83341   0.24596   0.24975   0.00000  Uiso   1.00
O120   O     0.77441   0.16665   0.32549   0.00000  Uiso   1.00
O121   O     0.85360   0.16666   0.32549   0.00000  Uiso   1.00
C122   C     0.80774   0.17228   0.34938   0.00000  Uiso   1.00
Cu123  Cu    0.78645   0.16666   0.25000   0.00000  Uiso   1.00
Cu124  Cu    0.88022   0.16667   0.25000   0.00000  Uiso   1.00
O125   O     0.79373   0.10654   0.24999   0.00000  Uiso   1.00
O126   O     0.87292   0.10655   0.24999   0.00000  Uiso   1.00
O127   O     0.81306   0.16667   0.17451   0.00000  Uiso   1.00
O128   O     0.89225   0.16668   0.17451   0.00000  Uiso   1.00
C129   C     0.83331   0.08737   0.25004   0.00000  Uiso   1.00
C130   C     0.85926   0.16631   0.14991   0.00000  Uiso   1.00
C131   C     0.93463   0.16588   0.00884   0.00000  Uiso   1.00
H132   H     0.95022   0.15426   0.08105   0.00000  Uiso   1.00
H133   H     0.95242   0.19164   0.41176   0.00000  Uiso   1.00
H134   H     0.97186   0.16038   0.48572   0.00000  Uiso   1.00
C135   C     0.87360   0.16771   0.09280   0.00000  Uiso   1.00
C136   C     0.74388   0.18859   0.43244   0.00000  Uiso   1.00
C137   C     0.72955   0.19537   0.48600   0.00000  Uiso   1.00
C138   C     0.76347   0.19288   0.01390   0.00000  Uiso   1.00
C139   C     0.81374   0.18797   0.48775   0.00000  Uiso   1.00
C140   C     0.82896   0.19058   0.43265   0.00000  Uiso   1.00
C141   C     0.84959   0.18078   0.01398   0.00000  Uiso   1.00
C142   C     0.89938   0.17739   0.48462   0.00000  Uiso   1.00
C143   C     0.91386   0.18843   0.43217   0.00000  Uiso   1.00
C144   C     0.87887   0.19958   0.40763   0.00000  Uiso   1.00
C145   C     0.83756   0.17561   0.06813   0.00000  Uiso   1.00
C146   C     0.92210   0.16177   0.06283   0.00000  Uiso   1.00
C147   C     0.79360   0.18441   0.40519   0.00000  Uiso   1.00
H148   H     0.80032   0.17805   0.09211   0.00000  Uiso   1.00
H149   H     0.71608   0.18698   0.41235   0.00000  Uiso   1.00
H150   H     0.74920   0.19593   0.05559   0.00000  Uiso   1.00
H151   H     0.69176   0.20124   0.00671   0.00000  Uiso   1.00
C152   C     0.87604   0.31207   0.24929   0.00000  Uiso   1.00
H153   H     0.90938   0.29607   0.24890   0.00000  Uiso   1.00
C154   C     0.87598   0.02130   0.24947   0.00000  Uiso   1.00
H155   H     0.90929   0.03733   0.24918   0.00000  Uiso   1.00
C156   C     0.83333   0.04274   0.24998   0.00000  Uiso   1.00
C157   C     0.79072   0.02125   0.25037   0.00000  Uiso   1.00
H158   H     0.75737   0.03724   0.25080   0.00000  Uiso   1.00
C159   C     0.79077   0.31201   0.25023   0.00000  Uiso   1.00
H160   H     0.75745   0.29599   0.25057   0.00000  Uiso   1.00
C161   C     0.83342   0.29058   0.24971   0.00000  Uiso   1.00
C162   C     0.98433   0.19127   0.21651   0.00000  Uiso   1.00
H163   H     0.97297   0.21102   0.18973   0.00000  Uiso   1.00
C164   C     0.70059   0.19125   0.21650   0.00000  Uiso   1.00
H165   H     0.72654   0.21099   0.18969   0.00000  Uiso   1.00
N166   N     0.71598   0.16666   0.24998   0.00000  Uiso   1.00
C167   C     0.68233   0.14209   0.28349   0.00000  Uiso   1.00
H168   H     0.69366   0.12241   0.31035   0.00000  Uiso   1.00
C169   C     0.96610   0.14202   0.28340   0.00000  Uiso   1.00
H170   H     0.94013   0.12231   0.31024   0.00000  Uiso   1.00
N171   N     0.95069   0.16669   0.24999   0.00000  Uiso   1.00
N172   N     0.89287   0.22687   0.36347   0.00000  Uiso   1.00
O173   O     0.86159   0.25368   0.35643   0.00000  Uiso   1.00
O174   O     0.93855   0.23056   0.33652   0.00000  Uiso   1.00
O175   O     0.12708   0.56011   0.25000   0.00000  Uiso   1.00
O176   O     0.20627   0.56012   0.25000   0.00000  Uiso   1.00
C177   C     0.16675   0.57930   0.24975   0.00000  Uiso   1.00
O178   O     0.10775   0.49998   0.32549   0.00000  Uiso   1.00
O179   O     0.18694   0.49999   0.32549   0.00000  Uiso   1.00
C180   C     0.14107   0.50561   0.34938   0.00000  Uiso   1.00
Cu181  Cu    0.11978   0.49999   0.25000   0.00000  Uiso   1.00
Cu182  Cu    0.21355   0.50001   0.25000   0.00000  Uiso   1.00
O183   O     0.12706   0.43988   0.24999   0.00000  Uiso   1.00
O184   O     0.20625   0.43989   0.24999   0.00000  Uiso   1.00
O185   O     0.14640   0.50001   0.17451   0.00000  Uiso   1.00
O186   O     0.22559   0.50002   0.17451   0.00000  Uiso   1.00
C187   C     0.16664   0.42070   0.25004   0.00000  Uiso   1.00
C188   C     0.19259   0.49964   0.14991   0.00000  Uiso   1.00
C189   C     0.26796   0.49921   0.00884   0.00000  Uiso   1.00
H190   H     0.28355   0.48759   0.08105   0.00000  Uiso   1.00
H191   H     0.28576   0.52497   0.41176   0.00000  Uiso   1.00
H192   H     0.30520   0.49371   0.48572   0.00000  Uiso   1.00
C193   C     0.20693   0.50104   0.09280   0.00000  Uiso   1.00
C194   C     0.07722   0.52192   0.43244   0.00000  Uiso   1.00
C195   C     0.06288   0.52870   0.48600   0.00000  Uiso   1.00
C196   C     0.09680   0.52621   0.01390   0.00000  Uiso   1.00
C197   C     0.14708   0.52130   0.48775   0.00000  Uiso   1.00
C198   C     0.16229   0.52391   0.43265   0.00000  Uiso   1.00
C199   C     0.18293   0.51411   0.01398   0.00000  Uiso   1.00
C200   C     0.23272   0.51072   0.48462   0.00000  Uiso   1.00
C201   C     0.24719   0.52176   0.43217   0.00000  Uiso   1.00
C202   C     0.21221   0.53291   0.40763   0.00000  Uiso   1.00
C203   C     0.17090   0.50894   0.06813   0.00000  Uiso   1.00
C204   C     0.25543   0.49510   0.06283   0.00000  Uiso   1.00
C205   C     0.12694   0.51774   0.40519   0.00000  Uiso   1.00
H206   H     0.13365   0.51138   0.09211   0.00000  Uiso   1.00
H207   H     0.04941   0.52031   0.41235   0.00000  Uiso   1.00
H208   H     0.08253   0.52927   0.05559   0.00000  Uiso   1.00
H209   H     0.02509   0.53458   0.00671   0.00000  Uiso   1.00
C210   C     0.20937   0.64540   0.24929   0.00000  Uiso   1.00
H211   H     0.24272   0.62941   0.24890   0.00000  Uiso   1.00
C212   C     0.20931   0.35464   0.24947   0.00000  Uiso   1.00
H213   H     0.24263   0.37066   0.24918   0.00000  Uiso   1.00
C214   C     0.16666   0.37607   0.24998   0.00000  Uiso   1.00
C215   C     0.12405   0.35459   0.25037   0.00000  Uiso   1.00
H216   H     0.09070   0.37057   0.25080   0.00000  Uiso   1.00
C217   C     0.12410   0.64535   0.25023   0.00000  Uiso   1.00
H218   H     0.09078   0.62932   0.25057   0.00000  Uiso   1.00
C219   C     0.16676   0.62392   0.24971   0.00000  Uiso   1.00
C220   C     0.31766   0.52460   0.21651   0.00000  Uiso   1.00
H221   H     0.30630   0.54435   0.18973   0.00000  Uiso   1.00
C222   C     0.03392   0.52458   0.21650   0.00000  Uiso   1.00
H223   H     0.05988   0.54432   0.18969   0.00000  Uiso   1.00
N224   N     0.04931   0.49999   0.24998   0.00000  Uiso   1.00
C225   C     0.01566   0.47543   0.28349   0.00000  Uiso   1.00
H226   H     0.02699   0.45574   0.31035   0.00000  Uiso   1.00
C227   C     0.29944   0.47536   0.28340   0.00000  Uiso   1.00
H228   H     0.27347   0.45564   0.31024   0.00000  Uiso   1.00
N229   N     0.28402   0.50002   0.24999   0.00000  Uiso   1.00
N230   N     0.22620   0.56020   0.36347   0.00000  Uiso   1.00
O231   O     0.19493   0.58701   0.35643   0.00000  Uiso   1.00
O232   O     0.27188   0.56389   0.33652   0.00000  Uiso   1.00
O233   O     0.46042   0.56011   0.25000   0.00000  Uiso   1.00
O234   O     0.53961   0.56012   0.25000   0.00000  Uiso   1.00
C235   C     0.50008   0.57930   0.24975   0.00000  Uiso   1.00
O236   O     0.44108   0.49998   0.32549   0.00000  Uiso   1.00
O237   O     0.52027   0.49999   0.32549   0.00000  Uiso   1.00
C238   C     0.47441   0.50561   0.34938   0.00000  Uiso   1.00
Cu239  Cu    0.45311   0.49999   0.25000   0.00000  Uiso   1.00
Cu240  Cu    0.54689   0.50001   0.25000   0.00000  Uiso   1.00
O241   O     0.46039   0.43988   0.24999   0.00000  Uiso   1.00
O242   O     0.53958   0.43989   0.24999   0.00000  Uiso   1.00
O243   O     0.47973   0.50001   0.17451   0.00000  Uiso   1.00
O244   O     0.55892   0.50002   0.17451   0.00000  Uiso   1.00
C245   C     0.49997   0.42070   0.25004   0.00000  Uiso   1.00
C246   C     0.52593   0.49964   0.14991   0.00000  Uiso   1.00
C247   C     0.60129   0.49921   0.00884   0.00000  Uiso   1.00
H248   H     0.61689   0.48759   0.08105   0.00000  Uiso   1.00
H249   H     0.61909   0.52497   0.41176   0.00000  Uiso   1.00
H250   H     0.63853   0.49371   0.48572   0.00000  Uiso   1.00
C251   C     0.54027   0.50104   0.09280   0.00000  Uiso   1.00
C252   C     0.41055   0.52192   0.43244   0.00000  Uiso   1.00
C253   C     0.39622   0.52870   0.48600   0.00000  Uiso   1.00
C254   C     0.43013   0.52621   0.01390   0.00000  Uiso   1.00
C255   C     0.48041   0.52130   0.48775   0.00000  Uiso   1.00
C256   C     0.49563   0.52391   0.43265   0.00000  Uiso   1.00
C257   C     0.51626   0.51411   0.01398   0.00000  Uiso   1.00
C258   C     0.56605   0.51072   0.48462   0.00000  Uiso   1.00
C259   C     0.58052   0.52176   0.43217   0.00000  Uiso   1.00
C260   C     0.54554   0.53291   0.40763   0.00000  Uiso   1.00
C261   C     0.50423   0.50894   0.06813   0.00000  Uiso   1.00
C262   C     0.58876   0.49510   0.06283   0.00000  Uiso   1.00
C263   C     0.46027   0.51774   0.40519   0.00000  Uiso   1.00
H264   H     0.46698   0.51138   0.09211   0.00000  Uiso   1.00
H265   H     0.38275   0.52031   0.41235   0.00000  Uiso   1.00
H266   H     0.41587   0.52927   0.05559   0.00000  Uiso   1.00
H267   H     0.35842   0.53458   0.00671   0.00000  Uiso   1.00
C268   C     0.54271   0.64540   0.24929   0.00000  Uiso   1.00
H269   H     0.57605   0.62941   0.24890   0.00000  Uiso   1.00
C270   C     0.54265   0.35464   0.24947   0.00000  Uiso   1.00
H271   H     0.57596   0.37066   0.24918   0.00000  Uiso   1.00
C272   C     0.49999   0.37607   0.24998   0.00000  Uiso   1.00
C273   C     0.45739   0.35459   0.25037   0.00000  Uiso   1.00
H274   H     0.42403   0.37057   0.25080   0.00000  Uiso   1.00
C275   C     0.45744   0.64535   0.25023   0.00000  Uiso   1.00
H276   H     0.42411   0.62932   0.25057   0.00000  Uiso   1.00
C277   C     0.50009   0.62392   0.24971   0.00000  Uiso   1.00
C278   C     0.65100   0.52460   0.21651   0.00000  Uiso   1.00
H279   H     0.63963   0.54435   0.18973   0.00000  Uiso   1.00
C280   C     0.36725   0.52458   0.21650   0.00000  Uiso   1.00
H281   H     0.39321   0.54432   0.18969   0.00000  Uiso   1.00
N282   N     0.38265   0.49999   0.24998   0.00000  Uiso   1.00
C283   C     0.34899   0.47543   0.28349   0.00000  Uiso   1.00
H284   H     0.36033   0.45574   0.31035   0.00000  Uiso   1.00
C285   C     0.63277   0.47536   0.28340   0.00000  Uiso   1.00
H286   H     0.60680   0.45564   0.31024   0.00000  Uiso   1.00
N287   N     0.61735   0.50002   0.24999   0.00000  Uiso   1.00
N288   N     0.55953   0.56020   0.36347   0.00000  Uiso   1.00
O289   O     0.52826   0.58701   0.35643   0.00000  Uiso   1.00
O290   O     0.60521   0.56389   0.33652   0.00000  Uiso   1.00
O291   O     0.79375   0.56011   0.25000   0.00000  Uiso   1.00
O292   O     0.87294   0.56012   0.25000   0.00000  Uiso   1.00
C293   C     0.83341   0.57930   0.24975   0.00000  Uiso   1.00
O294   O     0.77441   0.49998   0.32549   0.00000  Uiso   1.00
O295   O     0.85360   0.49999   0.32549   0.00000  Uiso   1.00
C296   C     0.80774   0.50561   0.34938   0.00000  Uiso   1.00
Cu297  Cu    0.78645   0.49999   0.25000   0.00000  Uiso   1.00
Cu298  Cu    0.88022   0.50001   0.25000   0.00000  Uiso   1.00
O299   O     0.79373   0.43988   0.24999   0.00000  Uiso   1.00
O300   O     0.87292   0.43989   0.24999   0.00000  Uiso   1.00
O301   O     0.81306   0.50001   0.17451   0.00000  Uiso   1.00
O302   O     0.89225   0.50002   0.17451   0.00000  Uiso   1.00
C303   C     0.83331   0.42070   0.25004   0.00000  Uiso   1.00
C304   C     0.85926   0.49964   0.14991   0.00000  Uiso   1.00
C305   C     0.93463   0.49921   0.00884   0.00000  Uiso   1.00
H306   H     0.95022   0.48759   0.08105   0.00000  Uiso   1.00
H307   H     0.95242   0.52497   0.41176   0.00000  Uiso   1.00
H308   H     0.97186   0.49371   0.48572   0.00000  Uiso   1.00
C309   C     0.87360   0.50104   0.09280   0.00000  Uiso   1.00
C310   C     0.74388   0.52192   0.43244   0.00000  Uiso   1.00
C311   C     0.72955   0.52870   0.48600   0.00000  Uiso   1.00
C312   C     0.76347   0.52621   0.01390   0.00000  Uiso   1.00
C313   C     0.81374   0.52130   0.48775   0.00000  Uiso   1.00
C314   C     0.82896   0.52391   0.43265   0.00000  Uiso   1.00
C315   C     0.84959   0.51411   0.01398   0.00000  Uiso   1.00
C316   C     0.89938   0.51072   0.48462   0.00000  Uiso   1.00
C317   C     0.91386   0.52176   0.43217   0.00000  Uiso   1.00
C318   C     0.87887   0.53291   0.40763   0.00000  Uiso   1.00
C319   C     0.83756   0.50894   0.06813   0.00000  Uiso   1.00
C320   C     0.92210   0.49510   0.06283   0.00000  Uiso   1.00
C321   C     0.79360   0.51774   0.40519   0.00000  Uiso   1.00
H322   H     0.80032   0.51138   0.09211   0.00000  Uiso   1.00
H323   H     0.71608   0.52031   0.41235   0.00000  Uiso   1.00
H324   H     0.74920   0.52927   0.05559   0.00000  Uiso   1.00
H325   H     0.69176   0.53458   0.00671   0.00000  Uiso   1.00
C326   C     0.87604   0.64540   0.24929   0.00000  Uiso   1.00
H327   H     0.90938   0.62941   0.24890   0.00000  Uiso   1.00
C328   C     0.87598   0.35464   0.24947   0.00000  Uiso   1.00
H329   H     0.90929   0.37066   0.24918   0.00000  Uiso   1.00
C330   C     0.83333   0.37607   0.24998   0.00000  Uiso   1.00
C331   C     0.79072   0.35459   0.25037   0.00000  Uiso   1.00
H332   H     0.75737   0.37057   0.25080   0.00000  Uiso   1.00
C333   C     0.79077   0.64535   0.25023   0.00000  Uiso   1.00
H334   H     0.75745   0.62932   0.25057   0.00000  Uiso   1.00
C335   C     0.83342   0.62392   0.24971   0.00000  Uiso   1.00
C336   C     0.98433   0.52460   0.21651   0.00000  Uiso   1.00
H337   H     0.97297   0.54435   0.18973   0.00000  Uiso   1.00
C338   C     0.70059   0.52458   0.21650   0.00000  Uiso   1.00
H339   H     0.72654   0.54432   0.18969   0.00000  Uiso   1.00
N340   N     0.71598   0.49999   0.24998   0.00000  Uiso   1.00
C341   C     0.68233   0.47543   0.28349   0.00000  Uiso   1.00
H342   H     0.69366   0.45574   0.31035   0.00000  Uiso   1.00
C343   C     0.96610   0.47536   0.28340   0.00000  Uiso   1.00
H344   H     0.94013   0.45564   0.31024   0.00000  Uiso   1.00
N345   N     0.95069   0.50002   0.24999   0.00000  Uiso   1.00
N346   N     0.89287   0.56020   0.36347   0.00000  Uiso   1.00
O347   O     0.86159   0.58701   0.35643   0.00000  Uiso   1.00
O348   O     0.93855   0.56389   0.33652   0.00000  Uiso   1.00
O349   O     0.12708   0.89345   0.25000   0.00000  Uiso   1.00
O350   O     0.20627   0.89346   0.25000   0.00000  Uiso   1.00
C351   C     0.16675   0.91263   0.24975   0.00000  Uiso   1.00
O352   O     0.10775   0.83332   0.32549   0.00000  Uiso   1.00
O353   O     0.18694   0.83333   0.32549   0.00000  Uiso   1.00
C354   C     0.14107   0.83895   0.34938   0.00000  Uiso   1.00
Cu355  Cu    0.11978   0.83333   0.25000   0.00000  Uiso   1.00
Cu356  Cu    0.21355   0.83334   0.25000   0.00000  Uiso   1.00
O357   O     0.12706   0.77321   0.24999   0.00000  Uiso   1.00
O358   O     0.20625   0.77322   0.24999   0.00000  Uiso   1.00
O359   O     0.14640   0.83334   0.17451   0.00000  Uiso   1.00
O360   O     0.22559   0.83335   0.17451   0.00000  Uiso   1.00
C361   C     0.16664   0.75403   0.25004   0.00000  Uiso   1.00
C362   C     0.19259   0.83298   0.14991   0.00000  Uiso   1.00
C363   C     0.26796   0.83254   0.00884   0.00000  Uiso   1.00
H364   H     0.28355   0.82092   0.08105   0.00000  Uiso   1.00
H365   H     0.28576   0.85831   0.41176   0.00000  Uiso   1.00
H366   H     0.30520   0.82705   0.48572   0.00000  Uiso   1.00
C367   C     0.20693   0.83437   0.09280   0.00000  Uiso   1.00
C368   C     0.07722   0.85526   0.43244   0.00000  Uiso   1.00
C369   C     0.06288   0.86203   0.48600   0.00000  Uiso   1.00
C370   C     0.09680   0.85955   0.01390   0.00000  Uiso   1.00
C371   C     0.14708   0.85463   0.48775   0.00000  Uiso   1.00
C372   C     0.16229   0.85724   0.43265   0.00000  Uiso   1.00
C373   C     0.18293   0.84745   0.01398   0.00000  Uiso   1.00
C374   C     0.23272   0.84406   0.48462   0.00000  Uiso   1.00
C375   C     0.24719   0.85510   0.43217   0.00000  Uiso   1.00
C376   C     0.21221   0.86624   0.40763   0.00000  Uiso   1.00
C377   C     0.17090   0.84227   0.06813   0.00000  Uiso   1.00
C378   C     0.25543   0.82843   0.06283   0.00000  Uiso   1.00
C379   C     0.12694   0.85108   0.40519   0.00000  Uiso   1.00
H380   H     0.13365   0.84472   0.09211   0.00000  Uiso   1.00
H381   H     0.04941   0.85364   0.41235   0.00000  Uiso   1.00
H382   H     0.08253   0.86260   0.05559   0.00000  Uiso   1.00
H383   H     0.02509   0.86791   0.00671   0.00000  Uiso   1.00
C384   C     0.20937   0.97873   0.24929   0.00000  Uiso   1.00
H385   H     0.24272   0.96274   0.24890   0.00000  Uiso   1.00
C386   C     0.20931   0.68797   0.24947   0.00000  Uiso   1.00
H387   H     0.24263   0.70400   0.24918   0.00000  Uiso   1.00
C388   C     0.16666   0.70941   0.24998   0.00000  Uiso   1.00
C389   C     0.12405   0.68792   0.25037   0.00000  Uiso   1.00
H390   H     0.09070   0.70391   0.25080   0.00000  Uiso   1.00
C391   C     0.12410   0.97868   0.25023   0.00000  Uiso   1.00
H392   H     0.09078   0.96265   0.25057   0.00000  Uiso   1.00
C393   C     0.16676   0.95725   0.24971   0.00000  Uiso   1.00
C394   C     0.31766   0.85793   0.21651   0.00000  Uiso   1.00
H395   H     0.30630   0.87769   0.18973   0.00000  Uiso   1.00
C396   C     0.03392   0.85791   0.21650   0.00000  Uiso   1.00
H397   H     0.05988   0.87766   0.18969   0.00000  Uiso   1.00
N398   N     0.04931   0.83332   0.24998   0.00000  Uiso   1.00
C399   C     0.01566   0.80876   0.28349   0.00000  Uiso   1.00
H400   H     0.02699   0.78908   0.31035   0.00000  Uiso   1.00
C401   C     0.29944   0.80869   0.28340   0.00000  Uiso   1.00
H402   H     0.27347   0.78898   0.31024   0.00000  Uiso   1.00
N403   N     0.28402   0.83335   0.24999   0.00000  Uiso   1.00
N404   N     0.22620   0.89354   0.36347   0.00000  Uiso   1.00
O405   O     0.19493   0.92034   0.35643   0.00000  Uiso   1.00
O406   O     0.27188   0.89722   0.33652   0.00000  Uiso   1.00
O407   O     0.46042   0.89345   0.25000   0.00000  Uiso   1.00
O408   O     0.53961   0.89346   0.25000   0.00000  Uiso   1.00
C409   C     0.50008   0.91263   0.24975   0.00000  Uiso   1.00
O410   O     0.44108   0.83332   0.32549   0.00000  Uiso   1.00
O411   O     0.52027   0.83333   0.32549   0.00000  Uiso   1.00
C412   C     0.47441   0.83895   0.34938   0.00000  Uiso   1.00
Cu413  Cu    0.45311   0.83333   0.25000   0.00000  Uiso   1.00
Cu414  Cu    0.54689   0.83334   0.25000   0.00000  Uiso   1.00
O415   O     0.46039   0.77321   0.24999   0.00000  Uiso   1.00
O416   O     0.53958   0.77322   0.24999   0.00000  Uiso   1.00
O417   O     0.47973   0.83334   0.17451   0.00000  Uiso   1.00
O418   O     0.55892   0.83335   0.17451   0.00000  Uiso   1.00
C419   C     0.49997   0.75403   0.25004   0.00000  Uiso   1.00
C420   C     0.52593   0.83298   0.14991   0.00000  Uiso   1.00
C421   C     0.60129   0.83254   0.00884   0.00000  Uiso   1.00
H422   H     0.61689   0.82092   0.08105   0.00000  Uiso   1.00
H423   H     0.61909   0.85831   0.41176   0.00000  Uiso   1.00
H424   H     0.63853   0.82705   0.48572   0.00000  Uiso   1.00
C425   C     0.54027   0.83437   0.09280   0.00000  Uiso   1.00
C426   C     0.41055   0.85526   0.43244   0.00000  Uiso   1.00
C427   C     0.39622   0.86203   0.48600   0.00000  Uiso   1.00
C428   C     0.43013   0.85955   0.01390   0.00000  Uiso   1.00
C429   C     0.48041   0.85463   0.48775   0.00000  Uiso   1.00
C430   C     0.49563   0.85724   0.43265   0.00000  Uiso   1.00
C431   C     0.51626   0.84745   0.01398   0.00000  Uiso   1.00
C432   C     0.56605   0.84406   0.48462   0.00000  Uiso   1.00
C433   C     0.58052   0.85510   0.43217   0.00000  Uiso   1.00
C434   C     0.54554   0.86624   0.40763   0.00000  Uiso   1.00
C435   C     0.50423   0.84227   0.06813   0.00000  Uiso   1.00
C436   C     0.58876   0.82843   0.06283   0.00000  Uiso   1.00
C437   C     0.46027   0.85108   0.40519   0.00000  Uiso   1.00
H438   H     0.46698   0.84472   0.09211   0.00000  Uiso   1.00
H439   H     0.38275   0.85364   0.41235   0.00000  Uiso   1.00
H440   H     0.41587   0.86260   0.05559   0.00000  Uiso   1.00
H441   H     0.35842   0.86791   0.00671   0.00000  Uiso   1.00
C442   C     0.54271   0.97873   0.24929   0.00000  Uiso   1.00
H443   H     0.57605   0.96274   0.24890   0.00000  Uiso   1.00
C444   C     0.54265   0.68797   0.24947   0.00000  Uiso   1.00
H445   H     0.57596   0.70400   0.24918   0.00000  Uiso   1.00
C446   C     0.49999   0.70941   0.24998   0.00000  Uiso   1.00
C447   C     0.45739   0.68792   0.25037   0.00000  Uiso   1.00
H448   H     0.42403   0.70391   0.25080   0.00000  Uiso   1.00
C449   C     0.45744   0.97868   0.25023   0.00000  Uiso   1.00
H450   H     0.42411   0.96265   0.25057   0.00000  Uiso   1.00
C451   C     0.50009   0.95725   0.24971   0.00000  Uiso   1.00
C452   C     0.65100   0.85793   0.21651   0.00000  Uiso   1.00
H453   H     0.63963   0.87769   0.18973   0.00000  Uiso   1.00
C454   C     0.36725   0.85791   0.21650   0.00000  Uiso   1.00
H455   H     0.39321   0.87766   0.18969   0.00000  Uiso   1.00
N456   N     0.38265   0.83332   0.24998   0.00000  Uiso   1.00
C457   C     0.34899   0.80876   0.28349   0.00000  Uiso   1.00
H458   H     0.36033   0.78908   0.31035   0.00000  Uiso   1.00
C459   C     0.63277   0.80869   0.28340   0.00000  Uiso   1.00
H460   H     0.60680   0.78898   0.31024   0.00000  Uiso   1.00
N461   N     0.61735   0.83335   0.24999   0.00000  Uiso   1.00
N462   N     0.55953   0.89354   0.36347   0.00000  Uiso   1.00
O463   O     0.52826   0.92034   0.35643   0.00000  Uiso   1.00
O464   O     0.60521   0.89722   0.33652   0.00000  Uiso   1.00
O465   O     0.79375   0.89345   0.25000   0.00000  Uiso   1.00
O466   O     0.87294   0.89346   0.25000   0.00000  Uiso   1.00
C467   C     0.83341   0.91263   0.24975   0.00000  Uiso   1.00
O468   O     0.77441   0.83332   0.32549   0.00000  Uiso   1.00
O469   O     0.85360   0.83333   0.32549   0.00000  Uiso   1.00
C470   C     0.80774   0.83895   0.34938   0.00000  Uiso   1.00
Cu471  Cu    0.78645   0.83333   0.25000   0.00000  Uiso   1.00
Cu472  Cu    0.88022   0.83334   0.25000   0.00000  Uiso   1.00
O473   O     0.79373   0.77321   0.24999   0.00000  Uiso   1.00
O474   O     0.87292   0.77322   0.24999   0.00000  Uiso   1.00
O475   O     0.81306   0.83334   0.17451   0.00000  Uiso   1.00
O476   O     0.89225   0.83335   0.17451   0.00000  Uiso   1.00
C477   C     0.83331   0.75403   0.25004   0.00000  Uiso   1.00
C478   C     0.85926   0.83298   0.14991   0.00000  Uiso   1.00
C479   C     0.93463   0.83254   0.00884   0.00000  Uiso   1.00
H480   H     0.95022   0.82092   0.08105   0.00000  Uiso   1.00
H481   H     0.95242   0.85831   0.41176   0.00000  Uiso   1.00
H482   H     0.97186   0.82705   0.48572   0.00000  Uiso   1.00
C483   C     0.87360   0.83437   0.09280   0.00000  Uiso   1.00
C484   C     0.74388   0.85526   0.43244   0.00000  Uiso   1.00
C485   C     0.72955   0.86203   0.48600   0.00000  Uiso   1.00
C486   C     0.76347   0.85955   0.01390   0.00000  Uiso   1.00
C487   C     0.81374   0.85463   0.48775   0.00000  Uiso   1.00
C488   C     0.82896   0.85724   0.43265   0.00000  Uiso   1.00
C489   C     0.84959   0.84745   0.01398   0.00000  Uiso   1.00
C490   C     0.89938   0.84406   0.48462   0.00000  Uiso   1.00
C491   C     0.91386   0.85510   0.43217   0.00000  Uiso   1.00
C492   C     0.87887   0.86624   0.40763   0.00000  Uiso   1.00
C493   C     0.83756   0.84227   0.06813   0.00000  Uiso   1.00
C494   C     0.92210   0.82843   0.06283   0.00000  Uiso   1.00
C495   C     0.79360   0.85108   0.40519   0.00000  Uiso   1.00
H496   H     0.80032   0.84472   0.09211   0.00000  Uiso   1.00
H497   H     0.71608   0.85364   0.41235   0.00000  Uiso   1.00
H498   H     0.74920   0.86260   0.05559   0.00000  Uiso   1.00
H499   H     0.69176   0.86791   0.00671   0.00000  Uiso   1.00
C500   C     0.87604   0.97873   0.24929   0.00000  Uiso   1.00
H501   H     0.90938   0.96274   0.24890   0.00000  Uiso   1.00
C502   C     0.87598   0.68797   0.24947   0.00000  Uiso   1.00
H503   H     0.90929   0.70400   0.24918   0.00000  Uiso   1.00
C504   C     0.83333   0.70941   0.24998   0.00000  Uiso   1.00
C505   C     0.79072   0.68792   0.25037   0.00000  Uiso   1.00
H506   H     0.75737   0.70391   0.25080   0.00000  Uiso   1.00
C507   C     0.79077   0.97868   0.25023   0.00000  Uiso   1.00
H508   H     0.75745   0.96265   0.25057   0.00000  Uiso   1.00
C509   C     0.83342   0.95725   0.24971   0.00000  Uiso   1.00
C510   C     0.98433   0.85793   0.21651   0.00000  Uiso   1.00
H511   H     0.97297   0.87769   0.18973   0.00000  Uiso   1.00
C512   C     0.70059   0.85791   0.21650   0.00000  Uiso   1.00
H513   H     0.72654   0.87766   0.18969   0.00000  Uiso   1.00
N514   N     0.71598   0.83332   0.24998   0.00000  Uiso   1.00
C515   C     0.68233   0.80876   0.28349   0.00000  Uiso   1.00
H516   H     0.69366   0.78908   0.31035   0.00000  Uiso   1.00
C517   C     0.96610   0.80869   0.28340   0.00000  Uiso   1.00
H518   H     0.94013   0.78898   0.31024   0.00000  Uiso   1.00
N519   N     0.95069   0.83335   0.24999   0.00000  Uiso   1.00
N520   N     0.89287   0.89354   0.36347   0.00000  Uiso   1.00
O521   O     0.86159   0.92034   0.35643   0.00000  Uiso   1.00
O522   O     0.93855   0.89722   0.33652   0.00000  Uiso   1.00
O523   O     0.12708   0.22678   0.75000   0.00000  Uiso   1.00
O524   O     0.20627   0.22679   0.75000   0.00000  Uiso   1.00
C525   C     0.16675   0.24596   0.74975   0.00000  Uiso   1.00
O526   O     0.10775   0.16665   0.82549   0.00000  Uiso   1.00
O527   O     0.18694   0.16666   0.82549   0.00000  Uiso   1.00
C528   C     0.14107   0.17228   0.84938   0.00000  Uiso   1.00
Cu529  Cu    0.11978   0.16666   0.75000   0.00000  Uiso   1.00
Cu530  Cu    0.21355   0.16667   0.75000   0.00000  Uiso   1.00
O531   O     0.12706   0.10654   0.74999   0.00000  Uiso   1.00
O532   O     0.20625   0.10655   0.74999   0.00000  Uiso   1.00
O533   O     0.14640   0.16667   0.67451   0.00000  Uiso   1.00
O534   O     0.22559   0.16668   0.67451   0.00000  Uiso   1.00
C535   C     0.16664   0.08737   0.75004   0.00000  Uiso   1.00
C536   C     0.19259   0.16631   0.64991   0.00000  Uiso   1.00
C537   C     0.26796   0.16588   0.50884   0.00000  Uiso   1.00
H538   H     0.28355   0.15426   0.58105   0.00000  Uiso   1.00
H539   H     0.28576   0.19164   0.91176   0.00000  Uiso   1.00
H540   H     0.30520   0.16038   0.98572   0.00000  Uiso   1.00
C541   C     0.20693   0.16771   0.59280   0.00000  Uiso   1.00
C542   C     0.07722   0.18859   0.93244   0.00000  Uiso   1.00
C543   C     0.06288   0.19537   0.98600   0.00000  Uiso   1.00
C544   C     0.09680   0.19288   0.51390   0.00000  Uiso   1.00
C545   C     0.14708   0.18797   0.98775   0.00000  Uiso   1.00
C546   C     0.16229   0.19058   0.93265   0.00000  Uiso   1.00
C547   C     0.18293   0.18078   0.51398   0.00000  Uiso   1.00
C548   C     0.23272   0.17739   0.98462   0.00000  Uiso   1.00
C549   C     0.24719   0.18843   0.93217   0.00000  Uiso   1.00
C550   C     0.21221   0.19958   0.90763   0.00000  Uiso   1.00
C551   C     0.17090   0.17561   0.56813   0.00000  Uiso   1.00
C552   C     0.25543   0.16177   0.56283   0.00000  Uiso   1.00
C553   C     0.12694   0.18441   0.90519   0.00000  Uiso   1.00
H554   H     0.13365   0.17805   0.59211   0.00000  Uiso   1.00
H555   H     0.04941   0.18698   0.91235   0.00000  Uiso   1.00
H556   H     0.08253   0.19593   0.55559   0.00000  Uiso   1.00
H557   H     0.02509   0.20124   0.50671   0.00000  Uiso   1.00
C558   C     0.20937   0.31207   0.74929   0.00000  Uiso   1.00
H559   H     0.24272   0.29607   0.74890   0.00000  Uiso   1.00
C560   C     0.20931   0.02130   0.74947   0.00000  Uiso   1.00
H561   H     0.24263   0.03733   0.74918   0.00000  Uiso   1.00
C562   C     0.16666   0.04274   0.74998   0.00000  Uiso   1.00
C563   C     0.12405   0.02125   0.75037   0.00000  Uiso   1.00
H564   H     0.09070   0.03724   0.75080   0.00000  Uiso   1.00
C565   C     0.12410   0.31201   0.75023   0.00000  Uiso   1.00
H566   H     0.09078   0.29599   0.75057   0.00000  Uiso   1.00
C567   C     0.16676   0.29058   0.74971   0.00000  Uiso   1.00
C568   C     0.31766   0.19127   0.71651   0.00000  Uiso   1.00
H569   H     0.30630   0.21102   0.68973   0.00000  Uiso   1.00
C570   C     0.03392   0.19125   0.71650   0.00000  Uiso   1.00
H571   H     0.05988   0.21099   0.68969   0.00000  Uiso   1.00
N572   N     0.04931   0.16666   0.74998   0.00000  Uiso   1.00
C573   C     0.01566   0.14209   0.78349   0.00000  Uiso   1.00
H574   H     0.02699   0.12241   0.81035   0.00000  Uiso   1.00
C575   C     0.29944   0.14202   0.78340   0.00000  Uiso   1.00
H576   H     0.27347   0.12231   0.81024   0.00000  Uiso   1.00
N577   N     0.28402   0.16669   0.74999   0.00000  Uiso   1.00
N578   N     0.22620   0.22687   0.86347   0.00000  Uiso   1.00
O579   O     0.19493   0.25368   0.85643   0.00000  Uiso   1.00
O580   O     0.27188   0.23056   0.83652   0.00000  Uiso   1.00
O581   O     0.46042   0.22678   0.75000   0.00000  Uiso   1.00
O582   O     0.53961   0.22679   0.75000   0.00000  Uiso   1.00
C583   C     0.50008   0.24596   0.74975   0.00000  Uiso   1.00
O584   O     0.44108   0.16665   0.82549   0.00000  Uiso   1.00
O585   O     0.52027   0.16666   0.82549   0.00000  Uiso   1.00
C586   C     0.47441   0.17228   0.84938   0.00000  Uiso   1.00
Cu587  Cu    0.45311   0.16666   0.75000   0.00000  Uiso   1.00
Cu588  Cu    0.54689   0.16667   0.75000   0.00000  Uiso   1.00
O589   O     0.46039   0.10654   0.74999   0.00000  Uiso   1.00
O590   O     0.53958   0.10655   0.74999   0.00000  Uiso   1.00
O591   O     0.47973   0.16667   0.67451   0.00000  Uiso   1.00
O592   O     0.55892   0.16668   0.67451   0.00000  Uiso   1.00
C593   C     0.49997   0.08737   0.75004   0.00000  Uiso   1.00
C594   C     0.52593   0.16631   0.64991   0.00000  Uiso   1.00
C595   C     0.60129   0.16588   0.50884   0.00000  Uiso   1.00
H596   H     0.61689   0.15426   0.58105   0.00000  Uiso   1.00
H597   H     0.61909   0.19164   0.91176   0.00000  Uiso   1.00
H598   H     0.63853   0.16038   0.98572   0.00000  Uiso   1.00
C599   C     0.54027   0.16771   0.59280   0.00000  Uiso   1.00
C600   C     0.41055   0.18859   0.93244   0.00000  Uiso   1.00
C601   C     0.39622   0.19537   0.98600   0.00000  Uiso   1.00
C602   C     0.43013   0.19288   0.51390   0.00000  Uiso   1.00
C603   C     0.48041   0.18797   0.98775   0.00000  Uiso   1.00
C604   C     0.49563   0.19058   0.93265   0.00000  Uiso   1.00
C605   C     0.51626   0.18078   0.51398   0.00000  Uiso   1.00
C606   C     0.56605   0.17739   0.98462   0.00000  Uiso   1.00
C607   C     0.58052   0.18843   0.93217   0.00000  Uiso   1.00
C608   C     0.54554   0.19958   0.90763   0.00000  Uiso   1.00
C609   C     0.50423   0.17561   0.56813   0.00000  Uiso   1.00
C610   C     0.58876   0.16177   0.56283   0.00000  Uiso   1.00
C611   C     0.46027   0.18441   0.90519   0.00000  Uiso   1.00
H612   H     0.46698   0.17805   0.59211   0.00000  Uiso   1.00
H613   H     0.38275   0.18698   0.91235   0.00000  Uiso   1.00
H614   H     0.41587   0.19593   0.55559   0.00000  Uiso   1.00
H615   H     0.35842   0.20124   0.50671   0.00000  Uiso   1.00
C616   C     0.54271   0.31207   0.74929   0.00000  Uiso   1.00
H617   H     0.57605   0.29607   0.74890   0.00000  Uiso   1.00
C618   C     0.54265   0.02130   0.74947   0.00000  Uiso   1.00
H619   H     0.57596   0.03733   0.74918   0.00000  Uiso   1.00
C620   C     0.49999   0.04274   0.74998   0.00000  Uiso   1.00
C621   C     0.45739   0.02125   0.75037   0.00000  Uiso   1.00
H622   H     0.42403   0.03724   0.75080   0.00000  Uiso   1.00
C623   C     0.45744   0.31201   0.75023   0.00000  Uiso   1.00
H624   H     0.42411   0.29599   0.75057   0.00000  Uiso   1.00
C625   C     0.50009   0.29058   0.74971   0.00000  Uiso   1.00
C626   C     0.65100   0.19127   0.71651   0.00000  Uiso   1.00
H627   H     0.63963   0.21102   0.68973   0.00000  Uiso   1.00
C628   C     0.36725   0.19125   0.71650   0.00000  Uiso   1.00
H629   H     0.39321   0.21099   0.68969   0.00000  Uiso   1.00
N630   N     0.38265   0.16666   0.74998   0.00000  Uiso   1.00
C631   C     0.34899   0.14209   0.78349   0.00000  Uiso   1.00
H632   H     0.36033   0.12241   0.81035   0.00000  Uiso   1.00
C633   C     0.63277   0.14202   0.78340   0.00000  Uiso   1.00
H634   H     0.60680   0.12231   0.81024   0.00000  Uiso   1.00
N635   N     0.61735   0.16669   0.74999   0.00000  Uiso   1.00
N636   N     0.55953   0.22687   0.86347   0.00000  Uiso   1.00
O637   O     0.52826   0.25368   0.85643   0.00000  Uiso   1.00
O638   O     0.60521   0.23056   0.83652   0.00000  Uiso   1.00
O639   O     0.79375   0.22678   0.75000   0.00000  Uiso   1.00
O640   O     0.87294   0.22679   0.75000   0.00000  Uiso   1.00
C641   C     0.83341   0.24596   0.74975   0.00000  Uiso   1.00
O642   O     0.77441   0.16665   0.82549   0.00000  Uiso   1.00
O643   O     0.85360   0.16666   0.82549   0.00000  Uiso   1.00
C644   C     0.80774   0.17228   0.84938   0.00000  Uiso   1.00
Cu645  Cu    0.78645   0.16666   0.75000   0.00000  Uiso   1.00
Cu646  Cu    0.88022   0.16667   0.75000   0.00000  Uiso   1.00
O647   O     0.79373   0.10654   0.74999   0.00000  Uiso   1.00
O648   O     0.87292   0.10655   0.74999   0.00000  Uiso   1.00
O649   O     0.81306   0.16667   0.67451   0.00000  Uiso   1.00
O650   O     0.89225   0.16668   0.67451   0.00000  Uiso   1.00
C651   C     0.83331   0.08737   0.75004   0.00000  Uiso   1.00
C652   C     0.85926   0.16631   0.64991   0.00000  Uiso   1.00
C653   C     0.93463   0.16588   0.50884   0.00000  Uiso   1.00
H654   H     0.95022   0.15426   0.58105   0.00000  Uiso   1.00
H655   H     0.95242   0.19164   0.91176   0.00000  Uiso   1.00
H656   H     0.97186   0.16038   0.98572   0.00000  Uiso   1.00
C657   C     0.87360   0.16771   0.59280   0.00000  Uiso   1.00
C658   C     0.74388   0.18859   0.93244   0.00000  Uiso   1.00
C659   C     0.72955   0.19537   0.98600   0.00000  Uiso   1.00
C660   C     0.76347   0.19288   0.51390   0.00000  Uiso   1.00
C661   C     0.81374   0.18797   0.98775   0.00000  Uiso   1.00
C662   C     0.82896   0.19058   0.93265   0.00000  Uiso   1.00
C663   C     0.84959   0.18078   0.51398   0.00000  Uiso   1.00
C664   C     0.89938   0.17739   0.98462   0.00000  Uiso   1.00
C665   C     0.91386   0.18843   0.93217   0.00000  Uiso   1.00
C666   C     0.87887   0.19958   0.90763   0.00000  Uiso   1.00
C667   C     0.83756   0.17561   0.56813   0.00000  Uiso   1.00
C668   C     0.92210   0.16177   0.56283   0.00000  Uiso   1.00
C669   C     0.79360   0.18441   0.90519   0.00000  Uiso   1.00
H670   H     0.80032   0.17805   0.59211   0.00000  Uiso   1.00
H671   H     0.71608   0.18698   0.91235   0.00000  Uiso   1.00
H672   H     0.74920   0.19593   0.55559   0.00000  Uiso   1.00
H673   H     0.69176   0.20124   0.50671   0.00000  Uiso   1.00
C674   C     0.87604   0.31207   0.74929   0.00000  Uiso   1.00
H675   H     0.90938   0.29607   0.74890   0.00000  Uiso   1.00
C676   C     0.87598   0.02130   0.74947   0.00000  Uiso   1.00
H677   H     0.90929   0.03733   0.74918   0.00000  Uiso   1.00
C678   C     0.83333   0.04274   0.74998   0.00000  Uiso   1.00
C679   C     0.79072   0.02125   0.75037   0.00000  Uiso   1.00
H680   H     0.75737   0.03724   0.75080   0.00000  Uiso   1.00
C681   C     0.79077   0.31201   0.75023   0.00000  Uiso   1.00
H682   H     0.75745   0.29599   0.75057   0.00000  Uiso   1.00
C683   C     0.83342   0.29058   0.74971   0.00000  Uiso   1.00
C684   C     0.98433   0.19127   0.71651   0.00000  Uiso   1.00
H685   H     0.97297   0.21102   0.68973   0.00000  Uiso   1.00
C686   C     0.70059   0.19125   0.71650   0.00000  Uiso   1.00
H687   H     0.72654   0.21099   0.68969   0.00000  Uiso   1.00
N688   N     0.71598   0.16666   0.74998   0.00000  Uiso   1.00
C689   C     0.68233   0.14209   0.78349   0.00000  Uiso   1.00
H690   H     0.69366   0.12241   0.81035   0.00000  Uiso   1.00
C691   C     0.96610   0.14202   0.78340   0.00000  Uiso   1.00
H692   H     0.94013   0.12231   0.81024   0.00000  Uiso   1.00
N693   N     0.95069   0.16669   0.74999   0.00000  Uiso   1.00
N694   N     0.89287   0.22687   0.86347   0.00000  Uiso   1.00
O695   O     0.86159   0.25368   0.85643   0.00000  Uiso   1.00
O696   O     0.93855   0.23056   0.83652   0.00000  Uiso   1.00
O697   O     0.12708   0.56011   0.75000   0.00000  Uiso   1.00
O698   O     0.20627   0.56012   0.75000   0.00000  Uiso   1.00
C699   C     0.16675   0.57930   0.74975   0.00000  Uiso   1.00
O700   O     0.10775   0.49998   0.82549   0.00000  Uiso   1.00
O701   O     0.18694   0.49999   0.82549   0.00000  Uiso   1.00
C702   C     0.14107   0.50561   0.84938   0.00000  Uiso   1.00
Cu703  Cu    0.11978   0.49999   0.75000   0.00000  Uiso   1.00
Cu704  Cu    0.21355   0.50001   0.75000   0.00000  Uiso   1.00
O705   O     0.12706   0.43988   0.74999   0.00000  Uiso   1.00
O706   O     0.20625   0.43989   0.74999   0.00000  Uiso   1.00
O707   O     0.14640   0.50001   0.67451   0.00000  Uiso   1.00
O708   O     0.22559   0.50002   0.67451   0.00000  Uiso   1.00
C709   C     0.16664   0.42070   0.75004   0.00000  Uiso   1.00
C710   C     0.19259   0.49964   0.64991   0.00000  Uiso   1.00
C711   C     0.26796   0.49921   0.50884   0.00000  Uiso   1.00
H712   H     0.28355   0.48759   0.58105   0.00000  Uiso   1.00
H713   H     0.28576   0.52497   0.91176   0.00000  Uiso   1.00
H714   H     0.30520   0.49371   0.98572   0.00000  Uiso   1.00
C715   C     0.20693   0.50104   0.59280   0.00000  Uiso   1.00
C716   C     0.07722   0.52192   0.93244   0.00000  Uiso   1.00
C717   C     0.06288   0.52870   0.98600   0.00000  Uiso   1.00
C718   C     0.09680   0.52621   0.51390   0.00000  Uiso   1.00
C719   C     0.14708   0.52130   0.98775   0.00000  Uiso   1.00
C720   C     0.16229   0.52391   0.93265   0.00000  Uiso   1.00
C721   C     0.18293   0.51411   0.51398   0.00000  Uiso   1.00
C722   C     0.23272   0.51072   0.98462   0.00000  Uiso   1.00
C723   C     0.24719   0.52176   0.93217   0.00000  Uiso   1.00
C724   C     0.21221   0.53291   0.90763   0.00000  Uiso   1.00
C725   C     0.17090   0.50894   0.56813   0.00000  Uiso   1.00
C726   C     0.25543   0.49510   0.56283   0.00000  Uiso   1.00
C727   C     0.12694   0.51774   0.90519   0.00000  Uiso   1.00
H728   H     0.13365   0.51138   0.59211   0.00000  Uiso   1.00
H729   H     0.04941   0.52031   0.91235   0.00000  Uiso   1.00
H730   H     0.08253   0.52927   0.55559   0.00000  Uiso   1.00
H731   H     0.02509   0.53458   0.50671   0.00000  Uiso   1.00
C732   C     0.20937   0.64540   0.74929   0.00000  Uiso   1.00
H733   H     0.24272   0.62941   0.74890   0.00000  Uiso   1.00
C734   C     0.20931   0.35464   0.74947   0.00000  Uiso   1.00
H735   H     0.24263   0.37066   0.74918   0.00000  Uiso   1.00
C736   C     0.16666   0.37607   0.74998   0.00000  Uiso   1.00
C737   C     0.12405   0.35459   0.75037   0.00000  Uiso   1.00
H738   H     0.09070   0.37057   0.75080   0.00000  Uiso   1.00
C739   C     0.12410   0.64535   0.75023   0.00000  Uiso   1.00
H740   H     0.09078   0.62932   0.75057   0.00000  Uiso   1.00
C741   C     0.16676   0.62392   0.74971   0.00000  Uiso   1.00
C742   C     0.31766   0.52460   0.71651   0.00000  Uiso   1.00
H743   H     0.30630   0.54435   0.68973   0.00000  Uiso   1.00
C744   C     0.03392   0.52458   0.71650   0.00000  Uiso   1.00
H745   H     0.05988   0.54432   0.68969   0.00000  Uiso   1.00
N746   N     0.04931   0.49999   0.74998   0.00000  Uiso   1.00
C747   C     0.01566   0.47543   0.78349   0.00000  Uiso   1.00
H748   H     0.02699   0.45574   0.81035   0.00000  Uiso   1.00
C749   C     0.29944   0.47536   0.78340   0.00000  Uiso   1.00
H750   H     0.27347   0.45564   0.81024   0.00000  Uiso   1.00
N751   N     0.28402   0.50002   0.74999   0.00000  Uiso   1.00
N752   N     0.22620   0.56020   0.86347   0.00000  Uiso   1.00
O753   O     0.19493   0.58701   0.85643   0.00000  Uiso   1.00
O754   O     0.27188   0.56389   0.83652   0.00000  Uiso   1.00
O755   O     0.46042   0.56011   0.75000   0.00000  Uiso   1.00
O756   O     0.53961   0.56012   0.75000   0.00000  Uiso   1.00
C757   C     0.50008   0.57930   0.74975   0.00000  Uiso   1.00
O758   O     0.44108   0.49998   0.82549   0.00000  Uiso   1.00
O759   O     0.52027   0.49999   0.82549   0.00000  Uiso   1.00
C760   C     0.47441   0.50561   0.84938   0.00000  Uiso   1.00
Cu761  Cu    0.45311   0.49999   0.75000   0.00000  Uiso   1.00
Cu762  Cu    0.54689   0.50001   0.75000   0.00000  Uiso   1.00
O763   O     0.46039   0.43988   0.74999   0.00000  Uiso   1.00
O764   O     0.53958   0.43989   0.74999   0.00000  Uiso   1.00
O765   O     0.47973   0.50001   0.67451   0.00000  Uiso   1.00
O766   O     0.55892   0.50002   0.67451   0.00000  Uiso   1.00
C767   C     0.49997   0.42070   0.75004   0.00000  Uiso   1.00
C768   C     0.52593   0.49964   0.64991   0.00000  Uiso   1.00
C769   C     0.60129   0.49921   0.50884   0.00000  Uiso   1.00
H770   H     0.61689   0.48759   0.58105   0.00000  Uiso   1.00
H771   H     0.61909   0.52497   0.91176   0.00000  Uiso   1.00
H772   H     0.63853   0.49371   0.98572   0.00000  Uiso   1.00
C773   C     0.54027   0.50104   0.59280   0.00000  Uiso   1.00
C774   C     0.41055   0.52192   0.93244   0.00000  Uiso   1.00
C775   C     0.39622   0.52870   0.98600   0.00000  Uiso   1.00
C776   C     0.43013   0.52621   0.51390   0.00000  Uiso   1.00
C777   C     0.48041   0.52130   0.98775   0.00000  Uiso   1.00
C778   C     0.49563   0.52391   0.93265   0.00000  Uiso   1.00
C779   C     0.51626   0.51411   0.51398   0.00000  Uiso   1.00
C780   C     0.56605   0.51072   0.98462   0.00000  Uiso   1.00
C781   C     0.58052   0.52176   0.93217   0.00000  Uiso   1.00
C782   C     0.54554   0.53291   0.90763   0.00000  Uiso   1.00
C783   C     0.50423   0.50894   0.56813   0.00000  Uiso   1.00
C784   C     0.58876   0.49510   0.56283   0.00000  Uiso   1.00
C785   C     0.46027   0.51774   0.90519   0.00000  Uiso   1.00
H786   H     0.46698   0.51138   0.59211   0.00000  Uiso   1.00
H787   H     0.38275   0.52031   0.91235   0.00000  Uiso   1.00
H788   H     0.41587   0.52927   0.55559   0.00000  Uiso   1.00
H789   H     0.35842   0.53458   0.50671   0.00000  Uiso   1.00
C790   C     0.54271   0.64540   0.74929   0.00000  Uiso   1.00
H791   H     0.57605   0.62941   0.74890   0.00000  Uiso   1.00
C792   C     0.54265   0.35464   0.74947   0.00000  Uiso   1.00
H793   H     0.57596   0.37066   0.74918   0.00000  Uiso   1.00
C794   C     0.49999   0.37607   0.74998   0.00000  Uiso   1.00
C795   C     0.45739   0.35459   0.75037   0.00000  Uiso   1.00
H796   H     0.42403   0.37057   0.75080   0.00000  Uiso   1.00
C797   C     0.45744   0.64535   0.75023   0.00000  Uiso   1.00
H798   H     0.42411   0.62932   0.75057   0.00000  Uiso   1.00
C799   C     0.50009   0.62392   0.74971   0.00000  Uiso   1.00
C800   C     0.65100   0.52460   0.71651   0.00000  Uiso   1.00
H801   H     0.63963   0.54435   0.68973   0.00000  Uiso   1.00
C802   C     0.36725   0.52458   0.71650   0.00000  Uiso   1.00
H803   H     0.39321   0.54432   0.68969   0.00000  Uiso   1.00
N804   N     0.38265   0.49999   0.74998   0.00000  Uiso   1.00
C805   C     0.34899   0.47543   0.78349   0.00000  Uiso   1.00
H806   H     0.36033   0.45574   0.81035   0.00000  Uiso   1.00
C807   C     0.63277   0.47536   0.78340   0.00000  Uiso   1.00
H808   H     0.60680   0.45564   0.81024   0.00000  Uiso   1.00
N809   N     0.61735   0.50002   0.74999   0.00000  Uiso   1.00
N810   N     0.55953   0.56020   0.86347   0.00000  Uiso   1.00
O811   O     0.52826   0.58701   0.85643   0.00000  Uiso   1.00
O812   O     0.60521   0.56389   0.83652   0.00000  Uiso   1.00
O813   O     0.79375   0.56011   0.75000   0.00000  Uiso   1.00
O814   O     0.87294   0.56012   0.75000   0.00000  Uiso   1.00
C815   C     0.83341   0.57930   0.74975   0.00000  Uiso   1.00
O816   O     0.77441   0.49998   0.82549   0.00000  Uiso   1.00
O817   O     0.85360   0.49999   0.82549   0.00000  Uiso   1.00
C818   C     0.80774   0.50561   0.84938   0.00000  Uiso   1.00
Cu819  Cu    0.78645   0.49999   0.75000   0.00000  Uiso   1.00
Cu820  Cu    0.88022   0.50001   0.75000   0.00000  Uiso   1.00
O821   O     0.79373   0.43988   0.74999   0.00000  Uiso   1.00
O822   O     0.87292   0.43989   0.74999   0.00000  Uiso   1.00
O823   O     0.81306   0.50001   0.67451   0.00000  Uiso   1.00
O824   O     0.89225   0.50002   0.67451   0.00000  Uiso   1.00
C825   C     0.83331   0.42070   0.75004   0.00000  Uiso   1.00
C826   C     0.85926   0.49964   0.64991   0.00000  Uiso   1.00
C827   C     0.93463   0.49921   0.50884   0.00000  Uiso   1.00
H828   H     0.95022   0.48759   0.58105   0.00000  Uiso   1.00
H829   H     0.95242   0.52497   0.91176   0.00000  Uiso   1.00
H830   H     0.97186   0.49371   0.98572   0.00000  Uiso   1.00
C831   C     0.87360   0.50104   0.59280   0.00000  Uiso   1.00
C832   C     0.74388   0.52192   0.93244   0.00000  Uiso   1.00
C833   C     0.72955   0.52870   0.98600   0.00000  Uiso   1.00
C834   C     0.76347   0.52621   0.51390   0.00000  Uiso   1.00
C835   C     0.81374   0.52130   0.98775   0.00000  Uiso   1.00
C836   C     0.82896   0.52391   0.93265   0.00000  Uiso   1.00
C837   C     0.84959   0.51411   0.51398   0.00000  Uiso   1.00
C838   C     0.89938   0.51072   0.98462   0.00000  Uiso   1.00
C839   C     0.91386   0.52176   0.93217   0.00000  Uiso   1.00
C840   C     0.87887   0.53291   0.90763   0.00000  Uiso   1.00
C841   C     0.83756   0.50894   0.56813   0.00000  Uiso   1.00
C842   C     0.92210   0.49510   0.56283   0.00000  Uiso   1.00
C843   C     0.79360   0.51774   0.90519   0.00000  Uiso   1.00
H844   H     0.80032   0.51138   0.59211   0.00000  Uiso   1.00
H845   H     0.71608   0.52031   0.91235   0.00000  Uiso   1.00
H846   H     0.74920   0.52927   0.55559   0.00000  Uiso   1.00
H847   H     0.69176   0.53458   0.50671   0.00000  Uiso   1.00
C848   C     0.87604   0.64540   0.74929   0.00000  Uiso   1.00
H849   H     0.90938   0.62941   0.74890   0.00000  Uiso   1.00
C850   C     0.87598   0.35464   0.74947   0.00000  Uiso   1.00
H851   H     0.90929   0.37066   0.74918   0.00000  Uiso   1.00
C852   C     0.83333   0.37607   0.74998   0.00000  Uiso   1.00
C853   C     0.79072   0.35459   0.75037   0.00000  Uiso   1.00
H854   H     0.75737   0.37057   0.75080   0.00000  Uiso   1.00
C855   C     0.79077   0.64535   0.75023   0.00000  Uiso   1.00
H856   H     0.75745   0.62932   0.75057   0.00000  Uiso   1.00
C857   C     0.83342   0.62392   0.74971   0.00000  Uiso   1.00
C858   C     0.98433   0.52460   0.71651   0.00000  Uiso   1.00
H859   H     0.97297   0.54435   0.68973   0.00000  Uiso   1.00
C860   C     0.70059   0.52458   0.71650   0.00000  Uiso   1.00
H861   H     0.72654   0.54432   0.68969   0.00000  Uiso   1.00
N862   N     0.71598   0.49999   0.74998   0.00000  Uiso   1.00
C863   C     0.68233   0.47543   0.78349   0.00000  Uiso   1.00
H864   H     0.69366   0.45574   0.81035   0.00000  Uiso   1.00
C865   C     0.96610   0.47536   0.78340   0.00000  Uiso   1.00
H866   H     0.94013   0.45564   0.81024   0.00000  Uiso   1.00
N867   N     0.95069   0.50002   0.74999   0.00000  Uiso   1.00
N868   N     0.89287   0.56020   0.86347   0.00000  Uiso   1.00
O869   O     0.86159   0.58701   0.85643   0.00000  Uiso   1.00
O870   O     0.93855   0.56389   0.83652   0.00000  Uiso   1.00
O871   O     0.12708   0.89345   0.75000   0.00000  Uiso   1.00
O872   O     0.20627   0.89346   0.75000   0.00000  Uiso   1.00
C873   C     0.16675   0.91263   0.74975   0.00000  Uiso   1.00
O874   O     0.10775   0.83332   0.82549   0.00000  Uiso   1.00
O875   O     0.18694   0.83333   0.82549   0.00000  Uiso   1.00
C876   C     0.14107   0.83895   0.84938   0.00000  Uiso   1.00
Cu877  Cu    0.11978   0.83333   0.75000   0.00000  Uiso   1.00
Cu878  Cu    0.21355   0.83334   0.75000   0.00000  Uiso   1.00
O879   O     0.12706   0.77321   0.74999   0.00000  Uiso   1.00
O880   O     0.20625   0.77322   0.74999   0.00000  Uiso   1.00
O881   O     0.14640   0.83334   0.67451   0.00000  Uiso   1.00
O882   O     0.22559   0.83335   0.67451   0.00000  Uiso   1.00
C883   C     0.16664   0.75403   0.75004   0.00000  Uiso   1.00
C884   C     0.19259   0.83298   0.64991   0.00000  Uiso   1.00
C885   C     0.26796   0.83254   0.50884   0.00000  Uiso   1.00
H886   H     0.28355   0.82092   0.58105   0.00000  Uiso   1.00
H887   H     0.28576   0.85831   0.91176   0.00000  Uiso   1.00
H888   H     0.30520   0.82705   0.98572   0.00000  Uiso   1.00
C889   C     0.20693   0.83437   0.59280   0.00000  Uiso   1.00
C890   C     0.07722   0.85526   0.93244   0.00000  Uiso   1.00
C891   C     0.06288   0.86203   0.98600   0.00000  Uiso   1.00
C892   C     0.09680   0.85955   0.51390   0.00000  Uiso   1.00
C893   C     0.14708   0.85463   0.98775   0.00000  Uiso   1.00
C894   C     0.16229   0.85724   0.93265   0.00000  Uiso   1.00
C895   C     0.18293   0.84745   0.51398   0.00000  Uiso   1.00
C896   C     0.23272   0.84406   0.98462   0.00000  Uiso   1.00
C897   C     0.24719   0.85510   0.93217   0.00000  Uiso   1.00
C898   C     0.21221   0.86624   0.90763   0.00000  Uiso   1.00
C899   C     0.17090   0.84227   0.56813   0.00000  Uiso   1.00
C900   C     0.25543   0.82843   0.56283   0.00000  Uiso   1.00
C901   C     0.12694   0.85108   0.90519   0.00000  Uiso   1.00
H902   H     0.13365   0.84472   0.59211   0.00000  Uiso   1.00
H903   H     0.04941   0.85364   0.91235   0.00000  Uiso   1.00
H904   H     0.08253   0.86260   0.55559   0.00000  Uiso   1.00
H905   H     0.02509   0.86791   0.50671   0.00000  Uiso   1.00
C906   C     0.20937   0.97873   0.74929   0.00000  Uiso   1.00
H907   H     0.24272   0.96274   0.74890   0.00000  Uiso   1.00
C908   C     0.20931   0.68797   0.74947   0.00000  Uiso   1.00
H909   H     0.24263   0.70400   0.74918   0.00000  Uiso   1.00
C910   C     0.16666   0.70941   0.74998   0.00000  Uiso   1.00
C911   C     0.12405   0.68792   0.75037   0.00000  Uiso   1.00
H912   H     0.09070   0.70391   0.75080   0.00000  Uiso   1.00
C913   C     0.12410   0.97868   0.75023   0.00000  Uiso   1.00
H914   H     0.09078   0.96265   0.75057   0.00000  Uiso   1.00
C915   C     0.16676   0.95725   0.74971   0.00000  Uiso   1.00
C916   C     0.31766   0.85793   0.71651   0.00000  Uiso   1.00
H917   H     0.30630   0.87769   0.68973   0.00000  Uiso   1.00
C918   C     0.03392   0.85791   0.71650   0.00000  Uiso   1.00
H919   H     0.05988   0.87766   0.68969   0.00000  Uiso   1.00
N920   N     0.04931   0.83332   0.74998   0.00000  Uiso   1.00
C921   C     0.01566   0.80876   0.78349   0.00000  Uiso   1.00
H922   H     0.02699   0.78908   0.81035   0.00000  Uiso   1.00
C923   C     0.29944   0.80869   0.78340   0.00000  Uiso   1.00
H924   H     0.27347   0.78898   0.81024   0.00000  Uiso   1.00
N925   N     0.28402   0.83335   0.74999   0.00000  Uiso   1.00
N926   N     0.22620   0.89354   0.86347   0.00000  Uiso   1.00
O927   O     0.19493   0.92034   0.85643   0.00000  Uiso   1.00
O928   O     0.27188   0.89722   0.83652   0.00000  Uiso   1.00
O929   O     0.46042   0.89345   0.75000   0.00000  Uiso   1.00
O930   O     0.53961   0.89346   0.75000   0.00000  Uiso   1.00
C931   C     0.50008   0.91263   0.74975   0.00000  Uiso   1.00
O932   O     0.44108   0.83332   0.82549   0.00000  Uiso   1.00
O933   O     0.52027   0.83333   0.82549   0.00000  Uiso   1.00
C934   C     0.47441   0.83895   0.84938   0.00000  Uiso   1.00
Cu935  Cu    0.45311   0.83333   0.75000   0.00000  Uiso   1.00
Cu936  Cu    0.54689   0.83334   0.75000   0.00000  Uiso   1.00
O937   O     0.46039   0.77321   0.74999   0.00000  Uiso   1.00
O938   O     0.53958   0.77322   0.74999   0.00000  Uiso   1.00
O939   O     0.47973   0.83334   0.67451   0.00000  Uiso   1.00
O940   O     0.55892   0.83335   0.67451   0.00000  Uiso   1.00
C941   C     0.49997   0.75403   0.75004   0.00000  Uiso   1.00
C942   C     0.52593   0.83298   0.64991   0.00000  Uiso   1.00
C943   C     0.60129   0.83254   0.50884   0.00000  Uiso   1.00
H944   H     0.61689   0.82092   0.58105   0.00000  Uiso   1.00
H945   H     0.61909   0.85831   0.91176   0.00000  Uiso   1.00
H946   H     0.63853   0.82705   0.98572   0.00000  Uiso   1.00
C947   C     0.54027   0.83437   0.59280   0.00000  Uiso   1.00
C948   C     0.41055   0.85526   0.93244   0.00000  Uiso   1.00
C949   C     0.39622   0.86203   0.98600   0.00000  Uiso   1.00
C950   C     0.43013   0.85955   0.51390   0.00000  Uiso   1.00
C951   C     0.48041   0.85463   0.98775   0.00000  Uiso   1.00
C952   C     0.49563   0.85724   0.93265   0.00000  Uiso   1.00
C953   C     0.51626   0.84745   0.51398   0.00000  Uiso   1.00
C954   C     0.56605   0.84406   0.98462   0.00000  Uiso   1.00
C955   C     0.58052   0.85510   0.93217   0.00000  Uiso   1.00
C956   C     0.54554   0.86624   0.90763   0.00000  Uiso   1.00
C957   C     0.50423   0.84227   0.56813   0.00000  Uiso   1.00
C958   C     0.58876   0.82843   0.56283   0.00000  Uiso   1.00
C959   C     0.46027   0.85108   0.90519   0.00000  Uiso   1.00
H960   H     0.46698   0.84472   0.59211   0.00000  Uiso   1.00
H961   H     0.38275   0.85364   0.91235   0.00000  Uiso   1.00
H962   H     0.41587   0.86260   0.55559   0.00000  Uiso   1.00
H963   H     0.35842   0.86791   0.50671   0.00000  Uiso   1.00
C964   C     0.54271   0.97873   0.74929   0.00000  Uiso   1.00
H965   H     0.57605   0.96274   0.74890   0.00000  Uiso   1.00
C966   C     0.54265   0.68797   0.74947   0.00000  Uiso   1.00
H967   H     0.57596   0.70400   0.74918   0.00000  Uiso   1.00
C968   C     0.49999   0.70941   0.74998   0.00000  Uiso   1.00
C969   C     0.45739   0.68792   0.75037   0.00000  Uiso   1.00
H970   H     0.42403   0.70391   0.75080   0.00000  Uiso   1.00
C971   C     0.45744   0.97868   0.75023   0.00000  Uiso   1.00
H972   H     0.42411   0.96265   0.75057   0.00000  Uiso   1.00
C973   C     0.50009   0.95725   0.74971   0.00000  Uiso   1.00
C974   C     0.65100   0.85793   0.71651   0.00000  Uiso   1.00
H975   H     0.63963   0.87769   0.68973   0.00000  Uiso   1.00
C976   C     0.36725   0.85791   0.71650   0.00000  Uiso   1.00
H977   H     0.39321   0.87766   0.68969   0.00000  Uiso   1.00
N978   N     0.38265   0.83332   0.74998   0.00000  Uiso   1.00
C979   C     0.34899   0.80876   0.78349   0.00000  Uiso   1.00
H980   H     0.36033   0.78908   0.81035   0.00000  Uiso   1.00
C981   C     0.63277   0.80869   0.78340   0.00000  Uiso   1.00
H982   H     0.60680   0.78898   0.81024   0.00000  Uiso   1.00
N983   N     0.61735   0.83335   0.74999   0.00000  Uiso   1.00
N984   N     0.55953   0.89354   0.86347   0.00000  Uiso   1.00
O985   O     0.52826   0.92034   0.85643   0.00000  Uiso   1.00
O986   O     0.60521   0.89722   0.83652   0.00000  Uiso   1.00
O987   O     0.79375   0.89345   0.75000   0.00000  Uiso   1.00
O988   O     0.87294   0.89346   0.75000   0.00000  Uiso   1.00
C989   C     0.83341   0.91263   0.74975   0.00000  Uiso   1.00
O990   O     0.77441   0.83332   0.82549   0.00000  Uiso   1.00
O991   O     0.85360   0.83333   0.82549   0.00000  Uiso   1.00
C992   C     0.80774   0.83895   0.84938   0.00000  Uiso   1.00
Cu993  Cu    0.78645   0.83333   0.75000   0.00000  Uiso   1.00
Cu994  Cu    0.88022   0.83334   0.75000   0.00000  Uiso   1.00
O995   O     0.79373   0.77321   0.74999   0.00000  Uiso   1.00
O996   O     0.87292   0.77322   0.74999   0.00000  Uiso   1.00
O997   O     0.81306   0.83334   0.67451   0.00000  Uiso   1.00
O998   O     0.89225   0.83335   0.67451   0.00000  Uiso   1.00
C999   C     0.83331   0.75403   0.75004   0.00000  Uiso   1.00
C1000  C     0.85926   0.83298   0.64991   0.00000  Uiso   1.00
C1001  C     0.93463   0.83254   0.50884   0.00000  Uiso   1.00
H1002  H     0.95022   0.82092   0.58105   0.00000  Uiso   1.00
H1003  H     0.95242   0.85831   0.91176   0.00000  Uiso   1.00
H1004  H     0.97186   0.82705   0.98572   0.00000  Uiso   1.00
C1005  C     0.87360   0.83437   0.59280   0.00000  Uiso   1.00
C1006  C     0.74388   0.85526   0.93244   0.00000  Uiso   1.00
C1007  C     0.72955   0.86203   0.98600   0.00000  Uiso   1.00
C1008  C     0.76347   0.85955   0.51390   0.00000  Uiso   1.00
C1009  C     0.81374   0.85463   0.98775   0.00000  Uiso   1.00
C1010  C     0.82896   0.85724   0.93265   0.00000  Uiso   1.00
C1011  C     0.84959   0.84745   0.51398   0.00000  Uiso   1.00
C1012  C     0.89938   0.84406   0.98462   0.00000  Uiso   1.00
C1013  C     0.91386   0.85510   0.93217   0.00000  Uiso   1.00
C1014  C     0.87887   0.86624   0.90763   0.00000  Uiso   1.00
C1015  C     0.83756   0.84227   0.56813   0.00000  Uiso   1.00
C1016  C     0.92210   0.82843   0.56283   0.00000  Uiso   1.00
C1017  C     0.79360   0.85108   0.90519   0.00000  Uiso   1.00
H1018  H     0.80032   0.84472   0.59211   0.00000  Uiso   1.00
H1019  H     0.71608   0.85364   0.91235   0.00000  Uiso   1.00
H1020  H     0.74920   0.86260   0.55559   0.00000  Uiso   1.00
H1021  H     0.69176   0.86791   0.50671   0.00000  Uiso   1.00
C1022  C     0.87604   0.97873   0.74929   0.00000  Uiso   1.00
H1023  H     0.90938   0.96274   0.74890   0.00000  Uiso   1.00
C1024  C     0.87598   0.68797   0.74947   0.00000  Uiso   1.00
H1025  H     0.90929   0.70400   0.74918   0.00000  Uiso   1.00
C1026  C     0.83333   0.70941   0.74998   0.00000  Uiso   1.00
C1027  C     0.79072   0.68792   0.75037   0.00000  Uiso   1.00
H1028  H     0.75737   0.70391   0.75080   0.00000  Uiso   1.00
C1029  C     0.79077   0.97868   0.75023   0.00000  Uiso   1.00
H1030  H     0.75745   0.96265   0.75057   0.00000  Uiso   1.00
C1031  C     0.83342   0.95725   0.74971   0.00000  Uiso   1.00
C1032  C     0.98433   0.85793   0.71651   0.00000  Uiso   1.00
H1033  H     0.97297   0.87769   0.68973   0.00000  Uiso   1.00
C1034  C     0.70059   0.85791   0.71650   0.00000  Uiso   1.00
H1035  H     0.72654   0.87766   0.68969   0.00000  Uiso   1.00
N1036  N     0.71598   0.83332   0.74998   0.00000  Uiso   1.00
C1037  C     0.68233   0.80876   0.78349   0.00000  Uiso   1.00
H1038  H     0.69366   0.78908   0.81035   0.00000  Uiso   1.00
C1039  C     0.96610   0.80869   0.78340   0.00000  Uiso   1.00
H1040  H     0.94013   0.78898   0.81024   0.00000  Uiso   1.00
N1041  N     0.95069   0.83335   0.74999   0.00000  Uiso   1.00
N1042  N     0.89287   0.89354   0.86347   0.00000  Uiso   1.00
O1043  O     0.86159   0.92034   0.85643   0.00000  Uiso   1.00
O1044  O     0.93855   0.89722   0.83652   0.00000  Uiso   1.00
loop_
_geom_bond_atom_site_label_1
_geom_bond_atom_site_label_2
_geom_bond_distance
_geom_bond_site_symmetry_2
_ccdc_geom_bond_type
O1     Cu7     1.965   .     S
O1     C3      1.292   .     A
O2     C3      1.292   .     A
O2     Cu8     1.965   .     S
C3     C45     1.450   .     S
O4     Cu7     1.952   .     S
O4     C6      1.306   .     A
O5     Cu8     1.944   .     S
O5     C6      1.294   .     A
C6     C31     1.484   .     S
Cu7    O11     1.944   .     S
Cu7    Cu8     2.681   .     S
Cu7    O9      1.965   .     S
Cu7    N50     2.015   .     S
Cu8    O12     1.952   .     S
Cu8    N55     2.014   .     S
Cu8    O10     1.965   .     S
O9     C13     1.292   .     A
O10    C13     1.292   .     A
O11    C14     1.294   .     A
O12    C14     1.298   .     A
C13    C40     1.450   .     S
C14    C19     1.466   .     S
C15    C30     1.393   .     A
C15    H540    1.080   1_554 S
C15    C548    1.399   1_554 S
H16    C30     1.083   .     S
H17    C27     1.084   .     S
H18    C537    1.080   .     S
C19    C30     1.399   .     A
C19    C29     1.400   .     A
C20    C21     1.391   .     A
C20    H33     1.083   .     S
C20    C31     1.403   .     A
C21    C544    1.388   .     S
C21    H557    1.079   .     S
C22    H34     1.077   .     S
C22    C543    1.388   1_554 S
C22    C545    1.413   1_554 S
C23    C24     1.416   .     A
C23    C544    1.413   .     S
C23    C547    1.421   .     S
C24    C31     1.426   .     A
C24    C28     1.420   .     A
C25    C29     1.401   .     A
C25    C545    1.421   1_554 S
C25    C548    1.417   1_554 S
C26    C27     1.393   .     A
C26    C547    1.417   .     S
C26    C537    1.399   .     S
C27    C28     1.395   .     A
C28    N56     1.441   .     S
C29    H32     1.075   .     S
H35    C543    1.079   1_554 S
C36    C45     1.401   .     A
C36    H37     1.083   .     S
C36    C212    1.383   .     S
C38    C40     1.401   .     A
C38    H39     1.083   .     S
C38    C384    1.383   1_545 S
C40    C41     1.401   .     A
C41    H42     1.083   .     S
C41    C391    1.383   1_545 S
C43    C45     1.401   .     A
C43    H44     1.083   .     S
C43    C215    1.383   .     S
C46    N55     1.367   .     A
C46    H47     1.082   .     S
C46    C106    1.418   .     S
C48    H49     1.082   .     S
C48    N50     1.368   .     A
C48    C162    1.418   1_455 S
N50    C51     1.367   .     A
C51    H52     1.082   .     S
C51    C169    1.417   1_455 S
C53    H54     1.082   .     S
C53    N55     1.368   .     A
C53    C109    1.417   .     S
N56    O57     1.301   .     A
N56    O58     1.301   .     A
O59    Cu65    1.965   .     S
O59    C61     1.292   .     A
O60    C61     1.292   .     A
O60    Cu66    1.965   .     S
C61    C103    1.450   .     S
O62    Cu65    1.952   .     S
O62    C64     1.306   .     A
O63    Cu66    1.944   .     S
O63    C64     1.294   .     A
C64    C89     1.484   .     S
Cu65   O69     1.944   .     S
Cu65   Cu66    2.681   .     S
Cu65   O67     1.965   .     S
Cu65   N108    2.015   .     S
Cu66   O70     1.952   .     S
Cu66   N113    2.014   .     S
Cu66   O68     1.965   .     S
O67    C71     1.292   .     A
O68    C71     1.292   .     A
O69    C72     1.294   .     A
O70    C72     1.298   .     A
C71    C98     1.450   .     S
C72    C77     1.466   .     S
C73    C88     1.393   .     A
C73    H598    1.080   1_554 S
C73    C606    1.399   1_554 S
H74    C88     1.083   .     S
H75    C85     1.084   .     S
H76    C595    1.080   .     S
C77    C88     1.399   .     A
C77    C87     1.400   .     A
C78    C79     1.391   .     A
C78    H91     1.083   .     S
C78    C89     1.403   .     A
C79    C602    1.388   .     S
C79    H615    1.079   .     S
C80    H92     1.077   .     S
C80    C601    1.388   1_554 S
C80    C603    1.413   1_554 S
C81    C82     1.416   .     A
C81    C602    1.413   .     S
C81    C605    1.421   .     S
C82    C89     1.426   .     A
C82    C86     1.420   .     A
C83    C87     1.401   .     A
C83    C603    1.421   1_554 S
C83    C606    1.417   1_554 S
C84    C85     1.393   .     A
C84    C605    1.417   .     S
C84    C595    1.399   .     S
C85    C86     1.395   .     A
C86    N114    1.441   .     S
C87    H90     1.075   .     S
H93    C601    1.079   1_554 S
C94    C103    1.401   .     A
C94    H95     1.083   .     S
C94    C270    1.383   .     S
C96    C98     1.401   .     A
C96    H97     1.083   .     S
C96    C442    1.383   1_545 S
C98    C99     1.401   .     A
C99    H100    1.083   .     S
C99    C449    1.383   1_545 S
C101   C103    1.401   .     A
C101   H102    1.083   .     S
C101   C273    1.383   .     S
C104   N113    1.367   .     A
C104   H105    1.082   .     S
C104   C164    1.418   .     S
C106   H107    1.082   .     S
C106   N108    1.368   .     A
N108   C109    1.367   .     A
C109   H110    1.082   .     S
C111   H112    1.082   .     S
C111   N113    1.368   .     A
C111   C167    1.417   .     S
N114   O115    1.301   .     A
N114   O116    1.301   .     A
O117   Cu123   1.965   .     S
O117   C119    1.292   .     A
O118   C119    1.292   .     A
O118   Cu124   1.965   .     S
C119   C161    1.450   .     S
O120   Cu123   1.952   .     S
O120   C122    1.306   .     A
O121   Cu124   1.944   .     S
O121   C122    1.294   .     A
C122   C147    1.484   .     S
Cu123  O127    1.944   .     S
Cu123  Cu124   2.681   .     S
Cu123  O125    1.965   .     S
Cu123  N166    2.015   .     S
Cu124  O128    1.952   .     S
Cu124  N171    2.014   .     S
Cu124  O126    1.965   .     S
O125   C129    1.292   .     A
O126   C129    1.292   .     A
O127   C130    1.294   .     A
O128   C130    1.298   .     A
C129   C156    1.450   .     S
C130   C135    1.466   .     S
C131   C146    1.393   .     A
C131   H656    1.080   1_554 S
C131   C664    1.399   1_554 S
H132   C146    1.083   .     S
H133   C143    1.084   .     S
H134   C653    1.080   .     S
C135   C146    1.399   .     A
C135   C145    1.400   .     A
C136   C137    1.391   .     A
C136   H149    1.083   .     S
C136   C147    1.403   .     A
C137   C660    1.388   .     S
C137   H673    1.079   .     S
C138   H150    1.077   .     S
C138   C659    1.388   1_554 S
C138   C661    1.413   1_554 S
C139   C140    1.416   .     A
C139   C660    1.413   .     S
C139   C663    1.421   .     S
C140   C147    1.426   .     A
C140   C144    1.420   .     A
C141   C145    1.401   .     A
C141   C661    1.421   1_554 S
C141   C664    1.417   1_554 S
C142   C143    1.393   .     A
C142   C663    1.417   .     S
C142   C653    1.399   .     S
C143   C144    1.395   .     A
C144   N172    1.441   .     S
C145   H148    1.075   .     S
H151   C659    1.079   1_554 S
C152   C161    1.401   .     A
C152   H153    1.083   .     S
C152   C328    1.383   .     S
C154   C156    1.401   .     A
C154   H155    1.083   .     S
C154   C500    1.383   1_545 S
C156   C157    1.401   .     A
C157   H158    1.083   .     S
C157   C507    1.383   1_545 S
C159   C161    1.401   .     A
C159   H160    1.083   .     S
C159   C331    1.383   .     S
C162   N171    1.367   .     A
C162   H163    1.082   .     S
C162   C48     1.418   1_655 S
C164   H165    1.082   .     S
C164   N166    1.368   .     A
N166   C167    1.367   .     A
C167   H168    1.082   .     S
C169   H170    1.082   .     S
C169   N171    1.368   .     A
C169   C51     1.417   1_655 S
N172   O173    1.301   .     A
N172   O174    1.301   .     A
O175   Cu181   1.965   .     S
O175   C177    1.292   .     A
O176   C177    1.292   .     A
O176   Cu182   1.965   .     S
C177   C219    1.450   .     S
O178   Cu181   1.952   .     S
O178   C180    1.306   .     A
O179   Cu182   1.944   .     S
O179   C180    1.294   .     A
C180   C205    1.484   .     S
Cu181  O185    1.944   .     S
Cu181  Cu182   2.681   .     S
Cu181  O183    1.965   .     S
Cu181  N224    2.015   .     S
Cu182  O186    1.952   .     S
Cu182  N229    2.014   .     S
Cu182  O184    1.965   .     S
O183   C187    1.292   .     A
O184   C187    1.292   .     A
O185   C188    1.294   .     A
O186   C188    1.298   .     A
C187   C214    1.450   .     S
C188   C193    1.466   .     S
C189   C204    1.393   .     A
C189   H714    1.080   1_554 S
C189   C722    1.399   1_554 S
H190   C204    1.083   .     S
H191   C201    1.084   .     S
H192   C711    1.080   .     S
C193   C204    1.399   .     A
C193   C203    1.400   .     A
C194   C195    1.391   .     A
C194   H207    1.083   .     S
C194   C205    1.403   .     A
C195   C718    1.388   .     S
C195   H731    1.079   .     S
C196   H208    1.077   .     S
C196   C717    1.388   1_554 S
C196   C719    1.413   1_554 S
C197   C198    1.416   .     A
C197   C718    1.413   .     S
C197   C721    1.421   .     S
C198   C205    1.426   .     A
C198   C202    1.420   .     A
C199   C203    1.401   .     A
C199   C719    1.421   1_554 S
C199   C722    1.417   1_554 S
C200   C201    1.393   .     A
C200   C721    1.417   .     S
C200   C711    1.399   .     S
C201   C202    1.395   .     A
C202   N230    1.441   .     S
C203   H206    1.075   .     S
H209   C717    1.079   1_554 S
C210   C219    1.401   .     A
C210   H211    1.083   .     S
C210   C386    1.383   .     S
C212   C214    1.401   .     A
C212   H213    1.083   .     S
C214   C215    1.401   .     A
C215   H216    1.083   .     S
C217   C219    1.401   .     A
C217   H218    1.083   .     S
C217   C389    1.383   .     S
C220   N229    1.367   .     A
C220   H221    1.082   .     S
C220   C280    1.418   .     S
C222   H223    1.082   .     S
C222   N224    1.368   .     A
C222   C336    1.418   1_455 S
N224   C225    1.367   .     A
C225   H226    1.082   .     S
C225   C343    1.417   1_455 S
C227   H228    1.082   .     S
C227   N229    1.368   .     A
C227   C283    1.417   .     S
N230   O231    1.301   .     A
N230   O232    1.301   .     A
O233   Cu239   1.965   .     S
O233   C235    1.292   .     A
O234   C235    1.292   .     A
O234   Cu240   1.965   .     S
C235   C277    1.450   .     S
O236   Cu239   1.952   .     S
O236   C238    1.306   .     A
O237   Cu240   1.944   .     S
O237   C238    1.294   .     A
C238   C263    1.484   .     S
Cu239  O243    1.944   .     S
Cu239  Cu240   2.681   .     S
Cu239  O241    1.965   .     S
Cu239  N282    2.015   .     S
Cu240  O244    1.952   .     S
Cu240  N287    2.014   .     S
Cu240  O242    1.965   .     S
O241   C245    1.292   .     A
O242   C245    1.292   .     A
O243   C246    1.294   .     A
O244   C246    1.298   .     A
C245   C272    1.450   .     S
C246   C251    1.466   .     S
C247   C262    1.393   .     A
C247   H772    1.080   1_554 S
C247   C780    1.399   1_554 S
H248   C262    1.083   .     S
H249   C259    1.084   .     S
H250   C769    1.080   .     S
C251   C262    1.399   .     A
C251   C261    1.400   .     A
C252   C253    1.391   .     A
C252   H265    1.083   .     S
C252   C263    1.403   .     A
C253   C776    1.388   .     S
C253   H789    1.079   .     S
C254   H266    1.077   .     S
C254   C775    1.388   1_554 S
C254   C777    1.413   1_554 S
C255   C256    1.416   .     A
C255   C776    1.413   .     S
C255   C779    1.421   .     S
C256   C263    1.426   .     A
C256   C260    1.420   .     A
C257   C261    1.401   .     A
C257   C777    1.421   1_554 S
C257   C780    1.417   1_554 S
C258   C259    1.393   .     A
C258   C779    1.417   .     S
C258   C769    1.399   .     S
C259   C260    1.395   .     A
C260   N288    1.441   .     S
C261   H264    1.075   .     S
H267   C775    1.079   1_554 S
C268   C277    1.401   .     A
C268   H269    1.083   .     S
C268   C444    1.383   .     S
C270   C272    1.401   .     A
C270   H271    1.083   .     S
C272   C273    1.401   .     A
C273   H274    1.083   .     S
C275   C277    1.401   .     A
C275   H276    1.083   .     S
C275   C447    1.383   .     S
C278   N287    1.367   .     A
C278   H279    1.082   .     S
C278   C338    1.418   .     S
C280   H281    1.082   .     S
C280   N282    1.368   .     A
N282   C283    1.367   .     A
C283   H284    1.082   .     S
C285   H286    1.082   .     S
C285   N287    1.368   .     A
C285   C341    1.417   .     S
N288   O289    1.301   .     A
N288   O290    1.301   .     A
O291   Cu297   1.965   .     S
O291   C293    1.292   .     A
O292   C293    1.292   .     A
O292   Cu298   1.965   .     S
C293   C335    1.450   .     S
O294   Cu297   1.952   .     S
O294   C296    1.306   .     A
O295   Cu298   1.944   .     S
O295   C296    1.294   .     A
C296   C321    1.484   .     S
Cu297  O301    1.944   .     S
Cu297  Cu298   2.681   .     S
Cu297  O299    1.965   .     S
Cu297  N340    2.015   .     S
Cu298  O302    1.952   .     S
Cu298  N345    2.014   .     S
Cu298  O300    1.965   .     S
O299   C303    1.292   .     A
O300   C303    1.292   .     A
O301   C304    1.294   .     A
O302   C304    1.298   .     A
C303   C330    1.450   .     S
C304   C309    1.466   .     S
C305   C320    1.393   .     A
C305   H830    1.080   1_554 S
C305   C838    1.399   1_554 S
H306   C320    1.083   .     S
H307   C317    1.084   .     S
H308   C827    1.080   .     S
C309   C320    1.399   .     A
C309   C319    1.400   .     A
C310   C311    1.391   .     A
C310   H323    1.083   .     S
C310   C321    1.403   .     A
C311   C834    1.388   .     S
C311   H847    1.079   .     S
C312   H324    1.077   .     S
C312   C833    1.388   1_554 S
C312   C835    1.413   1_554 S
C313   C314    1.416   .     A
C313   C834    1.413   .     S
C313   C837    1.421   .     S
C314   C321    1.426   .     A
C314   C318    1.420   .     A
C315   C319    1.401   .     A
C315   C835    1.421   1_554 S
C315   C838    1.417   1_554 S
C316   C317    1.393   .     A
C316   C837    1.417   .     S
C316   C827    1.399   .     S
C317   C318    1.395   .     A
C318   N346    1.441   .     S
C319   H322    1.075   .     S
H325   C833    1.079   1_554 S
C326   C335    1.401   .     A
C326   H327    1.083   .     S
C326   C502    1.383   .     S
C328   C330    1.401   .     A
C328   H329    1.083   .     S
C330   C331    1.401   .     A
C331   H332    1.083   .     S
C333   C335    1.401   .     A
C333   H334    1.083   .     S
C333   C505    1.383   .     S
C336   N345    1.367   .     A
C336   H337    1.082   .     S
C336   C222    1.418   1_655 S
C338   H339    1.082   .     S
C338   N340    1.368   .     A
N340   C341    1.367   .     A
C341   H342    1.082   .     S
C343   H344    1.082   .     S
C343   N345    1.368   .     A
C343   C225    1.417   1_655 S
N346   O347    1.301   .     A
N346   O348    1.301   .     A
O349   Cu355   1.965   .     S
O349   C351    1.292   .     A
O350   C351    1.292   .     A
O350   Cu356   1.965   .     S
C351   C393    1.450   .     S
O352   Cu355   1.952   .     S
O352   C354    1.306   .     A
O353   Cu356   1.944   .     S
O353   C354    1.294   .     A
C354   C379    1.484   .     S
Cu355  O359    1.944   .     S
Cu355  Cu356   2.681   .     S
Cu355  O357    1.965   .     S
Cu355  N398    2.015   .     S
Cu356  O360    1.952   .     S
Cu356  N403    2.014   .     S
Cu356  O358    1.965   .     S
O357   C361    1.292   .     A
O358   C361    1.292   .     A
O359   C362    1.294   .     A
O360   C362    1.298   .     A
C361   C388    1.450   .     S
C362   C367    1.466   .     S
C363   C378    1.393   .     A
C363   H888    1.080   1_554 S
C363   C896    1.399   1_554 S
H364   C378    1.083   .     S
H365   C375    1.084   .     S
H366   C885    1.080   .     S
C367   C378    1.399   .     A
C367   C377    1.400   .     A
C368   C369    1.391   .     A
C368   H381    1.083   .     S
C368   C379    1.403   .     A
C369   C892    1.388   .     S
C369   H905    1.079   .     S
C370   H382    1.077   .     S
C370   C891    1.388   1_554 S
C370   C893    1.413   1_554 S
C371   C372    1.416   .     A
C371   C892    1.413   .     S
C371   C895    1.421   .     S
C372   C379    1.426   .     A
C372   C376    1.420   .     A
C373   C377    1.401   .     A
C373   C893    1.421   1_554 S
C373   C896    1.417   1_554 S
C374   C375    1.393   .     A
C374   C895    1.417   .     S
C374   C885    1.399   .     S
C375   C376    1.395   .     A
C376   N404    1.441   .     S
C377   H380    1.075   .     S
H383   C891    1.079   1_554 S
C384   C393    1.401   .     A
C384   H385    1.083   .     S
C384   C38     1.383   1_565 S
C386   C388    1.401   .     A
C386   H387    1.083   .     S
C388   C389    1.401   .     A
C389   H390    1.083   .     S
C391   C393    1.401   .     A
C391   H392    1.083   .     S
C391   C41     1.383   1_565 S
C394   N403    1.367   .     A
C394   H395    1.082   .     S
C394   C454    1.418   .     S
C396   H397    1.082   .     S
C396   N398    1.368   .     A
C396   C510    1.418   1_455 S
N398   C399    1.367   .     A
C399   H400    1.082   .     S
C399   C517    1.417   1_455 S
C401   H402    1.082   .     S
C401   N403    1.368   .     A
C401   C457    1.417   .     S
N404   O405    1.301   .     A
N404   O406    1.301   .     A
O407   Cu413   1.965   .     S
O407   C409    1.292   .     A
O408   C409    1.292   .     A
O408   Cu414   1.965   .     S
C409   C451    1.450   .     S
O410   Cu413   1.952   .     S
O410   C412    1.306   .     A
O411   Cu414   1.944   .     S
O411   C412    1.294   .     A
C412   C437    1.484   .     S
Cu413  O417    1.944   .     S
Cu413  Cu414   2.681   .     S
Cu413  O415    1.965   .     S
Cu413  N456    2.015   .     S
Cu414  O418    1.952   .     S
Cu414  N461    2.014   .     S
Cu414  O416    1.965   .     S
O415   C419    1.292   .     A
O416   C419    1.292   .     A
O417   C420    1.294   .     A
O418   C420    1.298   .     A
C419   C446    1.450   .     S
C420   C425    1.466   .     S
C421   C436    1.393   .     A
C421   H946    1.080   1_554 S
C421   C954    1.399   1_554 S
H422   C436    1.083   .     S
H423   C433    1.084   .     S
H424   C943    1.080   .     S
C425   C436    1.399   .     A
C425   C435    1.400   .     A
C426   C427    1.391   .     A
C426   H439    1.083   .     S
C426   C437    1.403   .     A
C427   C950    1.388   .     S
C427   H963    1.079   .     S
C428   H440    1.077   .     S
C428   C949    1.388   1_554 S
C428   C951    1.413   1_554 S
C429   C430    1.416   .     A
C429   C950    1.413   .     S
C429   C953    1.421   .     S
C430   C437    1.426   .     A
C430   C434    1.420   .     A
C431   C435    1.401   .     A
C431   C951    1.421   1_554 S
C431   C954    1.417   1_554 S
C432   C433    1.393   .     A
C432   C953    1.417   .     S
C432   C943    1.399   .     S
C433   C434    1.395   .     A
C434   N462    1.441   .     S
C435   H438    1.075   .     S
H441   C949    1.079   1_554 S
C442   C451    1.401   .     A
C442   H443    1.083   .     S
C442   C96     1.383   1_565 S
C444   C446    1.401   .     A
C444   H445    1.083   .     S
C446   C447    1.401   .     A
C447   H448    1.083   .     S
C449   C451    1.401   .     A
C449   H450    1.083   .     S
C449   C99     1.383   1_565 S
C452   N461    1.367   .     A
C452   H453    1.082   .     S
C452   C512    1.418   .     S
C454   H455    1.082   .     S
C454   N456    1.368   .     A
N456   C457    1.367   .     A
C457   H458    1.082   .     S
C459   H460    1.082   .     S
C459   N461    1.368   .     A
C459   C515    1.417   .     S
N462   O463    1.301   .     A
N462   O464    1.301   .     A
O465   Cu471   1.965   .     S
O465   C467    1.292   .     A
O466   C467    1.292   .     A
O466   Cu472   1.965   .     S
C467   C509    1.450   .     S
O468   Cu471   1.952   .     S
O468   C470    1.306   .     A
O469   Cu472   1.944   .     S
O469   C470    1.294   .     A
C470   C495    1.484   .     S
Cu471  O475    1.944   .     S
Cu471  Cu472   2.681   .     S
Cu471  O473    1.965   .     S
Cu471  N514    2.015   .     S
Cu472  O476    1.952   .     S
Cu472  N519    2.014   .     S
Cu472  O474    1.965   .     S
O473   C477    1.292   .     A
O474   C477    1.292   .     A
O475   C478    1.294   .     A
O476   C478    1.298   .     A
C477   C504    1.450   .     S
C478   C483    1.466   .     S
C479   C494    1.393   .     A
C479   H1004   1.080   1_554 S
C479   C1012   1.399   1_554 S
H480   C494    1.083   .     S
H481   C491    1.084   .     S
H482   C1001   1.080   .     S
C483   C494    1.399   .     A
C483   C493    1.400   .     A
C484   C485    1.391   .     A
C484   H497    1.083   .     S
C484   C495    1.403   .     A
C485   C1008   1.388   .     S
C485   H1021   1.079   .     S
C486   H498    1.077   .     S
C486   C1007   1.388   1_554 S
C486   C1009   1.413   1_554 S
C487   C488    1.416   .     A
C487   C1008   1.413   .     S
C487   C1011   1.421   .     S
C488   C495    1.426   .     A
C488   C492    1.420   .     A
C489   C493    1.401   .     A
C489   C1009   1.421   1_554 S
C489   C1012   1.417   1_554 S
C490   C491    1.393   .     A
C490   C1011   1.417   .     S
C490   C1001   1.399   .     S
C491   C492    1.395   .     A
C492   N520    1.441   .     S
C493   H496    1.075   .     S
H499   C1007   1.079   1_554 S
C500   C509    1.401   .     A
C500   H501    1.083   .     S
C500   C154    1.383   1_565 S
C502   C504    1.401   .     A
C502   H503    1.083   .     S
C504   C505    1.401   .     A
C505   H506    1.083   .     S
C507   C509    1.401   .     A
C507   H508    1.083   .     S
C507   C157    1.383   1_565 S
C510   N519    1.367   .     A
C510   H511    1.082   .     S
C510   C396    1.418   1_655 S
C512   H513    1.082   .     S
C512   N514    1.368   .     A
N514   C515    1.367   .     A
C515   H516    1.082   .     S
C517   H518    1.082   .     S
C517   N519    1.368   .     A
C517   C399    1.417   1_655 S
N520   O521    1.301   .     A
N520   O522    1.301   .     A
O523   Cu529   1.965   .     S
O523   C525    1.292   .     A
O524   C525    1.292   .     A
O524   Cu530   1.965   .     S
C525   C567    1.450   .     S
O526   Cu529   1.952   .     S
O526   C528    1.306   .     A
O527   Cu530   1.944   .     S
O527   C528    1.294   .     A
C528   C553    1.484   .     S
Cu529  O533    1.944   .     S
Cu529  Cu530   2.681   .     S
Cu529  O531    1.965   .     S
Cu529  N572    2.015   .     S
Cu530  O534    1.952   .     S
Cu530  N577    2.014   .     S
Cu530  O532    1.965   .     S
O531   C535    1.292   .     A
O532   C535    1.292   .     A
O533   C536    1.294   .     A
O534   C536    1.298   .     A
C535   C562    1.450   .     S
C536   C541    1.466   .     S
C537   C552    1.393   .     A
H538   C552    1.083   .     S
H539   C549    1.084   .     S
H540   C15     1.080   1_556 S
C541   C552    1.399   .     A
C541   C551    1.400   .     A
C542   C543    1.391   .     A
C542   H555    1.083   .     S
C542   C553    1.403   .     A
C543   C22     1.388   1_556 S
C543   H35     1.079   1_556 S
C544   H556    1.077   .     S
C545   C546    1.416   .     A
C545   C22     1.413   1_556 S
C545   C25     1.421   1_556 S
C546   C553    1.426   .     A
C546   C550    1.420   .     A
C547   C551    1.401   .     A
C548   C549    1.393   .     A
C548   C25     1.417   1_556 S
C548   C15     1.399   1_556 S
C549   C550    1.395   .     A
C550   N578    1.441   .     S
C551   H554    1.075   .     S
C558   C567    1.401   .     A
C558   H559    1.083   .     S
C558   C734    1.383   .     S
C560   C562    1.401   .     A
C560   H561    1.083   .     S
C560   C906    1.383   1_545 S
C562   C563    1.401   .     A
C563   H564    1.083   .     S
C563   C913    1.383   1_545 S
C565   C567    1.401   .     A
C565   H566    1.083   .     S
C565   C737    1.383   .     S
C568   N577    1.367   .     A
C568   H569    1.082   .     S
C568   C628    1.418   .     S
C570   H571    1.082   .     S
C570   N572    1.368   .     A
C570   C684    1.418   1_455 S
N572   C573    1.367   .     A
C573   H574    1.082   .     S
C573   C691    1.417   1_455 S
C575   H576    1.082   .     S
C575   N577    1.368   .     A
C575   C631    1.417   .     S
N578   O579    1.301   .     A
N578   O580    1.301   .     A
O581   Cu587   1.965   .     S
O581   C583    1.292   .     A
O582   C583    1.292   .     A
O582   Cu588   1.965   .     S
C583   C625    1.450   .     S
O584   Cu587   1.952   .     S
O584   C586    1.306   .     A
O585   Cu588   1.944   .     S
O585   C586    1.294   .     A
C586   C611    1.484   .     S
Cu587  O591    1.944   .     S
Cu587  Cu588   2.681   .     S
Cu587  O589    1.965   .     S
Cu587  N630    2.015   .     S
Cu588  O592    1.952   .     S
Cu588  N635    2.014   .     S
Cu588  O590    1.965   .     S
O589   C593    1.292   .     A
O590   C593    1.292   .     A
O591   C594    1.294   .     A
O592   C594    1.298   .     A
C593   C620    1.450   .     S
C594   C599    1.466   .     S
C595   C610    1.393   .     A
H596   C610    1.083   .     S
H597   C607    1.084   .     S
H598   C73     1.080   1_556 S
C599   C610    1.399   .     A
C599   C609    1.400   .     A
C600   C601    1.391   .     A
C600   H613    1.083   .     S
C600   C611    1.403   .     A
C601   C80     1.388   1_556 S
C601   H93     1.079   1_556 S
C602   H614    1.077   .     S
C603   C604    1.416   .     A
C603   C80     1.413   1_556 S
C603   C83     1.421   1_556 S
C604   C611    1.426   .     A
C604   C608    1.420   .     A
C605   C609    1.401   .     A
C606   C607    1.393   .     A
C606   C83     1.417   1_556 S
C606   C73     1.399   1_556 S
C607   C608    1.395   .     A
C608   N636    1.441   .     S
C609   H612    1.075   .     S
C616   C625    1.401   .     A
C616   H617    1.083   .     S
C616   C792    1.383   .     S
C618   C620    1.401   .     A
C618   H619    1.083   .     S
C618   C964    1.383   1_545 S
C620   C621    1.401   .     A
C621   H622    1.083   .     S
C621   C971    1.383   1_545 S
C623   C625    1.401   .     A
C623   H624    1.083   .     S
C623   C795    1.383   .     S
C626   N635    1.367   .     A
C626   H627    1.082   .     S
C626   C686    1.418   .     S
C628   H629    1.082   .     S
C628   N630    1.368   .     A
N630   C631    1.367   .     A
C631   H632    1.082   .     S
C633   H634    1.082   .     S
C633   N635    1.368   .     A
C633   C689    1.417   .     S
N636   O637    1.301   .     A
N636   O638    1.301   .     A
O639   Cu645   1.965   .     S
O639   C641    1.292   .     A
O640   C641    1.292   .     A
O640   Cu646   1.965   .     S
C641   C683    1.450   .     S
O642   Cu645   1.952   .     S
O642   C644    1.306   .     A
O643   Cu646   1.944   .     S
O643   C644    1.294   .     A
C644   C669    1.484   .     S
Cu645  O649    1.944   .     S
Cu645  Cu646   2.681   .     S
Cu645  O647    1.965   .     S
Cu645  N688    2.015   .     S
Cu646  O650    1.952   .     S
Cu646  N693    2.014   .     S
Cu646  O648    1.965   .     S
O647   C651    1.292   .     A
O648   C651    1.292   .     A
O649   C652    1.294   .     A
O650   C652    1.298   .     A
C651   C678    1.450   .     S
C652   C657    1.466   .     S
C653   C668    1.393   .     A
H654   C668    1.083   .     S
H655   C665    1.084   .     S
H656   C131    1.080   1_556 S
C657   C668    1.399   .     A
C657   C667    1.400   .     A
C658   C659    1.391   .     A
C658   H671    1.083   .     S
C658   C669    1.403   .     A
C659   C138    1.388   1_556 S
C659   H151    1.079   1_556 S
C660   H672    1.077   .     S
C661   C662    1.416   .     A
C661   C138    1.413   1_556 S
C661   C141    1.421   1_556 S
C662   C669    1.426   .     A
C662   C666    1.420   .     A
C663   C667    1.401   .     A
C664   C665    1.393   .     A
C664   C141    1.417   1_556 S
C664   C131    1.399   1_556 S
C665   C666    1.395   .     A
C666   N694    1.441   .     S
C667   H670    1.075   .     S
C674   C683    1.401   .     A
C674   H675    1.083   .     S
C674   C850    1.383   .     S
C676   C678    1.401   .     A
C676   H677    1.083   .     S
C676   C1022   1.383   1_545 S
C678   C679    1.401   .     A
C679   H680    1.083   .     S
C679   C1029   1.383   1_545 S
C681   C683    1.401   .     A
C681   H682    1.083   .     S
C681   C853    1.383   .     S
C684   N693    1.367   .     A
C684   H685    1.082   .     S
C684   C570    1.418   1_655 S
C686   H687    1.082   .     S
C686   N688    1.368   .     A
N688   C689    1.367   .     A
C689   H690    1.082   .     S
C691   H692    1.082   .     S
C691   N693    1.368   .     A
C691   C573    1.417   1_655 S
N694   O695    1.301   .     A
N694   O696    1.301   .     A
O697   Cu703   1.965   .     S
O697   C699    1.292   .     A
O698   C699    1.292   .     A
O698   Cu704   1.965   .     S
C699   C741    1.450   .     S
O700   Cu703   1.952   .     S
O700   C702    1.306   .     A
O701   Cu704   1.944   .     S
O701   C702    1.294   .     A
C702   C727    1.484   .     S
Cu703  O707    1.944   .     S
Cu703  Cu704   2.681   .     S
Cu703  O705    1.965   .     S
Cu703  N746    2.015   .     S
Cu704  O708    1.952   .     S
Cu704  N751    2.014   .     S
Cu704  O706    1.965   .     S
O705   C709    1.292   .     A
O706   C709    1.292   .     A
O707   C710    1.294   .     A
O708   C710    1.298   .     A
C709   C736    1.450   .     S
C710   C715    1.466   .     S
C711   C726    1.393   .     A
H712   C726    1.083   .     S
H713   C723    1.084   .     S
H714   C189    1.080   1_556 S
C715   C726    1.399   .     A
C715   C725    1.400   .     A
C716   C717    1.391   .     A
C716   H729    1.083   .     S
C716   C727    1.403   .     A
C717   C196    1.388   1_556 S
C717   H209    1.079   1_556 S
C718   H730    1.077   .     S
C719   C720    1.416   .     A
C719   C196    1.413   1_556 S
C719   C199    1.421   1_556 S
C720   C727    1.426   .     A
C720   C724    1.420   .     A
C721   C725    1.401   .     A
C722   C723    1.393   .     A
C722   C199    1.417   1_556 S
C722   C189    1.399   1_556 S
C723   C724    1.395   .     A
C724   N752    1.441   .     S
C725   H728    1.075   .     S
C732   C741    1.401   .     A
C732   H733    1.083   .     S
C732   C908    1.383   .     S
C734   C736    1.401   .     A
C734   H735    1.083   .     S
C736   C737    1.401   .     A
C737   H738    1.083   .     S
C739   C741    1.401   .     A
C739   H740    1.083   .     S
C739   C911    1.383   .     S
C742   N751    1.367   .     A
C742   H743    1.082   .     S
C742   C802    1.418   .     S
C744   H745    1.082   .     S
C744   N746    1.368   .     A
C744   C858    1.418   1_455 S
N746   C747    1.367   .     A
C747   H748    1.082   .     S
C747   C865    1.417   1_455 S
C749   H750    1.082   .     S
C749   N751    1.368   .     A
C749   C805    1.417   .     S
N752   O753    1.301   .     A
N752   O754    1.301   .     A
O755   Cu761   1.965   .     S
O755   C757    1.292   .     A
O756   C757    1.292   .     A
O756   Cu762   1.965   .     S
C757   C799    1.450   .     S
O758   Cu761   1.952   .     S
O758   C760    1.306   .     A
O759   Cu762   1.944   .     S
O759   C760    1.294   .     A
C760   C785    1.484   .     S
Cu761  O765    1.944   .     S
Cu761  Cu762   2.681   .     S
Cu761  O763    1.965   .     S
Cu761  N804    2.015   .     S
Cu762  O766    1.952   .     S
Cu762  N809    2.014   .     S
Cu762  O764    1.965   .     S
O763   C767    1.292   .     A
O764   C767    1.292   .     A
O765   C768    1.294   .     A
O766   C768    1.298   .     A
C767   C794    1.450   .     S
C768   C773    1.466   .     S
C769   C784    1.393   .     A
H770   C784    1.083   .     S
H771   C781    1.084   .     S
H772   C247    1.080   1_556 S
C773   C784    1.399   .     A
C773   C783    1.400   .     A
C774   C775    1.391   .     A
C774   H787    1.083   .     S
C774   C785    1.403   .     A
C775   C254    1.388   1_556 S
C775   H267    1.079   1_556 S
C776   H788    1.077   .     S
C777   C778    1.416   .     A
C777   C254    1.413   1_556 S
C777   C257    1.421   1_556 S
C778   C785    1.426   .     A
C778   C782    1.420   .     A
C779   C783    1.401   .     A
C780   C781    1.393   .     A
C780   C257    1.417   1_556 S
C780   C247    1.399   1_556 S
C781   C782    1.395   .     A
C782   N810    1.441   .     S
C783   H786    1.075   .     S
C790   C799    1.401   .     A
C790   H791    1.083   .     S
C790   C966    1.383   .     S
C792   C794    1.401   .     A
C792   H793    1.083   .     S
C794   C795    1.401   .     A
C795   H796    1.083   .     S
C797   C799    1.401   .     A
C797   H798    1.083   .     S
C797   C969    1.383   .     S
C800   N809    1.367   .     A
C800   H801    1.082   .     S
C800   C860    1.418   .     S
C802   H803    1.082   .     S
C802   N804    1.368   .     A
N804   C805    1.367   .     A
C805   H806    1.082   .     S
C807   H808    1.082   .     S
C807   N809    1.368   .     A
C807   C863    1.417   .     S
N810   O811    1.301   .     A
N810   O812    1.301   .     A
O813   Cu819   1.965   .     S
O813   C815    1.292   .     A
O814   C815    1.292   .     A
O814   Cu820   1.965   .     S
C815   C857    1.450   .     S
O816   Cu819   1.952   .     S
O816   C818    1.306   .     A
O817   Cu820   1.944   .     S
O817   C818    1.294   .     A
C818   C843    1.484   .     S
Cu819  O823    1.944   .     S
Cu819  Cu820   2.681   .     S
Cu819  O821    1.965   .     S
Cu819  N862    2.015   .     S
Cu820  O824    1.952   .     S
Cu820  N867    2.014   .     S
Cu820  O822    1.965   .     S
O821   C825    1.292   .     A
O822   C825    1.292   .     A
O823   C826    1.294   .     A
O824   C826    1.298   .     A
C825   C852    1.450   .     S
C826   C831    1.466   .     S
C827   C842    1.393   .     A
H828   C842    1.083   .     S
H829   C839    1.084   .     S
H830   C305    1.080   1_556 S
C831   C842    1.399   .     A
C831   C841    1.400   .     A
C832   C833    1.391   .     A
C832   H845    1.083   .     S
C832   C843    1.403   .     A
C833   C312    1.388   1_556 S
C833   H325    1.079   1_556 S
C834   H846    1.077   .     S
C835   C836    1.416   .     A
C835   C312    1.413   1_556 S
C835   C315    1.421   1_556 S
C836   C843    1.426   .     A
C836   C840    1.420   .     A
C837   C841    1.401   .     A
C838   C839    1.393   .     A
C838   C315    1.417   1_556 S
C838   C305    1.399   1_556 S
C839   C840    1.395   .     A
C840   N868    1.441   .     S
C841   H844    1.075   .     S
C848   C857    1.401   .     A
C848   H849    1.083   .     S
C848   C1024   1.383   .     S
C850   C852    1.401   .     A
C850   H851    1.083   .     S
C852   C853    1.401   .     A
C853   H854    1.083   .     S
C855   C857    1.401   .     A
C855   H856    1.083   .     S
C855   C1027   1.383   .     S
C858   N867    1.367   .     A
C858   H859    1.082   .     S
C858   C744    1.418   1_655 S
C860   H861    1.082   .     S
C860   N862    1.368   .     A
N862   C863    1.367   .     A
C863   H864    1.082   .     S
C865   H866    1.082   .     S
C865   N867    1.368   .     A
C865   C747    1.417   1_655 S
N868   O869    1.301   .     A
N868   O870    1.301   .     A
O871   Cu877   1.965   .     S
O871   C873    1.292   .     A
O872   C873    1.292   .     A
O872   Cu878   1.965   .     S
C873   C915    1.450   .     S
O874   Cu877   1.952   .     S
O874   C876    1.306   .     A
O875   Cu878   1.944   .     S
O875   C876    1.294   .     A
C876   C901    1.484   .     S
Cu877  O881    1.944   .     S
Cu877  Cu878   2.681   .     S
Cu877  O879    1.965   .     S
Cu877  N920    2.015   .     S
Cu878  O882    1.952   .     S
Cu878  N925    2.014   .     S
Cu878  O880    1.965   .     S
O879   C883    1.292   .     A
O880   C883    1.292   .     A
O881   C884    1.294   .     A
O882   C884    1.298   .     A
C883   C910    1.450   .     S
C884   C889    1.466   .     S
C885   C900    1.393   .     A
H886   C900    1.083   .     S
H887   C897    1.084   .     S
H888   C363    1.080   1_556 S
C889   C900    1.399   .     A
C889   C899    1.400   .     A
C890   C891    1.391   .     A
C890   H903    1.083   .     S
C890   C901    1.403   .     A
C891   C370    1.388   1_556 S
C891   H383    1.079   1_556 S
C892   H904    1.077   .     S
C893   C894    1.416   .     A
C893   C370    1.413   1_556 S
C893   C373    1.421   1_556 S
C894   C901    1.426   .     A
C894   C898    1.420   .     A
C895   C899    1.401   .     A
C896   C897    1.393   .     A
C896   C373    1.417   1_556 S
C896   C363    1.399   1_556 S
C897   C898    1.395   .     A
C898   N926    1.441   .     S
C899   H902    1.075   .     S
C906   C915    1.401   .     A
C906   H907    1.083   .     S
C906   C560    1.383   1_565 S
C908   C910    1.401   .     A
C908   H909    1.083   .     S
C910   C911    1.401   .     A
C911   H912    1.083   .     S
C913   C915    1.401   .     A
C913   H914    1.083   .     S
C913   C563    1.383   1_565 S
C916   N925    1.367   .     A
C916   H917    1.082   .     S
C916   C976    1.418   .     S
C918   H919    1.082   .     S
C918   N920    1.368   .     A
C918   C1032   1.418   1_455 S
N920   C921    1.367   .     A
C921   H922    1.082   .     S
C921   C1039   1.417   1_455 S
C923   H924    1.082   .     S
C923   N925    1.368   .     A
C923   C979    1.417   .     S
N926   O927    1.301   .     A
N926   O928    1.301   .     A
O929   Cu935   1.965   .     S
O929   C931    1.292   .     A
O930   C931    1.292   .     A
O930   Cu936   1.965   .     S
C931   C973    1.450   .     S
O932   Cu935   1.952   .     S
O932   C934    1.306   .     A
O933   Cu936   1.944   .     S
O933   C934    1.294   .     A
C934   C959    1.484   .     S
Cu935  O939    1.944   .     S
Cu935  Cu936   2.681   .     S
Cu935  O937    1.965   .     S
Cu935  N978    2.015   .     S
Cu936  O940    1.952   .     S
Cu936  N983    2.014   .     S
Cu936  O938    1.965   .     S
O937   C941    1.292   .     A
O938   C941    1.292   .     A
O939   C942    1.294   .     A
O940   C942    1.298   .     A
C941   C968    1.450   .     S
C942   C947    1.466   .     S
C943   C958    1.393   .     A
H944   C958    1.083   .     S
H945   C955    1.084   .     S
H946   C421    1.080   1_556 S
C947   C958    1.399   .     A
C947   C957    1.400   .     A
C948   C949    1.391   .     A
C948   H961    1.083   .     S
C948   C959    1.403   .     A
C949   C428    1.388   1_556 S
C949   H441    1.079   1_556 S
C950   H962    1.077   .     S
C951   C952    1.416   .     A
C951   C428    1.413   1_556 S
C951   C431    1.421   1_556 S
C952   C959    1.426   .     A
C952   C956    1.420   .     A
C953   C957    1.401   .     A
C954   C955    1.393   .     A
C954   C431    1.417   1_556 S
C954   C421    1.399   1_556 S
C955   C956    1.395   .     A
C956   N984    1.441   .     S
C957   H960    1.075   .     S
C964   C973    1.401   .     A
C964   H965    1.083   .     S
C964   C618    1.383   1_565 S
C966   C968    1.401   .     A
C966   H967    1.083   .     S
C968   C969    1.401   .     A
C969   H970    1.083   .     S
C971   C973    1.401   .     A
C971   H972    1.083   .     S
C971   C621    1.383   1_565 S
C974   N983    1.367   .     A
C974   H975    1.082   .     S
C974   C1034   1.418   .     S
C976   H977    1.082   .     S
C976   N978    1.368   .     A
N978   C979    1.367   .     A
C979   H980    1.082   .     S
C981   H982    1.082   .     S
C981   N983    1.368   .     A
C981   C1037   1.417   .     S
N984   O985    1.301   .     A
N984   O986    1.301   .     A
O987   Cu993   1.965   .     S
O987   C989    1.292   .     A
O988   C989    1.292   .     A
O988   Cu994   1.965   .     S
C989   C1031   1.450   .     S
O990   Cu993   1.952   .     S
O990   C992    1.306   .     A
O991   Cu994   1.944   .     S
O991   C992    1.294   .     A
C992   C1017   1.484   .     S
Cu993  O997    1.944   .     S
Cu993  Cu994   2.681   .     S
Cu993  O995    1.965   .     S
Cu993  N1036   2.015   .     S
Cu994  O998    1.952   .     S
Cu994  N1041   2.014   .     S
Cu994  O996    1.965   .     S
O995   C999    1.292   .     A
O996   C999    1.292   .     A
O997   C1000   1.294   .     A
O998   C1000   1.298   .     A
C999   C1026   1.450   .     S
C1000  C1005   1.466   .     S
C1001  C1016   1.393   .     A
H1002  C1016   1.083   .     S
H1003  C1013   1.084   .     S
H1004  C479    1.080   1_556 S
C1005  C1016   1.399   .     A
C1005  C1015   1.400   .     A
C1006  C1007   1.391   .     A
C1006  H1019   1.083   .     S
C1006  C1017   1.403   .     A
C1007  C486    1.388   1_556 S
C1007  H499    1.079   1_556 S
C1008  H1020   1.077   .     S
C1009  C1010   1.416   .     A
C1009  C486    1.413   1_556 S
C1009  C489    1.421   1_556 S
C1010  C1017   1.426   .     A
C1010  C1014   1.420   .     A
C1011  C1015   1.401   .     A
C1012  C1013   1.393   .     A
C1012  C489    1.417   1_556 S
C1012  C479    1.399   1_556 S
C1013  C1014   1.395   .     A
C1014  N1042   1.441   .     S
C1015  H1018   1.075   .     S
C1022  C1031   1.401   .     A
C1022  H1023   1.083   .     S
C1022  C676    1.383   1_565 S
C1024  C1026   1.401   .     A
C1024  H1025   1.083   .     S
C1026  C1027   1.401   .     A
C1027  H1028   1.083   .     S
C1029  C1031   1.401   .     A
C1029  H1030   1.083   .     S
C1029  C679    1.383   1_565 S
C1032  N1041   1.367   .     A
C1032  H1033   1.082   .     S
C1032  C918    1.418   1_655 S
C1034  H1035   1.082   .     S
C1034  N1036   1.368   .     A
N1036  C1037   1.367   .     A
C1037  H1038   1.082   .     S
C1039  H1040   1.082   .     S
C1039  N1041   1.368   .     A
C1039  C921    1.417   1_655 S
N1042  O1043   1.301   .     A
N1042  O1044   1.301   .     A
