data_str_m2_o10_o16_pcu_sym.31
_audit_creation_date              2020-01-03
_audit_creation_method            'Materials Studio'
_symmetry_space_group_name_H-M    'P1'
_symmetry_Int_Tables_number       1
_symmetry_cell_setting            triclinic
loop_
_symmetry_equiv_pos_as_xyz
  x,y,z
_cell_length_a                    22.2922
_cell_length_b                    26.1361
_cell_length_c                    26.7540
_cell_angle_alpha                 93.8061
_cell_angle_beta                  77.3702
_cell_angle_gamma                 103.0260
loop_
_atom_site_label
_atom_site_type_symbol
_atom_site_fract_x
_atom_site_fract_y
_atom_site_fract_z
_atom_site_U_iso_or_equiv
_atom_site_adp_type
_atom_site_occupancy
C1     C     0.18256   0.26653   0.24935   0.00000  Uiso   1.00
C2     C     0.11220   0.16414   0.40310   0.00000  Uiso   1.00
C3     C     0.19398   0.32216   0.24378   0.00000  Uiso   1.00
C4     C     0.13262   0.16242   0.34709   0.00000  Uiso   1.00
C5     C     0.14470   0.01087   0.24644   0.00000  Uiso   1.00
C6     C     0.15218   0.06669   0.24753   0.00000  Uiso   1.00
C7     C     0.20039   0.16906   0.15291   0.00000  Uiso   1.00
C8     C     0.26939   0.11744   0.02473   0.00000  Uiso   1.00
C9     C     0.21876   0.16320   0.09730   0.00000  Uiso   1.00
C10    C     0.06533   0.19193   0.42368   0.00000  Uiso   1.00
C11    C     0.05601   0.20760   0.47476   0.00000  Uiso   1.00
C12    C     0.14132   0.16795   0.48671   0.00000  Uiso   1.00
C13    C     0.09417   0.19700   0.00575   0.00000  Uiso   1.00
C14    C     0.13458   0.03575   0.38770   0.00000  Uiso   1.00
C15    C     0.28656   0.01538   0.18720   0.00000  Uiso   1.00
C16    C     0.14681   0.14784   0.43556   0.00000  Uiso   1.00
C17    C     0.18297   0.15806   0.01672   0.00000  Uiso   1.00
C18    C     0.22783   0.12735   0.49578   0.00000  Uiso   1.00
C19    C     0.22859   0.10429   0.44731   0.00000  Uiso   1.00
C20    C     0.18636   0.11169   0.41849   0.00000  Uiso   1.00
C21    C     0.18062   0.17666   0.06746   0.00000  Uiso   1.00
C22    C     0.26489   0.13529   0.07535   0.00000  Uiso   1.00
Cu23   Cu    0.10710   0.16105   0.24436   0.00000  Uiso   1.00
Cu24   Cu    0.22623   0.17228   0.25565   0.00000  Uiso   1.00
H25    H     0.29442   0.12429   0.09818   0.00000  Uiso   1.00
H26    H     0.09717   0.32066   0.24949   0.00000  Uiso   1.00
H27    H     0.08759   0.04583   0.40035   0.00000  Uiso   1.00
H28    H     0.14420   0.01302   0.41775   0.00000  Uiso   1.00
H29    H     0.13303   0.00977   0.35338   0.00000  Uiso   1.00
H30    H     0.26460   0.03429   0.16193   0.00000  Uiso   1.00
H31    H     0.28766   0.30756   0.17402   0.00000  Uiso   1.00
H32    H     0.00280   0.03712   0.18348   0.00000  Uiso   1.00
H33    H     0.00330   0.20512   0.29024   0.00000  Uiso   1.00
H34    H     0.33016   0.12867   0.20946   0.00000  Uiso   1.00
H35    H     0.26019   0.07823   0.43245   0.00000  Uiso   1.00
H36    H     0.30380   0.09410   0.00881   0.00000  Uiso   1.00
H37    H     0.14733   0.19960   0.08609   0.00000  Uiso   1.00
H38    H     0.03813   0.20420   0.39953   0.00000  Uiso   1.00
H39    H     0.08485   0.21187   0.04449   0.00000  Uiso   1.00
H40    H     0.02025   0.22976   0.49011   0.00000  Uiso   1.00
N41    N     0.31574   0.18074   0.26416   0.00000  Uiso   1.00
N42    N     0.01759   0.15259   0.23584   0.00000  Uiso   1.00
O43    O     0.12797   0.23807   0.24633   0.00000  Uiso   1.00
O44    O     0.25524   0.01798   0.23890   0.00000  Uiso   1.00
O45    O     0.22858   0.24755   0.25587   0.00000  Uiso   1.00
O46    O     0.09181   0.15960   0.31840   0.00000  Uiso   1.00
O47    O     0.19242   0.16908   0.32793   0.00000  Uiso   1.00
O48    O     0.10476   0.08578   0.24414   0.00000  Uiso   1.00
O49    O     0.20536   0.09526   0.25367   0.00000  Uiso   1.00
O50    O     0.14092   0.16425   0.17207   0.00000  Uiso   1.00
O51    O     0.24152   0.17373   0.18161   0.00000  Uiso   1.00
O52    O     0.18242   0.08119   0.37460   0.00000  Uiso   1.00
C53    C     0.51590   0.26653   0.24935   0.00000  Uiso   1.00
C54    C     0.44553   0.16414   0.40310   0.00000  Uiso   1.00
C55    C     0.52732   0.32216   0.24378   0.00000  Uiso   1.00
C56    C     0.46596   0.16242   0.34709   0.00000  Uiso   1.00
C57    C     0.47804   0.01087   0.24644   0.00000  Uiso   1.00
C58    C     0.48551   0.06669   0.24753   0.00000  Uiso   1.00
C59    C     0.53372   0.16906   0.15291   0.00000  Uiso   1.00
C60    C     0.60272   0.11744   0.02473   0.00000  Uiso   1.00
C61    C     0.55210   0.16320   0.09730   0.00000  Uiso   1.00
C62    C     0.39866   0.19193   0.42368   0.00000  Uiso   1.00
C63    C     0.38934   0.20760   0.47476   0.00000  Uiso   1.00
C64    C     0.47465   0.16795   0.48671   0.00000  Uiso   1.00
C65    C     0.42750   0.19700   0.00575   0.00000  Uiso   1.00
C66    C     0.46791   0.03575   0.38770   0.00000  Uiso   1.00
C67    C     0.61990   0.01538   0.18720   0.00000  Uiso   1.00
C68    C     0.48015   0.14784   0.43556   0.00000  Uiso   1.00
C69    C     0.51630   0.15806   0.01672   0.00000  Uiso   1.00
C70    C     0.56117   0.12735   0.49578   0.00000  Uiso   1.00
C71    C     0.56193   0.10429   0.44731   0.00000  Uiso   1.00
C72    C     0.51969   0.11169   0.41849   0.00000  Uiso   1.00
C73    C     0.51395   0.17666   0.06746   0.00000  Uiso   1.00
C74    C     0.59822   0.13529   0.07535   0.00000  Uiso   1.00
Cu75   Cu    0.44043   0.16105   0.24436   0.00000  Uiso   1.00
Cu76   Cu    0.55957   0.17228   0.25565   0.00000  Uiso   1.00
H77    H     0.62776   0.12429   0.09818   0.00000  Uiso   1.00
H78    H     0.43050   0.32066   0.24949   0.00000  Uiso   1.00
H79    H     0.42093   0.04583   0.40035   0.00000  Uiso   1.00
H80    H     0.47754   0.01302   0.41775   0.00000  Uiso   1.00
H81    H     0.46637   0.00977   0.35338   0.00000  Uiso   1.00
H82    H     0.59793   0.03429   0.16193   0.00000  Uiso   1.00
H83    H     0.62099   0.30756   0.17402   0.00000  Uiso   1.00
H84    H     0.33613   0.03712   0.18348   0.00000  Uiso   1.00
H85    H     0.33663   0.20512   0.29024   0.00000  Uiso   1.00
H86    H     0.66349   0.12867   0.20946   0.00000  Uiso   1.00
H87    H     0.59353   0.07823   0.43245   0.00000  Uiso   1.00
H88    H     0.63713   0.09410   0.00881   0.00000  Uiso   1.00
H89    H     0.48067   0.19960   0.08609   0.00000  Uiso   1.00
H90    H     0.37146   0.20420   0.39953   0.00000  Uiso   1.00
H91    H     0.41818   0.21187   0.04449   0.00000  Uiso   1.00
H92    H     0.35358   0.22976   0.49011   0.00000  Uiso   1.00
N93    N     0.64908   0.18074   0.26416   0.00000  Uiso   1.00
N94    N     0.35092   0.15259   0.23584   0.00000  Uiso   1.00
O95    O     0.46131   0.23807   0.24633   0.00000  Uiso   1.00
O96    O     0.58857   0.01798   0.23890   0.00000  Uiso   1.00
O97    O     0.56191   0.24755   0.25587   0.00000  Uiso   1.00
O98    O     0.42515   0.15960   0.31840   0.00000  Uiso   1.00
O99    O     0.52575   0.16908   0.32793   0.00000  Uiso   1.00
O100   O     0.43809   0.08578   0.24414   0.00000  Uiso   1.00
O101   O     0.53869   0.09526   0.25367   0.00000  Uiso   1.00
O102   O     0.47425   0.16425   0.17207   0.00000  Uiso   1.00
O103   O     0.57485   0.17373   0.18161   0.00000  Uiso   1.00
O104   O     0.51575   0.08119   0.37460   0.00000  Uiso   1.00
C105   C     0.84923   0.26653   0.24935   0.00000  Uiso   1.00
C106   C     0.77886   0.16414   0.40310   0.00000  Uiso   1.00
C107   C     0.86065   0.32216   0.24378   0.00000  Uiso   1.00
C108   C     0.79929   0.16242   0.34709   0.00000  Uiso   1.00
C109   C     0.81137   0.01087   0.24644   0.00000  Uiso   1.00
C110   C     0.81884   0.06669   0.24753   0.00000  Uiso   1.00
C111   C     0.86706   0.16906   0.15291   0.00000  Uiso   1.00
C112   C     0.93606   0.11744   0.02473   0.00000  Uiso   1.00
C113   C     0.88543   0.16320   0.09730   0.00000  Uiso   1.00
C114   C     0.73199   0.19193   0.42368   0.00000  Uiso   1.00
C115   C     0.72268   0.20760   0.47476   0.00000  Uiso   1.00
C116   C     0.80798   0.16795   0.48671   0.00000  Uiso   1.00
C117   C     0.76084   0.19700   0.00575   0.00000  Uiso   1.00
C118   C     0.80125   0.03575   0.38770   0.00000  Uiso   1.00
C119   C     0.95323   0.01538   0.18720   0.00000  Uiso   1.00
C120   C     0.81348   0.14784   0.43556   0.00000  Uiso   1.00
C121   C     0.84963   0.15806   0.01672   0.00000  Uiso   1.00
C122   C     0.89450   0.12735   0.49578   0.00000  Uiso   1.00
C123   C     0.89526   0.10429   0.44731   0.00000  Uiso   1.00
C124   C     0.85303   0.11169   0.41849   0.00000  Uiso   1.00
C125   C     0.84729   0.17666   0.06746   0.00000  Uiso   1.00
C126   C     0.93155   0.13529   0.07535   0.00000  Uiso   1.00
Cu127  Cu    0.77377   0.16105   0.24436   0.00000  Uiso   1.00
Cu128  Cu    0.89290   0.17228   0.25565   0.00000  Uiso   1.00
H129   H     0.96109   0.12429   0.09818   0.00000  Uiso   1.00
H130   H     0.76383   0.32066   0.24949   0.00000  Uiso   1.00
H131   H     0.75426   0.04583   0.40035   0.00000  Uiso   1.00
H132   H     0.81087   0.01302   0.41775   0.00000  Uiso   1.00
H133   H     0.79970   0.00977   0.35338   0.00000  Uiso   1.00
H134   H     0.93127   0.03429   0.16193   0.00000  Uiso   1.00
H135   H     0.95432   0.30756   0.17402   0.00000  Uiso   1.00
H136   H     0.66946   0.03712   0.18348   0.00000  Uiso   1.00
H137   H     0.66996   0.20512   0.29024   0.00000  Uiso   1.00
H138   H     0.99683   0.12867   0.20946   0.00000  Uiso   1.00
H139   H     0.92686   0.07823   0.43245   0.00000  Uiso   1.00
H140   H     0.97047   0.09410   0.00881   0.00000  Uiso   1.00
H141   H     0.81400   0.19960   0.08609   0.00000  Uiso   1.00
H142   H     0.70480   0.20420   0.39953   0.00000  Uiso   1.00
H143   H     0.75152   0.21187   0.04449   0.00000  Uiso   1.00
H144   H     0.68691   0.22976   0.49011   0.00000  Uiso   1.00
N145   N     0.98241   0.18074   0.26416   0.00000  Uiso   1.00
N146   N     0.68426   0.15259   0.23584   0.00000  Uiso   1.00
O147   O     0.79464   0.23807   0.24633   0.00000  Uiso   1.00
O148   O     0.92190   0.01798   0.23890   0.00000  Uiso   1.00
O149   O     0.89524   0.24755   0.25587   0.00000  Uiso   1.00
O150   O     0.75848   0.15960   0.31840   0.00000  Uiso   1.00
O151   O     0.85908   0.16908   0.32793   0.00000  Uiso   1.00
O152   O     0.77142   0.08578   0.24414   0.00000  Uiso   1.00
O153   O     0.87203   0.09526   0.25367   0.00000  Uiso   1.00
O154   O     0.80758   0.16425   0.17207   0.00000  Uiso   1.00
O155   O     0.90819   0.17373   0.18161   0.00000  Uiso   1.00
O156   O     0.84908   0.08119   0.37460   0.00000  Uiso   1.00
C157   C     0.18256   0.59986   0.24935   0.00000  Uiso   1.00
C158   C     0.11220   0.49748   0.40310   0.00000  Uiso   1.00
C159   C     0.19398   0.65549   0.24378   0.00000  Uiso   1.00
C160   C     0.13262   0.49575   0.34709   0.00000  Uiso   1.00
C161   C     0.14470   0.34420   0.24644   0.00000  Uiso   1.00
C162   C     0.15218   0.40002   0.24753   0.00000  Uiso   1.00
C163   C     0.20039   0.50240   0.15291   0.00000  Uiso   1.00
C164   C     0.26939   0.45077   0.02473   0.00000  Uiso   1.00
C165   C     0.21876   0.49653   0.09730   0.00000  Uiso   1.00
C166   C     0.06533   0.52526   0.42368   0.00000  Uiso   1.00
C167   C     0.05601   0.54093   0.47476   0.00000  Uiso   1.00
C168   C     0.14132   0.50129   0.48671   0.00000  Uiso   1.00
C169   C     0.09417   0.53033   0.00575   0.00000  Uiso   1.00
C170   C     0.13458   0.36908   0.38770   0.00000  Uiso   1.00
C171   C     0.28656   0.34871   0.18720   0.00000  Uiso   1.00
C172   C     0.14681   0.48118   0.43556   0.00000  Uiso   1.00
C173   C     0.18297   0.49140   0.01672   0.00000  Uiso   1.00
C174   C     0.22783   0.46068   0.49578   0.00000  Uiso   1.00
C175   C     0.22859   0.43762   0.44731   0.00000  Uiso   1.00
C176   C     0.18636   0.44503   0.41849   0.00000  Uiso   1.00
C177   C     0.18062   0.50999   0.06746   0.00000  Uiso   1.00
C178   C     0.26489   0.46862   0.07535   0.00000  Uiso   1.00
Cu179  Cu    0.10710   0.49439   0.24436   0.00000  Uiso   1.00
Cu180  Cu    0.22623   0.50561   0.25565   0.00000  Uiso   1.00
H181   H     0.29442   0.45762   0.09818   0.00000  Uiso   1.00
H182   H     0.09717   0.65400   0.24949   0.00000  Uiso   1.00
H183   H     0.08759   0.37917   0.40035   0.00000  Uiso   1.00
H184   H     0.14420   0.34636   0.41775   0.00000  Uiso   1.00
H185   H     0.13303   0.34310   0.35338   0.00000  Uiso   1.00
H186   H     0.26460   0.36763   0.16193   0.00000  Uiso   1.00
H187   H     0.28766   0.64090   0.17402   0.00000  Uiso   1.00
H188   H     0.00280   0.37045   0.18348   0.00000  Uiso   1.00
H189   H     0.00330   0.53845   0.29024   0.00000  Uiso   1.00
H190   H     0.33016   0.46200   0.20946   0.00000  Uiso   1.00
H191   H     0.26019   0.41156   0.43245   0.00000  Uiso   1.00
H192   H     0.30380   0.42744   0.00881   0.00000  Uiso   1.00
H193   H     0.14733   0.53293   0.08609   0.00000  Uiso   1.00
H194   H     0.03813   0.53753   0.39953   0.00000  Uiso   1.00
H195   H     0.08485   0.54520   0.04449   0.00000  Uiso   1.00
H196   H     0.02025   0.56309   0.49011   0.00000  Uiso   1.00
N197   N     0.31574   0.51407   0.26416   0.00000  Uiso   1.00
N198   N     0.01759   0.48593   0.23584   0.00000  Uiso   1.00
O199   O     0.12797   0.57141   0.24633   0.00000  Uiso   1.00
O200   O     0.25524   0.35132   0.23890   0.00000  Uiso   1.00
O201   O     0.22858   0.58089   0.25587   0.00000  Uiso   1.00
O202   O     0.09181   0.49293   0.31840   0.00000  Uiso   1.00
O203   O     0.19242   0.50241   0.32793   0.00000  Uiso   1.00
O204   O     0.10476   0.41911   0.24414   0.00000  Uiso   1.00
O205   O     0.20536   0.42859   0.25367   0.00000  Uiso   1.00
O206   O     0.14092   0.49759   0.17207   0.00000  Uiso   1.00
O207   O     0.24152   0.50707   0.18161   0.00000  Uiso   1.00
O208   O     0.18242   0.41452   0.37460   0.00000  Uiso   1.00
C209   C     0.51590   0.59986   0.24935   0.00000  Uiso   1.00
C210   C     0.44553   0.49748   0.40310   0.00000  Uiso   1.00
C211   C     0.52732   0.65549   0.24378   0.00000  Uiso   1.00
C212   C     0.46596   0.49575   0.34709   0.00000  Uiso   1.00
C213   C     0.47804   0.34420   0.24644   0.00000  Uiso   1.00
C214   C     0.48551   0.40002   0.24753   0.00000  Uiso   1.00
C215   C     0.53372   0.50240   0.15291   0.00000  Uiso   1.00
C216   C     0.60272   0.45077   0.02473   0.00000  Uiso   1.00
C217   C     0.55210   0.49653   0.09730   0.00000  Uiso   1.00
C218   C     0.39866   0.52526   0.42368   0.00000  Uiso   1.00
C219   C     0.38934   0.54093   0.47476   0.00000  Uiso   1.00
C220   C     0.47465   0.50129   0.48671   0.00000  Uiso   1.00
C221   C     0.42750   0.53033   0.00575   0.00000  Uiso   1.00
C222   C     0.46791   0.36908   0.38770   0.00000  Uiso   1.00
C223   C     0.61990   0.34871   0.18720   0.00000  Uiso   1.00
C224   C     0.48015   0.48118   0.43556   0.00000  Uiso   1.00
C225   C     0.51630   0.49140   0.01672   0.00000  Uiso   1.00
C226   C     0.56117   0.46068   0.49578   0.00000  Uiso   1.00
C227   C     0.56193   0.43762   0.44731   0.00000  Uiso   1.00
C228   C     0.51969   0.44503   0.41849   0.00000  Uiso   1.00
C229   C     0.51395   0.50999   0.06746   0.00000  Uiso   1.00
C230   C     0.59822   0.46862   0.07535   0.00000  Uiso   1.00
Cu231  Cu    0.44043   0.49439   0.24436   0.00000  Uiso   1.00
Cu232  Cu    0.55957   0.50561   0.25565   0.00000  Uiso   1.00
H233   H     0.62776   0.45762   0.09818   0.00000  Uiso   1.00
H234   H     0.43050   0.65400   0.24949   0.00000  Uiso   1.00
H235   H     0.42093   0.37917   0.40035   0.00000  Uiso   1.00
H236   H     0.47754   0.34636   0.41775   0.00000  Uiso   1.00
H237   H     0.46637   0.34310   0.35338   0.00000  Uiso   1.00
H238   H     0.59793   0.36763   0.16193   0.00000  Uiso   1.00
H239   H     0.62099   0.64090   0.17402   0.00000  Uiso   1.00
H240   H     0.33613   0.37045   0.18348   0.00000  Uiso   1.00
H241   H     0.33663   0.53845   0.29024   0.00000  Uiso   1.00
H242   H     0.66349   0.46200   0.20946   0.00000  Uiso   1.00
H243   H     0.59353   0.41156   0.43245   0.00000  Uiso   1.00
H244   H     0.63713   0.42744   0.00881   0.00000  Uiso   1.00
H245   H     0.48067   0.53293   0.08609   0.00000  Uiso   1.00
H246   H     0.37146   0.53753   0.39953   0.00000  Uiso   1.00
H247   H     0.41818   0.54520   0.04449   0.00000  Uiso   1.00
H248   H     0.35358   0.56309   0.49011   0.00000  Uiso   1.00
N249   N     0.64908   0.51407   0.26416   0.00000  Uiso   1.00
N250   N     0.35092   0.48593   0.23584   0.00000  Uiso   1.00
O251   O     0.46131   0.57141   0.24633   0.00000  Uiso   1.00
O252   O     0.58857   0.35132   0.23890   0.00000  Uiso   1.00
O253   O     0.56191   0.58089   0.25587   0.00000  Uiso   1.00
O254   O     0.42515   0.49293   0.31840   0.00000  Uiso   1.00
O255   O     0.52575   0.50241   0.32793   0.00000  Uiso   1.00
O256   O     0.43809   0.41911   0.24414   0.00000  Uiso   1.00
O257   O     0.53869   0.42859   0.25367   0.00000  Uiso   1.00
O258   O     0.47425   0.49759   0.17207   0.00000  Uiso   1.00
O259   O     0.57485   0.50707   0.18161   0.00000  Uiso   1.00
O260   O     0.51575   0.41452   0.37460   0.00000  Uiso   1.00
C261   C     0.84923   0.59986   0.24935   0.00000  Uiso   1.00
C262   C     0.77886   0.49748   0.40310   0.00000  Uiso   1.00
C263   C     0.86065   0.65549   0.24378   0.00000  Uiso   1.00
C264   C     0.79929   0.49575   0.34709   0.00000  Uiso   1.00
C265   C     0.81137   0.34420   0.24644   0.00000  Uiso   1.00
C266   C     0.81884   0.40002   0.24753   0.00000  Uiso   1.00
C267   C     0.86706   0.50240   0.15291   0.00000  Uiso   1.00
C268   C     0.93606   0.45077   0.02473   0.00000  Uiso   1.00
C269   C     0.88543   0.49653   0.09730   0.00000  Uiso   1.00
C270   C     0.73199   0.52526   0.42368   0.00000  Uiso   1.00
C271   C     0.72268   0.54093   0.47476   0.00000  Uiso   1.00
C272   C     0.80798   0.50129   0.48671   0.00000  Uiso   1.00
C273   C     0.76084   0.53033   0.00575   0.00000  Uiso   1.00
C274   C     0.80125   0.36908   0.38770   0.00000  Uiso   1.00
C275   C     0.95323   0.34871   0.18720   0.00000  Uiso   1.00
C276   C     0.81348   0.48118   0.43556   0.00000  Uiso   1.00
C277   C     0.84963   0.49140   0.01672   0.00000  Uiso   1.00
C278   C     0.89450   0.46068   0.49578   0.00000  Uiso   1.00
C279   C     0.89526   0.43762   0.44731   0.00000  Uiso   1.00
C280   C     0.85303   0.44503   0.41849   0.00000  Uiso   1.00
C281   C     0.84729   0.50999   0.06746   0.00000  Uiso   1.00
C282   C     0.93155   0.46862   0.07535   0.00000  Uiso   1.00
Cu283  Cu    0.77377   0.49439   0.24436   0.00000  Uiso   1.00
Cu284  Cu    0.89290   0.50561   0.25565   0.00000  Uiso   1.00
H285   H     0.96109   0.45762   0.09818   0.00000  Uiso   1.00
H286   H     0.76383   0.65400   0.24949   0.00000  Uiso   1.00
H287   H     0.75426   0.37917   0.40035   0.00000  Uiso   1.00
H288   H     0.81087   0.34636   0.41775   0.00000  Uiso   1.00
H289   H     0.79970   0.34310   0.35338   0.00000  Uiso   1.00
H290   H     0.93127   0.36763   0.16193   0.00000  Uiso   1.00
H291   H     0.95432   0.64090   0.17402   0.00000  Uiso   1.00
H292   H     0.66946   0.37045   0.18348   0.00000  Uiso   1.00
H293   H     0.66996   0.53845   0.29024   0.00000  Uiso   1.00
H294   H     0.99683   0.46200   0.20946   0.00000  Uiso   1.00
H295   H     0.92686   0.41156   0.43245   0.00000  Uiso   1.00
H296   H     0.97047   0.42744   0.00881   0.00000  Uiso   1.00
H297   H     0.81400   0.53293   0.08609   0.00000  Uiso   1.00
H298   H     0.70480   0.53753   0.39953   0.00000  Uiso   1.00
H299   H     0.75152   0.54520   0.04449   0.00000  Uiso   1.00
H300   H     0.68691   0.56309   0.49011   0.00000  Uiso   1.00
N301   N     0.98241   0.51407   0.26416   0.00000  Uiso   1.00
N302   N     0.68426   0.48593   0.23584   0.00000  Uiso   1.00
O303   O     0.79464   0.57141   0.24633   0.00000  Uiso   1.00
O304   O     0.92190   0.35132   0.23890   0.00000  Uiso   1.00
O305   O     0.89524   0.58089   0.25587   0.00000  Uiso   1.00
O306   O     0.75848   0.49293   0.31840   0.00000  Uiso   1.00
O307   O     0.85908   0.50241   0.32793   0.00000  Uiso   1.00
O308   O     0.77142   0.41911   0.24414   0.00000  Uiso   1.00
O309   O     0.87203   0.42859   0.25367   0.00000  Uiso   1.00
O310   O     0.80758   0.49759   0.17207   0.00000  Uiso   1.00
O311   O     0.90819   0.50707   0.18161   0.00000  Uiso   1.00
O312   O     0.84908   0.41452   0.37460   0.00000  Uiso   1.00
C313   C     0.18256   0.93320   0.24935   0.00000  Uiso   1.00
C314   C     0.11220   0.83081   0.40310   0.00000  Uiso   1.00
C315   C     0.19398   0.98883   0.24378   0.00000  Uiso   1.00
C316   C     0.13262   0.82908   0.34709   0.00000  Uiso   1.00
C317   C     0.14470   0.67753   0.24644   0.00000  Uiso   1.00
C318   C     0.15218   0.73335   0.24753   0.00000  Uiso   1.00
C319   C     0.20039   0.83573   0.15291   0.00000  Uiso   1.00
C320   C     0.26939   0.78410   0.02473   0.00000  Uiso   1.00
C321   C     0.21876   0.82986   0.09730   0.00000  Uiso   1.00
C322   C     0.06533   0.85860   0.42368   0.00000  Uiso   1.00
C323   C     0.05601   0.87427   0.47476   0.00000  Uiso   1.00
C324   C     0.14132   0.83462   0.48671   0.00000  Uiso   1.00
C325   C     0.09417   0.86366   0.00575   0.00000  Uiso   1.00
C326   C     0.13458   0.70242   0.38770   0.00000  Uiso   1.00
C327   C     0.28656   0.68204   0.18720   0.00000  Uiso   1.00
C328   C     0.14681   0.81451   0.43556   0.00000  Uiso   1.00
C329   C     0.18297   0.82473   0.01672   0.00000  Uiso   1.00
C330   C     0.22783   0.79401   0.49578   0.00000  Uiso   1.00
C331   C     0.22859   0.77096   0.44731   0.00000  Uiso   1.00
C332   C     0.18636   0.77836   0.41849   0.00000  Uiso   1.00
C333   C     0.18062   0.84333   0.06746   0.00000  Uiso   1.00
C334   C     0.26489   0.80196   0.07535   0.00000  Uiso   1.00
Cu335  Cu    0.10710   0.82772   0.24436   0.00000  Uiso   1.00
Cu336  Cu    0.22623   0.83895   0.25565   0.00000  Uiso   1.00
H337   H     0.29442   0.79096   0.09818   0.00000  Uiso   1.00
H338   H     0.09717   0.98733   0.24949   0.00000  Uiso   1.00
H339   H     0.08759   0.71250   0.40035   0.00000  Uiso   1.00
H340   H     0.14420   0.67969   0.41775   0.00000  Uiso   1.00
H341   H     0.13303   0.67644   0.35338   0.00000  Uiso   1.00
H342   H     0.26460   0.70096   0.16193   0.00000  Uiso   1.00
H343   H     0.28766   0.97423   0.17402   0.00000  Uiso   1.00
H344   H     0.00280   0.70379   0.18348   0.00000  Uiso   1.00
H345   H     0.00330   0.87179   0.29024   0.00000  Uiso   1.00
H346   H     0.33016   0.79534   0.20946   0.00000  Uiso   1.00
H347   H     0.26019   0.74489   0.43245   0.00000  Uiso   1.00
H348   H     0.30380   0.76077   0.00881   0.00000  Uiso   1.00
H349   H     0.14733   0.86626   0.08609   0.00000  Uiso   1.00
H350   H     0.03813   0.87086   0.39953   0.00000  Uiso   1.00
H351   H     0.08485   0.87854   0.04449   0.00000  Uiso   1.00
H352   H     0.02025   0.89642   0.49011   0.00000  Uiso   1.00
N353   N     0.31574   0.84741   0.26416   0.00000  Uiso   1.00
N354   N     0.01759   0.81926   0.23584   0.00000  Uiso   1.00
O355   O     0.12797   0.90474   0.24633   0.00000  Uiso   1.00
O356   O     0.25524   0.68465   0.23890   0.00000  Uiso   1.00
O357   O     0.22858   0.91422   0.25587   0.00000  Uiso   1.00
O358   O     0.09181   0.82627   0.31840   0.00000  Uiso   1.00
O359   O     0.19242   0.83575   0.32793   0.00000  Uiso   1.00
O360   O     0.10476   0.75245   0.24414   0.00000  Uiso   1.00
O361   O     0.20536   0.76193   0.25367   0.00000  Uiso   1.00
O362   O     0.14092   0.83092   0.17207   0.00000  Uiso   1.00
O363   O     0.24152   0.84040   0.18161   0.00000  Uiso   1.00
O364   O     0.18242   0.74785   0.37460   0.00000  Uiso   1.00
C365   C     0.51590   0.93320   0.24935   0.00000  Uiso   1.00
C366   C     0.44553   0.83081   0.40310   0.00000  Uiso   1.00
C367   C     0.52732   0.98883   0.24378   0.00000  Uiso   1.00
C368   C     0.46596   0.82908   0.34709   0.00000  Uiso   1.00
C369   C     0.47804   0.67753   0.24644   0.00000  Uiso   1.00
C370   C     0.48551   0.73335   0.24753   0.00000  Uiso   1.00
C371   C     0.53372   0.83573   0.15291   0.00000  Uiso   1.00
C372   C     0.60272   0.78410   0.02473   0.00000  Uiso   1.00
C373   C     0.55210   0.82986   0.09730   0.00000  Uiso   1.00
C374   C     0.39866   0.85860   0.42368   0.00000  Uiso   1.00
C375   C     0.38934   0.87427   0.47476   0.00000  Uiso   1.00
C376   C     0.47465   0.83462   0.48671   0.00000  Uiso   1.00
C377   C     0.42750   0.86366   0.00575   0.00000  Uiso   1.00
C378   C     0.46791   0.70242   0.38770   0.00000  Uiso   1.00
C379   C     0.61990   0.68204   0.18720   0.00000  Uiso   1.00
C380   C     0.48015   0.81451   0.43556   0.00000  Uiso   1.00
C381   C     0.51630   0.82473   0.01672   0.00000  Uiso   1.00
C382   C     0.56117   0.79401   0.49578   0.00000  Uiso   1.00
C383   C     0.56193   0.77096   0.44731   0.00000  Uiso   1.00
C384   C     0.51969   0.77836   0.41849   0.00000  Uiso   1.00
C385   C     0.51395   0.84333   0.06746   0.00000  Uiso   1.00
C386   C     0.59822   0.80196   0.07535   0.00000  Uiso   1.00
Cu387  Cu    0.44043   0.82772   0.24436   0.00000  Uiso   1.00
Cu388  Cu    0.55957   0.83895   0.25565   0.00000  Uiso   1.00
H389   H     0.62776   0.79096   0.09818   0.00000  Uiso   1.00
H390   H     0.43050   0.98733   0.24949   0.00000  Uiso   1.00
H391   H     0.42093   0.71250   0.40035   0.00000  Uiso   1.00
H392   H     0.47754   0.67969   0.41775   0.00000  Uiso   1.00
H393   H     0.46637   0.67644   0.35338   0.00000  Uiso   1.00
H394   H     0.59793   0.70096   0.16193   0.00000  Uiso   1.00
H395   H     0.62099   0.97423   0.17402   0.00000  Uiso   1.00
H396   H     0.33613   0.70379   0.18348   0.00000  Uiso   1.00
H397   H     0.33663   0.87179   0.29024   0.00000  Uiso   1.00
H398   H     0.66349   0.79534   0.20946   0.00000  Uiso   1.00
H399   H     0.59353   0.74489   0.43245   0.00000  Uiso   1.00
H400   H     0.63713   0.76077   0.00881   0.00000  Uiso   1.00
H401   H     0.48067   0.86626   0.08609   0.00000  Uiso   1.00
H402   H     0.37146   0.87086   0.39953   0.00000  Uiso   1.00
H403   H     0.41818   0.87854   0.04449   0.00000  Uiso   1.00
H404   H     0.35358   0.89642   0.49011   0.00000  Uiso   1.00
N405   N     0.64908   0.84741   0.26416   0.00000  Uiso   1.00
N406   N     0.35092   0.81926   0.23584   0.00000  Uiso   1.00
O407   O     0.46131   0.90474   0.24633   0.00000  Uiso   1.00
O408   O     0.58857   0.68465   0.23890   0.00000  Uiso   1.00
O409   O     0.56191   0.91422   0.25587   0.00000  Uiso   1.00
O410   O     0.42515   0.82627   0.31840   0.00000  Uiso   1.00
O411   O     0.52575   0.83575   0.32793   0.00000  Uiso   1.00
O412   O     0.43809   0.75245   0.24414   0.00000  Uiso   1.00
O413   O     0.53869   0.76193   0.25367   0.00000  Uiso   1.00
O414   O     0.47425   0.83092   0.17207   0.00000  Uiso   1.00
O415   O     0.57485   0.84040   0.18161   0.00000  Uiso   1.00
O416   O     0.51575   0.74785   0.37460   0.00000  Uiso   1.00
C417   C     0.84923   0.93320   0.24935   0.00000  Uiso   1.00
C418   C     0.77886   0.83081   0.40310   0.00000  Uiso   1.00
C419   C     0.86065   0.98883   0.24378   0.00000  Uiso   1.00
C420   C     0.79929   0.82908   0.34709   0.00000  Uiso   1.00
C421   C     0.81137   0.67753   0.24644   0.00000  Uiso   1.00
C422   C     0.81884   0.73335   0.24753   0.00000  Uiso   1.00
C423   C     0.86706   0.83573   0.15291   0.00000  Uiso   1.00
C424   C     0.93606   0.78410   0.02473   0.00000  Uiso   1.00
C425   C     0.88543   0.82986   0.09730   0.00000  Uiso   1.00
C426   C     0.73199   0.85860   0.42368   0.00000  Uiso   1.00
C427   C     0.72268   0.87427   0.47476   0.00000  Uiso   1.00
C428   C     0.80798   0.83462   0.48671   0.00000  Uiso   1.00
C429   C     0.76084   0.86366   0.00575   0.00000  Uiso   1.00
C430   C     0.80125   0.70242   0.38770   0.00000  Uiso   1.00
C431   C     0.95323   0.68204   0.18720   0.00000  Uiso   1.00
C432   C     0.81348   0.81451   0.43556   0.00000  Uiso   1.00
C433   C     0.84963   0.82473   0.01672   0.00000  Uiso   1.00
C434   C     0.89450   0.79401   0.49578   0.00000  Uiso   1.00
C435   C     0.89526   0.77096   0.44731   0.00000  Uiso   1.00
C436   C     0.85303   0.77836   0.41849   0.00000  Uiso   1.00
C437   C     0.84729   0.84333   0.06746   0.00000  Uiso   1.00
C438   C     0.93155   0.80196   0.07535   0.00000  Uiso   1.00
Cu439  Cu    0.77377   0.82772   0.24436   0.00000  Uiso   1.00
Cu440  Cu    0.89290   0.83895   0.25565   0.00000  Uiso   1.00
H441   H     0.96109   0.79096   0.09818   0.00000  Uiso   1.00
H442   H     0.76383   0.98733   0.24949   0.00000  Uiso   1.00
H443   H     0.75426   0.71250   0.40035   0.00000  Uiso   1.00
H444   H     0.81087   0.67969   0.41775   0.00000  Uiso   1.00
H445   H     0.79970   0.67644   0.35338   0.00000  Uiso   1.00
H446   H     0.93127   0.70096   0.16193   0.00000  Uiso   1.00
H447   H     0.95432   0.97423   0.17402   0.00000  Uiso   1.00
H448   H     0.66946   0.70379   0.18348   0.00000  Uiso   1.00
H449   H     0.66996   0.87179   0.29024   0.00000  Uiso   1.00
H450   H     0.99683   0.79534   0.20946   0.00000  Uiso   1.00
H451   H     0.92686   0.74489   0.43245   0.00000  Uiso   1.00
H452   H     0.97047   0.76077   0.00881   0.00000  Uiso   1.00
H453   H     0.81400   0.86626   0.08609   0.00000  Uiso   1.00
H454   H     0.70480   0.87086   0.39953   0.00000  Uiso   1.00
H455   H     0.75152   0.87854   0.04449   0.00000  Uiso   1.00
H456   H     0.68691   0.89642   0.49011   0.00000  Uiso   1.00
N457   N     0.98241   0.84741   0.26416   0.00000  Uiso   1.00
N458   N     0.68426   0.81926   0.23584   0.00000  Uiso   1.00
O459   O     0.79464   0.90474   0.24633   0.00000  Uiso   1.00
O460   O     0.92190   0.68465   0.23890   0.00000  Uiso   1.00
O461   O     0.89524   0.91422   0.25587   0.00000  Uiso   1.00
O462   O     0.75848   0.82627   0.31840   0.00000  Uiso   1.00
O463   O     0.85908   0.83575   0.32793   0.00000  Uiso   1.00
O464   O     0.77142   0.75245   0.24414   0.00000  Uiso   1.00
O465   O     0.87203   0.76193   0.25367   0.00000  Uiso   1.00
O466   O     0.80758   0.83092   0.17207   0.00000  Uiso   1.00
O467   O     0.90819   0.84040   0.18161   0.00000  Uiso   1.00
O468   O     0.84908   0.74785   0.37460   0.00000  Uiso   1.00
C469   C     0.18256   0.26653   0.74935   0.00000  Uiso   1.00
C470   C     0.11220   0.16414   0.90310   0.00000  Uiso   1.00
C471   C     0.19398   0.32216   0.74378   0.00000  Uiso   1.00
C472   C     0.13262   0.16242   0.84709   0.00000  Uiso   1.00
C473   C     0.14470   0.01087   0.74644   0.00000  Uiso   1.00
C474   C     0.15218   0.06669   0.74753   0.00000  Uiso   1.00
C475   C     0.20039   0.16906   0.65291   0.00000  Uiso   1.00
C476   C     0.26939   0.11744   0.52473   0.00000  Uiso   1.00
C477   C     0.21876   0.16320   0.59730   0.00000  Uiso   1.00
C478   C     0.06533   0.19193   0.92368   0.00000  Uiso   1.00
C479   C     0.05601   0.20760   0.97476   0.00000  Uiso   1.00
C480   C     0.14132   0.16795   0.98671   0.00000  Uiso   1.00
C481   C     0.09417   0.19700   0.50575   0.00000  Uiso   1.00
C482   C     0.13458   0.03575   0.88770   0.00000  Uiso   1.00
C483   C     0.28656   0.01538   0.68720   0.00000  Uiso   1.00
C484   C     0.14681   0.14784   0.93556   0.00000  Uiso   1.00
C485   C     0.18297   0.15806   0.51672   0.00000  Uiso   1.00
C486   C     0.22783   0.12735   0.99578   0.00000  Uiso   1.00
C487   C     0.22859   0.10429   0.94731   0.00000  Uiso   1.00
C488   C     0.18636   0.11169   0.91849   0.00000  Uiso   1.00
C489   C     0.18062   0.17666   0.56746   0.00000  Uiso   1.00
C490   C     0.26489   0.13529   0.57535   0.00000  Uiso   1.00
Cu491  Cu    0.10710   0.16105   0.74436   0.00000  Uiso   1.00
Cu492  Cu    0.22623   0.17228   0.75565   0.00000  Uiso   1.00
H493   H     0.29442   0.12429   0.59818   0.00000  Uiso   1.00
H494   H     0.09717   0.32066   0.74949   0.00000  Uiso   1.00
H495   H     0.08759   0.04583   0.90035   0.00000  Uiso   1.00
H496   H     0.14420   0.01302   0.91775   0.00000  Uiso   1.00
H497   H     0.13303   0.00977   0.85338   0.00000  Uiso   1.00
H498   H     0.26460   0.03429   0.66193   0.00000  Uiso   1.00
H499   H     0.28766   0.30756   0.67402   0.00000  Uiso   1.00
H500   H     0.00280   0.03712   0.68348   0.00000  Uiso   1.00
H501   H     0.00330   0.20512   0.79024   0.00000  Uiso   1.00
H502   H     0.33016   0.12867   0.70946   0.00000  Uiso   1.00
H503   H     0.26019   0.07823   0.93245   0.00000  Uiso   1.00
H504   H     0.30380   0.09410   0.50881   0.00000  Uiso   1.00
H505   H     0.14733   0.19960   0.58609   0.00000  Uiso   1.00
H506   H     0.03813   0.20420   0.89953   0.00000  Uiso   1.00
H507   H     0.08485   0.21187   0.54449   0.00000  Uiso   1.00
H508   H     0.02025   0.22976   0.99011   0.00000  Uiso   1.00
N509   N     0.31574   0.18074   0.76416   0.00000  Uiso   1.00
N510   N     0.01759   0.15259   0.73584   0.00000  Uiso   1.00
O511   O     0.12797   0.23807   0.74633   0.00000  Uiso   1.00
O512   O     0.25524   0.01798   0.73890   0.00000  Uiso   1.00
O513   O     0.22858   0.24755   0.75587   0.00000  Uiso   1.00
O514   O     0.09181   0.15960   0.81840   0.00000  Uiso   1.00
O515   O     0.19242   0.16908   0.82793   0.00000  Uiso   1.00
O516   O     0.10476   0.08578   0.74414   0.00000  Uiso   1.00
O517   O     0.20536   0.09526   0.75367   0.00000  Uiso   1.00
O518   O     0.14092   0.16425   0.67207   0.00000  Uiso   1.00
O519   O     0.24152   0.17373   0.68161   0.00000  Uiso   1.00
O520   O     0.18242   0.08119   0.87460   0.00000  Uiso   1.00
C521   C     0.51590   0.26653   0.74935   0.00000  Uiso   1.00
C522   C     0.44553   0.16414   0.90310   0.00000  Uiso   1.00
C523   C     0.52732   0.32216   0.74378   0.00000  Uiso   1.00
C524   C     0.46596   0.16242   0.84709   0.00000  Uiso   1.00
C525   C     0.47804   0.01087   0.74644   0.00000  Uiso   1.00
C526   C     0.48551   0.06669   0.74753   0.00000  Uiso   1.00
C527   C     0.53372   0.16906   0.65291   0.00000  Uiso   1.00
C528   C     0.60272   0.11744   0.52473   0.00000  Uiso   1.00
C529   C     0.55210   0.16320   0.59730   0.00000  Uiso   1.00
C530   C     0.39866   0.19193   0.92368   0.00000  Uiso   1.00
C531   C     0.38934   0.20760   0.97476   0.00000  Uiso   1.00
C532   C     0.47465   0.16795   0.98671   0.00000  Uiso   1.00
C533   C     0.42750   0.19700   0.50575   0.00000  Uiso   1.00
C534   C     0.46791   0.03575   0.88770   0.00000  Uiso   1.00
C535   C     0.61990   0.01538   0.68720   0.00000  Uiso   1.00
C536   C     0.48015   0.14784   0.93556   0.00000  Uiso   1.00
C537   C     0.51630   0.15806   0.51672   0.00000  Uiso   1.00
C538   C     0.56117   0.12735   0.99578   0.00000  Uiso   1.00
C539   C     0.56193   0.10429   0.94731   0.00000  Uiso   1.00
C540   C     0.51969   0.11169   0.91849   0.00000  Uiso   1.00
C541   C     0.51395   0.17666   0.56746   0.00000  Uiso   1.00
C542   C     0.59822   0.13529   0.57535   0.00000  Uiso   1.00
Cu543  Cu    0.44043   0.16105   0.74436   0.00000  Uiso   1.00
Cu544  Cu    0.55957   0.17228   0.75565   0.00000  Uiso   1.00
H545   H     0.62776   0.12429   0.59818   0.00000  Uiso   1.00
H546   H     0.43050   0.32066   0.74949   0.00000  Uiso   1.00
H547   H     0.42093   0.04583   0.90035   0.00000  Uiso   1.00
H548   H     0.47754   0.01302   0.91775   0.00000  Uiso   1.00
H549   H     0.46637   0.00977   0.85338   0.00000  Uiso   1.00
H550   H     0.59793   0.03429   0.66193   0.00000  Uiso   1.00
H551   H     0.62099   0.30756   0.67402   0.00000  Uiso   1.00
H552   H     0.33613   0.03712   0.68348   0.00000  Uiso   1.00
H553   H     0.33663   0.20512   0.79024   0.00000  Uiso   1.00
H554   H     0.66349   0.12867   0.70946   0.00000  Uiso   1.00
H555   H     0.59353   0.07823   0.93245   0.00000  Uiso   1.00
H556   H     0.63713   0.09410   0.50881   0.00000  Uiso   1.00
H557   H     0.48067   0.19960   0.58609   0.00000  Uiso   1.00
H558   H     0.37146   0.20420   0.89953   0.00000  Uiso   1.00
H559   H     0.41818   0.21187   0.54449   0.00000  Uiso   1.00
H560   H     0.35358   0.22976   0.99011   0.00000  Uiso   1.00
N561   N     0.64908   0.18074   0.76416   0.00000  Uiso   1.00
N562   N     0.35092   0.15259   0.73584   0.00000  Uiso   1.00
O563   O     0.46131   0.23807   0.74633   0.00000  Uiso   1.00
O564   O     0.58857   0.01798   0.73890   0.00000  Uiso   1.00
O565   O     0.56191   0.24755   0.75587   0.00000  Uiso   1.00
O566   O     0.42515   0.15960   0.81840   0.00000  Uiso   1.00
O567   O     0.52575   0.16908   0.82793   0.00000  Uiso   1.00
O568   O     0.43809   0.08578   0.74414   0.00000  Uiso   1.00
O569   O     0.53869   0.09526   0.75367   0.00000  Uiso   1.00
O570   O     0.47425   0.16425   0.67207   0.00000  Uiso   1.00
O571   O     0.57485   0.17373   0.68161   0.00000  Uiso   1.00
O572   O     0.51575   0.08119   0.87460   0.00000  Uiso   1.00
C573   C     0.84923   0.26653   0.74935   0.00000  Uiso   1.00
C574   C     0.77886   0.16414   0.90310   0.00000  Uiso   1.00
C575   C     0.86065   0.32216   0.74378   0.00000  Uiso   1.00
C576   C     0.79929   0.16242   0.84709   0.00000  Uiso   1.00
C577   C     0.81137   0.01087   0.74644   0.00000  Uiso   1.00
C578   C     0.81884   0.06669   0.74753   0.00000  Uiso   1.00
C579   C     0.86706   0.16906   0.65291   0.00000  Uiso   1.00
C580   C     0.93606   0.11744   0.52473   0.00000  Uiso   1.00
C581   C     0.88543   0.16320   0.59730   0.00000  Uiso   1.00
C582   C     0.73199   0.19193   0.92368   0.00000  Uiso   1.00
C583   C     0.72268   0.20760   0.97476   0.00000  Uiso   1.00
C584   C     0.80798   0.16795   0.98671   0.00000  Uiso   1.00
C585   C     0.76084   0.19700   0.50575   0.00000  Uiso   1.00
C586   C     0.80125   0.03575   0.88770   0.00000  Uiso   1.00
C587   C     0.95323   0.01538   0.68720   0.00000  Uiso   1.00
C588   C     0.81348   0.14784   0.93556   0.00000  Uiso   1.00
C589   C     0.84963   0.15806   0.51672   0.00000  Uiso   1.00
C590   C     0.89450   0.12735   0.99578   0.00000  Uiso   1.00
C591   C     0.89526   0.10429   0.94731   0.00000  Uiso   1.00
C592   C     0.85303   0.11169   0.91849   0.00000  Uiso   1.00
C593   C     0.84729   0.17666   0.56746   0.00000  Uiso   1.00
C594   C     0.93155   0.13529   0.57535   0.00000  Uiso   1.00
Cu595  Cu    0.77377   0.16105   0.74436   0.00000  Uiso   1.00
Cu596  Cu    0.89290   0.17228   0.75565   0.00000  Uiso   1.00
H597   H     0.96109   0.12429   0.59818   0.00000  Uiso   1.00
H598   H     0.76383   0.32066   0.74949   0.00000  Uiso   1.00
H599   H     0.75426   0.04583   0.90035   0.00000  Uiso   1.00
H600   H     0.81087   0.01302   0.91775   0.00000  Uiso   1.00
H601   H     0.79970   0.00977   0.85338   0.00000  Uiso   1.00
H602   H     0.93127   0.03429   0.66193   0.00000  Uiso   1.00
H603   H     0.95432   0.30756   0.67402   0.00000  Uiso   1.00
H604   H     0.66946   0.03712   0.68348   0.00000  Uiso   1.00
H605   H     0.66996   0.20512   0.79024   0.00000  Uiso   1.00
H606   H     0.99683   0.12867   0.70946   0.00000  Uiso   1.00
H607   H     0.92686   0.07823   0.93245   0.00000  Uiso   1.00
H608   H     0.97047   0.09410   0.50881   0.00000  Uiso   1.00
H609   H     0.81400   0.19960   0.58609   0.00000  Uiso   1.00
H610   H     0.70480   0.20420   0.89953   0.00000  Uiso   1.00
H611   H     0.75152   0.21187   0.54449   0.00000  Uiso   1.00
H612   H     0.68691   0.22976   0.99011   0.00000  Uiso   1.00
N613   N     0.98241   0.18074   0.76416   0.00000  Uiso   1.00
N614   N     0.68426   0.15259   0.73584   0.00000  Uiso   1.00
O615   O     0.79464   0.23807   0.74633   0.00000  Uiso   1.00
O616   O     0.92190   0.01798   0.73890   0.00000  Uiso   1.00
O617   O     0.89524   0.24755   0.75587   0.00000  Uiso   1.00
O618   O     0.75848   0.15960   0.81840   0.00000  Uiso   1.00
O619   O     0.85908   0.16908   0.82793   0.00000  Uiso   1.00
O620   O     0.77142   0.08578   0.74414   0.00000  Uiso   1.00
O621   O     0.87203   0.09526   0.75367   0.00000  Uiso   1.00
O622   O     0.80758   0.16425   0.67207   0.00000  Uiso   1.00
O623   O     0.90819   0.17373   0.68161   0.00000  Uiso   1.00
O624   O     0.84908   0.08119   0.87460   0.00000  Uiso   1.00
C625   C     0.18256   0.59986   0.74935   0.00000  Uiso   1.00
C626   C     0.11220   0.49748   0.90310   0.00000  Uiso   1.00
C627   C     0.19398   0.65549   0.74378   0.00000  Uiso   1.00
C628   C     0.13262   0.49575   0.84709   0.00000  Uiso   1.00
C629   C     0.14470   0.34420   0.74644   0.00000  Uiso   1.00
C630   C     0.15218   0.40002   0.74753   0.00000  Uiso   1.00
C631   C     0.20039   0.50240   0.65291   0.00000  Uiso   1.00
C632   C     0.26939   0.45077   0.52473   0.00000  Uiso   1.00
C633   C     0.21876   0.49653   0.59730   0.00000  Uiso   1.00
C634   C     0.06533   0.52526   0.92368   0.00000  Uiso   1.00
C635   C     0.05601   0.54093   0.97476   0.00000  Uiso   1.00
C636   C     0.14132   0.50129   0.98671   0.00000  Uiso   1.00
C637   C     0.09417   0.53033   0.50575   0.00000  Uiso   1.00
C638   C     0.13458   0.36908   0.88770   0.00000  Uiso   1.00
C639   C     0.28656   0.34871   0.68720   0.00000  Uiso   1.00
C640   C     0.14681   0.48118   0.93556   0.00000  Uiso   1.00
C641   C     0.18297   0.49140   0.51672   0.00000  Uiso   1.00
C642   C     0.22783   0.46068   0.99578   0.00000  Uiso   1.00
C643   C     0.22859   0.43762   0.94731   0.00000  Uiso   1.00
C644   C     0.18636   0.44503   0.91849   0.00000  Uiso   1.00
C645   C     0.18062   0.50999   0.56746   0.00000  Uiso   1.00
C646   C     0.26489   0.46862   0.57535   0.00000  Uiso   1.00
Cu647  Cu    0.10710   0.49439   0.74436   0.00000  Uiso   1.00
Cu648  Cu    0.22623   0.50561   0.75565   0.00000  Uiso   1.00
H649   H     0.29442   0.45762   0.59818   0.00000  Uiso   1.00
H650   H     0.09717   0.65400   0.74949   0.00000  Uiso   1.00
H651   H     0.08759   0.37917   0.90035   0.00000  Uiso   1.00
H652   H     0.14420   0.34636   0.91775   0.00000  Uiso   1.00
H653   H     0.13303   0.34310   0.85338   0.00000  Uiso   1.00
H654   H     0.26460   0.36763   0.66193   0.00000  Uiso   1.00
H655   H     0.28766   0.64090   0.67402   0.00000  Uiso   1.00
H656   H     0.00280   0.37045   0.68348   0.00000  Uiso   1.00
H657   H     0.00330   0.53845   0.79024   0.00000  Uiso   1.00
H658   H     0.33016   0.46200   0.70946   0.00000  Uiso   1.00
H659   H     0.26019   0.41156   0.93245   0.00000  Uiso   1.00
H660   H     0.30380   0.42744   0.50881   0.00000  Uiso   1.00
H661   H     0.14733   0.53293   0.58609   0.00000  Uiso   1.00
H662   H     0.03813   0.53753   0.89953   0.00000  Uiso   1.00
H663   H     0.08485   0.54520   0.54449   0.00000  Uiso   1.00
H664   H     0.02025   0.56309   0.99011   0.00000  Uiso   1.00
N665   N     0.31574   0.51407   0.76416   0.00000  Uiso   1.00
N666   N     0.01759   0.48593   0.73584   0.00000  Uiso   1.00
O667   O     0.12797   0.57141   0.74633   0.00000  Uiso   1.00
O668   O     0.25524   0.35132   0.73890   0.00000  Uiso   1.00
O669   O     0.22858   0.58089   0.75587   0.00000  Uiso   1.00
O670   O     0.09181   0.49293   0.81840   0.00000  Uiso   1.00
O671   O     0.19242   0.50241   0.82793   0.00000  Uiso   1.00
O672   O     0.10476   0.41911   0.74414   0.00000  Uiso   1.00
O673   O     0.20536   0.42859   0.75367   0.00000  Uiso   1.00
O674   O     0.14092   0.49759   0.67207   0.00000  Uiso   1.00
O675   O     0.24152   0.50707   0.68161   0.00000  Uiso   1.00
O676   O     0.18242   0.41452   0.87460   0.00000  Uiso   1.00
C677   C     0.51590   0.59986   0.74935   0.00000  Uiso   1.00
C678   C     0.44553   0.49748   0.90310   0.00000  Uiso   1.00
C679   C     0.52732   0.65549   0.74378   0.00000  Uiso   1.00
C680   C     0.46596   0.49575   0.84709   0.00000  Uiso   1.00
C681   C     0.47804   0.34420   0.74644   0.00000  Uiso   1.00
C682   C     0.48551   0.40002   0.74753   0.00000  Uiso   1.00
C683   C     0.53372   0.50240   0.65291   0.00000  Uiso   1.00
C684   C     0.60272   0.45077   0.52473   0.00000  Uiso   1.00
C685   C     0.55210   0.49653   0.59730   0.00000  Uiso   1.00
C686   C     0.39866   0.52526   0.92368   0.00000  Uiso   1.00
C687   C     0.38934   0.54093   0.97476   0.00000  Uiso   1.00
C688   C     0.47465   0.50129   0.98671   0.00000  Uiso   1.00
C689   C     0.42750   0.53033   0.50575   0.00000  Uiso   1.00
C690   C     0.46791   0.36908   0.88770   0.00000  Uiso   1.00
C691   C     0.61990   0.34871   0.68720   0.00000  Uiso   1.00
C692   C     0.48015   0.48118   0.93556   0.00000  Uiso   1.00
C693   C     0.51630   0.49140   0.51672   0.00000  Uiso   1.00
C694   C     0.56117   0.46068   0.99578   0.00000  Uiso   1.00
C695   C     0.56193   0.43762   0.94731   0.00000  Uiso   1.00
C696   C     0.51969   0.44503   0.91849   0.00000  Uiso   1.00
C697   C     0.51395   0.50999   0.56746   0.00000  Uiso   1.00
C698   C     0.59822   0.46862   0.57535   0.00000  Uiso   1.00
Cu699  Cu    0.44043   0.49439   0.74436   0.00000  Uiso   1.00
Cu700  Cu    0.55957   0.50561   0.75565   0.00000  Uiso   1.00
H701   H     0.62776   0.45762   0.59818   0.00000  Uiso   1.00
H702   H     0.43050   0.65400   0.74949   0.00000  Uiso   1.00
H703   H     0.42093   0.37917   0.90035   0.00000  Uiso   1.00
H704   H     0.47754   0.34636   0.91775   0.00000  Uiso   1.00
H705   H     0.46637   0.34310   0.85338   0.00000  Uiso   1.00
H706   H     0.59793   0.36763   0.66193   0.00000  Uiso   1.00
H707   H     0.62099   0.64090   0.67402   0.00000  Uiso   1.00
H708   H     0.33613   0.37045   0.68348   0.00000  Uiso   1.00
H709   H     0.33663   0.53845   0.79024   0.00000  Uiso   1.00
H710   H     0.66349   0.46200   0.70946   0.00000  Uiso   1.00
H711   H     0.59353   0.41156   0.93245   0.00000  Uiso   1.00
H712   H     0.63713   0.42744   0.50881   0.00000  Uiso   1.00
H713   H     0.48067   0.53293   0.58609   0.00000  Uiso   1.00
H714   H     0.37146   0.53753   0.89953   0.00000  Uiso   1.00
H715   H     0.41818   0.54520   0.54449   0.00000  Uiso   1.00
H716   H     0.35358   0.56309   0.99011   0.00000  Uiso   1.00
N717   N     0.64908   0.51407   0.76416   0.00000  Uiso   1.00
N718   N     0.35092   0.48593   0.73584   0.00000  Uiso   1.00
O719   O     0.46131   0.57141   0.74633   0.00000  Uiso   1.00
O720   O     0.58857   0.35132   0.73890   0.00000  Uiso   1.00
O721   O     0.56191   0.58089   0.75587   0.00000  Uiso   1.00
O722   O     0.42515   0.49293   0.81840   0.00000  Uiso   1.00
O723   O     0.52575   0.50241   0.82793   0.00000  Uiso   1.00
O724   O     0.43809   0.41911   0.74414   0.00000  Uiso   1.00
O725   O     0.53869   0.42859   0.75367   0.00000  Uiso   1.00
O726   O     0.47425   0.49759   0.67207   0.00000  Uiso   1.00
O727   O     0.57485   0.50707   0.68161   0.00000  Uiso   1.00
O728   O     0.51575   0.41452   0.87460   0.00000  Uiso   1.00
C729   C     0.84923   0.59986   0.74935   0.00000  Uiso   1.00
C730   C     0.77886   0.49748   0.90310   0.00000  Uiso   1.00
C731   C     0.86065   0.65549   0.74378   0.00000  Uiso   1.00
C732   C     0.79929   0.49575   0.84709   0.00000  Uiso   1.00
C733   C     0.81137   0.34420   0.74644   0.00000  Uiso   1.00
C734   C     0.81884   0.40002   0.74753   0.00000  Uiso   1.00
C735   C     0.86706   0.50240   0.65291   0.00000  Uiso   1.00
C736   C     0.93606   0.45077   0.52473   0.00000  Uiso   1.00
C737   C     0.88543   0.49653   0.59730   0.00000  Uiso   1.00
C738   C     0.73199   0.52526   0.92368   0.00000  Uiso   1.00
C739   C     0.72268   0.54093   0.97476   0.00000  Uiso   1.00
C740   C     0.80798   0.50129   0.98671   0.00000  Uiso   1.00
C741   C     0.76084   0.53033   0.50575   0.00000  Uiso   1.00
C742   C     0.80125   0.36908   0.88770   0.00000  Uiso   1.00
C743   C     0.95323   0.34871   0.68720   0.00000  Uiso   1.00
C744   C     0.81348   0.48118   0.93556   0.00000  Uiso   1.00
C745   C     0.84963   0.49140   0.51672   0.00000  Uiso   1.00
C746   C     0.89450   0.46068   0.99578   0.00000  Uiso   1.00
C747   C     0.89526   0.43762   0.94731   0.00000  Uiso   1.00
C748   C     0.85303   0.44503   0.91849   0.00000  Uiso   1.00
C749   C     0.84729   0.50999   0.56746   0.00000  Uiso   1.00
C750   C     0.93155   0.46862   0.57535   0.00000  Uiso   1.00
Cu751  Cu    0.77377   0.49439   0.74436   0.00000  Uiso   1.00
Cu752  Cu    0.89290   0.50561   0.75565   0.00000  Uiso   1.00
H753   H     0.96109   0.45762   0.59818   0.00000  Uiso   1.00
H754   H     0.76383   0.65400   0.74949   0.00000  Uiso   1.00
H755   H     0.75426   0.37917   0.90035   0.00000  Uiso   1.00
H756   H     0.81087   0.34636   0.91775   0.00000  Uiso   1.00
H757   H     0.79970   0.34310   0.85338   0.00000  Uiso   1.00
H758   H     0.93127   0.36763   0.66193   0.00000  Uiso   1.00
H759   H     0.95432   0.64090   0.67402   0.00000  Uiso   1.00
H760   H     0.66946   0.37045   0.68348   0.00000  Uiso   1.00
H761   H     0.66996   0.53845   0.79024   0.00000  Uiso   1.00
H762   H     0.99683   0.46200   0.70946   0.00000  Uiso   1.00
H763   H     0.92686   0.41156   0.93245   0.00000  Uiso   1.00
H764   H     0.97047   0.42744   0.50881   0.00000  Uiso   1.00
H765   H     0.81400   0.53293   0.58609   0.00000  Uiso   1.00
H766   H     0.70480   0.53753   0.89953   0.00000  Uiso   1.00
H767   H     0.75152   0.54520   0.54449   0.00000  Uiso   1.00
H768   H     0.68691   0.56309   0.99011   0.00000  Uiso   1.00
N769   N     0.98241   0.51407   0.76416   0.00000  Uiso   1.00
N770   N     0.68426   0.48593   0.73584   0.00000  Uiso   1.00
O771   O     0.79464   0.57141   0.74633   0.00000  Uiso   1.00
O772   O     0.92190   0.35132   0.73890   0.00000  Uiso   1.00
O773   O     0.89524   0.58089   0.75587   0.00000  Uiso   1.00
O774   O     0.75848   0.49293   0.81840   0.00000  Uiso   1.00
O775   O     0.85908   0.50241   0.82793   0.00000  Uiso   1.00
O776   O     0.77142   0.41911   0.74414   0.00000  Uiso   1.00
O777   O     0.87203   0.42859   0.75367   0.00000  Uiso   1.00
O778   O     0.80758   0.49759   0.67207   0.00000  Uiso   1.00
O779   O     0.90819   0.50707   0.68161   0.00000  Uiso   1.00
O780   O     0.84908   0.41452   0.87460   0.00000  Uiso   1.00
C781   C     0.18256   0.93320   0.74935   0.00000  Uiso   1.00
C782   C     0.11220   0.83081   0.90310   0.00000  Uiso   1.00
C783   C     0.19398   0.98883   0.74378   0.00000  Uiso   1.00
C784   C     0.13262   0.82908   0.84709   0.00000  Uiso   1.00
C785   C     0.14470   0.67753   0.74644   0.00000  Uiso   1.00
C786   C     0.15218   0.73335   0.74753   0.00000  Uiso   1.00
C787   C     0.20039   0.83573   0.65291   0.00000  Uiso   1.00
C788   C     0.26939   0.78410   0.52473   0.00000  Uiso   1.00
C789   C     0.21876   0.82986   0.59730   0.00000  Uiso   1.00
C790   C     0.06533   0.85860   0.92368   0.00000  Uiso   1.00
C791   C     0.05601   0.87427   0.97476   0.00000  Uiso   1.00
C792   C     0.14132   0.83462   0.98671   0.00000  Uiso   1.00
C793   C     0.09417   0.86366   0.50575   0.00000  Uiso   1.00
C794   C     0.13458   0.70242   0.88770   0.00000  Uiso   1.00
C795   C     0.28656   0.68204   0.68720   0.00000  Uiso   1.00
C796   C     0.14681   0.81451   0.93556   0.00000  Uiso   1.00
C797   C     0.18297   0.82473   0.51672   0.00000  Uiso   1.00
C798   C     0.22783   0.79401   0.99578   0.00000  Uiso   1.00
C799   C     0.22859   0.77096   0.94731   0.00000  Uiso   1.00
C800   C     0.18636   0.77836   0.91849   0.00000  Uiso   1.00
C801   C     0.18062   0.84333   0.56746   0.00000  Uiso   1.00
C802   C     0.26489   0.80196   0.57535   0.00000  Uiso   1.00
Cu803  Cu    0.10710   0.82772   0.74436   0.00000  Uiso   1.00
Cu804  Cu    0.22623   0.83895   0.75565   0.00000  Uiso   1.00
H805   H     0.29442   0.79096   0.59818   0.00000  Uiso   1.00
H806   H     0.09717   0.98733   0.74949   0.00000  Uiso   1.00
H807   H     0.08759   0.71250   0.90035   0.00000  Uiso   1.00
H808   H     0.14420   0.67969   0.91775   0.00000  Uiso   1.00
H809   H     0.13303   0.67644   0.85338   0.00000  Uiso   1.00
H810   H     0.26460   0.70096   0.66193   0.00000  Uiso   1.00
H811   H     0.28766   0.97423   0.67402   0.00000  Uiso   1.00
H812   H     0.00280   0.70379   0.68348   0.00000  Uiso   1.00
H813   H     0.00330   0.87179   0.79024   0.00000  Uiso   1.00
H814   H     0.33016   0.79534   0.70946   0.00000  Uiso   1.00
H815   H     0.26019   0.74489   0.93245   0.00000  Uiso   1.00
H816   H     0.30380   0.76077   0.50881   0.00000  Uiso   1.00
H817   H     0.14733   0.86626   0.58609   0.00000  Uiso   1.00
H818   H     0.03813   0.87086   0.89953   0.00000  Uiso   1.00
H819   H     0.08485   0.87854   0.54449   0.00000  Uiso   1.00
H820   H     0.02025   0.89642   0.99011   0.00000  Uiso   1.00
N821   N     0.31574   0.84741   0.76416   0.00000  Uiso   1.00
N822   N     0.01759   0.81926   0.73584   0.00000  Uiso   1.00
O823   O     0.12797   0.90474   0.74633   0.00000  Uiso   1.00
O824   O     0.25524   0.68465   0.73890   0.00000  Uiso   1.00
O825   O     0.22858   0.91422   0.75587   0.00000  Uiso   1.00
O826   O     0.09181   0.82627   0.81840   0.00000  Uiso   1.00
O827   O     0.19242   0.83575   0.82793   0.00000  Uiso   1.00
O828   O     0.10476   0.75245   0.74414   0.00000  Uiso   1.00
O829   O     0.20536   0.76193   0.75367   0.00000  Uiso   1.00
O830   O     0.14092   0.83092   0.67207   0.00000  Uiso   1.00
O831   O     0.24152   0.84040   0.68161   0.00000  Uiso   1.00
O832   O     0.18242   0.74785   0.87460   0.00000  Uiso   1.00
C833   C     0.51590   0.93320   0.74935   0.00000  Uiso   1.00
C834   C     0.44553   0.83081   0.90310   0.00000  Uiso   1.00
C835   C     0.52732   0.98883   0.74378   0.00000  Uiso   1.00
C836   C     0.46596   0.82908   0.84709   0.00000  Uiso   1.00
C837   C     0.47804   0.67753   0.74644   0.00000  Uiso   1.00
C838   C     0.48551   0.73335   0.74753   0.00000  Uiso   1.00
C839   C     0.53372   0.83573   0.65291   0.00000  Uiso   1.00
C840   C     0.60272   0.78410   0.52473   0.00000  Uiso   1.00
C841   C     0.55210   0.82986   0.59730   0.00000  Uiso   1.00
C842   C     0.39866   0.85860   0.92368   0.00000  Uiso   1.00
C843   C     0.38934   0.87427   0.97476   0.00000  Uiso   1.00
C844   C     0.47465   0.83462   0.98671   0.00000  Uiso   1.00
C845   C     0.42750   0.86366   0.50575   0.00000  Uiso   1.00
C846   C     0.46791   0.70242   0.88770   0.00000  Uiso   1.00
C847   C     0.61990   0.68204   0.68720   0.00000  Uiso   1.00
C848   C     0.48015   0.81451   0.93556   0.00000  Uiso   1.00
C849   C     0.51630   0.82473   0.51672   0.00000  Uiso   1.00
C850   C     0.56117   0.79401   0.99578   0.00000  Uiso   1.00
C851   C     0.56193   0.77096   0.94731   0.00000  Uiso   1.00
C852   C     0.51969   0.77836   0.91849   0.00000  Uiso   1.00
C853   C     0.51395   0.84333   0.56746   0.00000  Uiso   1.00
C854   C     0.59822   0.80196   0.57535   0.00000  Uiso   1.00
Cu855  Cu    0.44043   0.82772   0.74436   0.00000  Uiso   1.00
Cu856  Cu    0.55957   0.83895   0.75565   0.00000  Uiso   1.00
H857   H     0.62776   0.79096   0.59818   0.00000  Uiso   1.00
H858   H     0.43050   0.98733   0.74949   0.00000  Uiso   1.00
H859   H     0.42093   0.71250   0.90035   0.00000  Uiso   1.00
H860   H     0.47754   0.67969   0.91775   0.00000  Uiso   1.00
H861   H     0.46637   0.67644   0.85338   0.00000  Uiso   1.00
H862   H     0.59793   0.70096   0.66193   0.00000  Uiso   1.00
H863   H     0.62099   0.97423   0.67402   0.00000  Uiso   1.00
H864   H     0.33613   0.70379   0.68348   0.00000  Uiso   1.00
H865   H     0.33663   0.87179   0.79024   0.00000  Uiso   1.00
H866   H     0.66349   0.79534   0.70946   0.00000  Uiso   1.00
H867   H     0.59353   0.74489   0.93245   0.00000  Uiso   1.00
H868   H     0.63713   0.76077   0.50881   0.00000  Uiso   1.00
H869   H     0.48067   0.86626   0.58609   0.00000  Uiso   1.00
H870   H     0.37146   0.87086   0.89953   0.00000  Uiso   1.00
H871   H     0.41818   0.87854   0.54449   0.00000  Uiso   1.00
H872   H     0.35358   0.89642   0.99011   0.00000  Uiso   1.00
N873   N     0.64908   0.84741   0.76416   0.00000  Uiso   1.00
N874   N     0.35092   0.81926   0.73584   0.00000  Uiso   1.00
O875   O     0.46131   0.90474   0.74633   0.00000  Uiso   1.00
O876   O     0.58857   0.68465   0.73890   0.00000  Uiso   1.00
O877   O     0.56191   0.91422   0.75587   0.00000  Uiso   1.00
O878   O     0.42515   0.82627   0.81840   0.00000  Uiso   1.00
O879   O     0.52575   0.83575   0.82793   0.00000  Uiso   1.00
O880   O     0.43809   0.75245   0.74414   0.00000  Uiso   1.00
O881   O     0.53869   0.76193   0.75367   0.00000  Uiso   1.00
O882   O     0.47425   0.83092   0.67207   0.00000  Uiso   1.00
O883   O     0.57485   0.84040   0.68161   0.00000  Uiso   1.00
O884   O     0.51575   0.74785   0.87460   0.00000  Uiso   1.00
C885   C     0.84923   0.93320   0.74935   0.00000  Uiso   1.00
C886   C     0.77886   0.83081   0.90310   0.00000  Uiso   1.00
C887   C     0.86065   0.98883   0.74378   0.00000  Uiso   1.00
C888   C     0.79929   0.82908   0.84709   0.00000  Uiso   1.00
C889   C     0.81137   0.67753   0.74644   0.00000  Uiso   1.00
C890   C     0.81884   0.73335   0.74753   0.00000  Uiso   1.00
C891   C     0.86706   0.83573   0.65291   0.00000  Uiso   1.00
C892   C     0.93606   0.78410   0.52473   0.00000  Uiso   1.00
C893   C     0.88543   0.82986   0.59730   0.00000  Uiso   1.00
C894   C     0.73199   0.85860   0.92368   0.00000  Uiso   1.00
C895   C     0.72268   0.87427   0.97476   0.00000  Uiso   1.00
C896   C     0.80798   0.83462   0.98671   0.00000  Uiso   1.00
C897   C     0.76084   0.86366   0.50575   0.00000  Uiso   1.00
C898   C     0.80125   0.70242   0.88770   0.00000  Uiso   1.00
C899   C     0.95323   0.68204   0.68720   0.00000  Uiso   1.00
C900   C     0.81348   0.81451   0.93556   0.00000  Uiso   1.00
C901   C     0.84963   0.82473   0.51672   0.00000  Uiso   1.00
C902   C     0.89450   0.79401   0.99578   0.00000  Uiso   1.00
C903   C     0.89526   0.77096   0.94731   0.00000  Uiso   1.00
C904   C     0.85303   0.77836   0.91849   0.00000  Uiso   1.00
C905   C     0.84729   0.84333   0.56746   0.00000  Uiso   1.00
C906   C     0.93155   0.80196   0.57535   0.00000  Uiso   1.00
Cu907  Cu    0.77377   0.82772   0.74436   0.00000  Uiso   1.00
Cu908  Cu    0.89290   0.83895   0.75565   0.00000  Uiso   1.00
H909   H     0.96109   0.79096   0.59818   0.00000  Uiso   1.00
H910   H     0.76383   0.98733   0.74949   0.00000  Uiso   1.00
H911   H     0.75426   0.71250   0.90035   0.00000  Uiso   1.00
H912   H     0.81087   0.67969   0.91775   0.00000  Uiso   1.00
H913   H     0.79970   0.67644   0.85338   0.00000  Uiso   1.00
H914   H     0.93127   0.70096   0.66193   0.00000  Uiso   1.00
H915   H     0.95432   0.97423   0.67402   0.00000  Uiso   1.00
H916   H     0.66946   0.70379   0.68348   0.00000  Uiso   1.00
H917   H     0.66996   0.87179   0.79024   0.00000  Uiso   1.00
H918   H     0.99683   0.79534   0.70946   0.00000  Uiso   1.00
H919   H     0.92686   0.74489   0.93245   0.00000  Uiso   1.00
H920   H     0.97047   0.76077   0.50881   0.00000  Uiso   1.00
H921   H     0.81400   0.86626   0.58609   0.00000  Uiso   1.00
H922   H     0.70480   0.87086   0.89953   0.00000  Uiso   1.00
H923   H     0.75152   0.87854   0.54449   0.00000  Uiso   1.00
H924   H     0.68691   0.89642   0.99011   0.00000  Uiso   1.00
N925   N     0.98241   0.84741   0.76416   0.00000  Uiso   1.00
N926   N     0.68426   0.81926   0.73584   0.00000  Uiso   1.00
O927   O     0.79464   0.90474   0.74633   0.00000  Uiso   1.00
O928   O     0.92190   0.68465   0.73890   0.00000  Uiso   1.00
O929   O     0.89524   0.91422   0.75587   0.00000  Uiso   1.00
O930   O     0.75848   0.82627   0.81840   0.00000  Uiso   1.00
O931   O     0.85908   0.83575   0.82793   0.00000  Uiso   1.00
O932   O     0.77142   0.75245   0.74414   0.00000  Uiso   1.00
O933   O     0.87203   0.76193   0.75367   0.00000  Uiso   1.00
O934   O     0.80758   0.83092   0.67207   0.00000  Uiso   1.00
O935   O     0.90819   0.84040   0.68161   0.00000  Uiso   1.00
O936   O     0.84908   0.74785   0.87460   0.00000  Uiso   1.00
loop_
_geom_bond_atom_site_label_1
_geom_bond_atom_site_label_2
_geom_bond_distance
_geom_bond_site_symmetry_2
_ccdc_geom_bond_type
C1     O45     1.283   .     A
C1     O43     1.291   .     A
C1     C3      1.430   .     S
C2     C16     1.422   .     A
C2     C4      1.469   .     S
C2     C10     1.400   .     A
C3     C161    1.338   .     S
C3     O200    1.389   .     S
C4     O46     1.300   .     A
C4     O47     1.295   .     A
C5     C6      1.430   .     S
C5     C315    1.338   1_545 S
C5     H338    1.088   1_545 S
C6     O48     1.289   .     A
C6     O49     1.288   .     A
C7     O51     1.300   .     A
C7     C9      1.461   .     S
C7     O50     1.293   .     A
C8     C22     1.393   .     A
C8     H36     1.084   .     S
C8     C486    1.405   1_554 S
C9     C22     1.397   .     A
C9     C21     1.398   .     A
C10    H38     1.084   .     S
C10    C11     1.385   .     A
C11    H40     1.083   .     S
C11    C481    1.390   .     S
C12    C16     1.423   .     A
C12    C481    1.419   .     S
C12    C485    1.427   .     S
C13    H39     1.076   .     S
C13    C480    1.419   1_554 S
C13    C479    1.390   1_554 S
C14    H27     1.113   .     S
C14    O52     1.411   .     S
C14    H29     1.107   .     S
C14    H28     1.114   .     S
C15    O44     1.411   .     S
C15    H30     1.113   .     S
C15    H343    1.113   1_545 S
C15    H84     1.109   .     S
C16    C20     1.421   .     A
C17    C21     1.405   .     A
C17    C480    1.427   1_554 S
C17    C486    1.420   1_554 S
C18    C19     1.391   .     A
C18    C476    1.405   .     S
C18    C485    1.420   .     S
C19    C20     1.392   .     A
C19    H35     1.085   .     S
C20    O52     1.382   .     S
C21    H37     1.076   .     S
C22    H25     1.083   .     S
Cu23   Cu24    2.687   .     S
Cu23   O46     1.937   .     S
Cu23   N42     2.019   .     S
Cu23   O43     1.961   .     S
Cu23   O50     1.916   .     S
Cu23   O48     1.956   .     S
Cu24   O51     1.937   .     S
Cu24   N41     2.019   .     S
Cu24   O45     1.956   .     S
Cu24   O49     1.961   .     S
Cu24   O47     1.916   .     S
H26    C161    1.088   .     S
H31    C171    1.113   .     S
H32    C119    1.109   1_455 S
H33    N145    1.029   1_455 S
H34    N94     1.028   .     S
N41    H85     1.029   .     S
N41    N94     1.287   .     S
N42    N145    1.287   1_455 S
N42    H138    1.028   1_455 S
O44    C315    1.389   1_545 S
C53    O97     1.283   .     A
C53    O95     1.291   .     A
C53    C55     1.430   .     S
C54    C68     1.422   .     A
C54    C56     1.469   .     S
C54    C62     1.400   .     A
C55    C213    1.338   .     S
C55    O252    1.389   .     S
C56    O98     1.300   .     A
C56    O99     1.295   .     A
C57    C58     1.430   .     S
C57    C367    1.338   1_545 S
C57    H390    1.088   1_545 S
C58    O100    1.289   .     A
C58    O101    1.288   .     A
C59    O103    1.300   .     A
C59    C61     1.461   .     S
C59    O102    1.293   .     A
C60    C74     1.393   .     A
C60    H88     1.084   .     S
C60    C538    1.405   1_554 S
C61    C74     1.397   .     A
C61    C73     1.398   .     A
C62    H90     1.084   .     S
C62    C63     1.385   .     A
C63    H92     1.083   .     S
C63    C533    1.390   .     S
C64    C68     1.423   .     A
C64    C533    1.419   .     S
C64    C537    1.427   .     S
C65    H91     1.076   .     S
C65    C532    1.419   1_554 S
C65    C531    1.390   1_554 S
C66    H79     1.113   .     S
C66    O104    1.411   .     S
C66    H81     1.107   .     S
C66    H80     1.114   .     S
C67    O96     1.411   .     S
C67    H82     1.113   .     S
C67    H395    1.113   1_545 S
C67    H136    1.109   .     S
C68    C72     1.421   .     A
C69    C73     1.405   .     A
C69    C532    1.427   1_554 S
C69    C538    1.420   1_554 S
C70    C71     1.391   .     A
C70    C528    1.405   .     S
C70    C537    1.420   .     S
C71    C72     1.392   .     A
C71    H87     1.085   .     S
C72    O104    1.382   .     S
C73    H89     1.076   .     S
C74    H77     1.083   .     S
Cu75   Cu76    2.687   .     S
Cu75   O98     1.937   .     S
Cu75   N94     2.019   .     S
Cu75   O95     1.961   .     S
Cu75   O102    1.916   .     S
Cu75   O100    1.956   .     S
Cu76   O103    1.937   .     S
Cu76   N93     2.019   .     S
Cu76   O97     1.956   .     S
Cu76   O101    1.961   .     S
Cu76   O99     1.916   .     S
H78    C213    1.088   .     S
H83    C223    1.113   .     S
H86    N146    1.028   .     S
N93    H137    1.029   .     S
N93    N146    1.287   .     S
O96    C367    1.389   1_545 S
C105   O149    1.283   .     A
C105   O147    1.291   .     A
C105   C107    1.430   .     S
C106   C120    1.422   .     A
C106   C108    1.469   .     S
C106   C114    1.400   .     A
C107   C265    1.338   .     S
C107   O304    1.389   .     S
C108   O150    1.300   .     A
C108   O151    1.295   .     A
C109   C110    1.430   .     S
C109   C419    1.338   1_545 S
C109   H442    1.088   1_545 S
C110   O152    1.289   .     A
C110   O153    1.288   .     A
C111   O155    1.300   .     A
C111   C113    1.461   .     S
C111   O154    1.293   .     A
C112   C126    1.393   .     A
C112   H140    1.084   .     S
C112   C590    1.405   1_554 S
C113   C126    1.397   .     A
C113   C125    1.398   .     A
C114   H142    1.084   .     S
C114   C115    1.385   .     A
C115   H144    1.083   .     S
C115   C585    1.390   .     S
C116   C120    1.423   .     A
C116   C585    1.419   .     S
C116   C589    1.427   .     S
C117   H143    1.076   .     S
C117   C584    1.419   1_554 S
C117   C583    1.390   1_554 S
C118   H131    1.113   .     S
C118   O156    1.411   .     S
C118   H133    1.107   .     S
C118   H132    1.114   .     S
C119   O148    1.411   .     S
C119   H134    1.113   .     S
C119   H447    1.113   1_545 S
C119   H32     1.109   1_655 S
C120   C124    1.421   .     A
C121   C125    1.405   .     A
C121   C584    1.427   1_554 S
C121   C590    1.420   1_554 S
C122   C123    1.391   .     A
C122   C580    1.405   .     S
C122   C589    1.420   .     S
C123   C124    1.392   .     A
C123   H139    1.085   .     S
C124   O156    1.382   .     S
C125   H141    1.076   .     S
C126   H129    1.083   .     S
Cu127  Cu128   2.687   .     S
Cu127  O150    1.937   .     S
Cu127  N146    2.019   .     S
Cu127  O147    1.961   .     S
Cu127  O154    1.916   .     S
Cu127  O152    1.956   .     S
Cu128  O155    1.937   .     S
Cu128  N145    2.019   .     S
Cu128  O149    1.956   .     S
Cu128  O153    1.961   .     S
Cu128  O151    1.916   .     S
H130   C265    1.088   .     S
H135   C275    1.113   .     S
H138   N42     1.028   1_655 S
N145   H33     1.029   1_655 S
N145   N42     1.287   1_655 S
O148   C419    1.389   1_545 S
C157   O201    1.283   .     A
C157   O199    1.291   .     A
C157   C159    1.430   .     S
C158   C172    1.422   .     A
C158   C160    1.469   .     S
C158   C166    1.400   .     A
C159   C317    1.338   .     S
C159   O356    1.389   .     S
C160   O202    1.300   .     A
C160   O203    1.295   .     A
C161   C162    1.430   .     S
C162   O204    1.289   .     A
C162   O205    1.288   .     A
C163   O207    1.300   .     A
C163   C165    1.461   .     S
C163   O206    1.293   .     A
C164   C178    1.393   .     A
C164   H192    1.084   .     S
C164   C642    1.405   1_554 S
C165   C178    1.397   .     A
C165   C177    1.398   .     A
C166   H194    1.084   .     S
C166   C167    1.385   .     A
C167   H196    1.083   .     S
C167   C637    1.390   .     S
C168   C172    1.423   .     A
C168   C637    1.419   .     S
C168   C641    1.427   .     S
C169   H195    1.076   .     S
C169   C636    1.419   1_554 S
C169   C635    1.390   1_554 S
C170   H183    1.113   .     S
C170   O208    1.411   .     S
C170   H185    1.107   .     S
C170   H184    1.114   .     S
C171   O200    1.411   .     S
C171   H186    1.113   .     S
C171   H240    1.109   .     S
C172   C176    1.421   .     A
C173   C177    1.405   .     A
C173   C636    1.427   1_554 S
C173   C642    1.420   1_554 S
C174   C175    1.391   .     A
C174   C632    1.405   .     S
C174   C641    1.420   .     S
C175   C176    1.392   .     A
C175   H191    1.085   .     S
C176   O208    1.382   .     S
C177   H193    1.076   .     S
C178   H181    1.083   .     S
Cu179  Cu180   2.687   .     S
Cu179  O202    1.937   .     S
Cu179  N198    2.019   .     S
Cu179  O199    1.961   .     S
Cu179  O206    1.916   .     S
Cu179  O204    1.956   .     S
Cu180  O207    1.937   .     S
Cu180  N197    2.019   .     S
Cu180  O201    1.956   .     S
Cu180  O205    1.961   .     S
Cu180  O203    1.916   .     S
H182   C317    1.088   .     S
H187   C327    1.113   .     S
H188   C275    1.109   1_455 S
H189   N301    1.029   1_455 S
H190   N250    1.028   .     S
N197   H241    1.029   .     S
N197   N250    1.287   .     S
N198   N301    1.287   1_455 S
N198   H294    1.028   1_455 S
C209   O253    1.283   .     A
C209   O251    1.291   .     A
C209   C211    1.430   .     S
C210   C224    1.422   .     A
C210   C212    1.469   .     S
C210   C218    1.400   .     A
C211   C369    1.338   .     S
C211   O408    1.389   .     S
C212   O254    1.300   .     A
C212   O255    1.295   .     A
C213   C214    1.430   .     S
C214   O256    1.289   .     A
C214   O257    1.288   .     A
C215   O259    1.300   .     A
C215   C217    1.461   .     S
C215   O258    1.293   .     A
C216   C230    1.393   .     A
C216   H244    1.084   .     S
C216   C694    1.405   1_554 S
C217   C230    1.397   .     A
C217   C229    1.398   .     A
C218   H246    1.084   .     S
C218   C219    1.385   .     A
C219   H248    1.083   .     S
C219   C689    1.390   .     S
C220   C224    1.423   .     A
C220   C689    1.419   .     S
C220   C693    1.427   .     S
C221   H247    1.076   .     S
C221   C688    1.419   1_554 S
C221   C687    1.390   1_554 S
C222   H235    1.113   .     S
C222   O260    1.411   .     S
C222   H237    1.107   .     S
C222   H236    1.114   .     S
C223   O252    1.411   .     S
C223   H238    1.113   .     S
C223   H292    1.109   .     S
C224   C228    1.421   .     A
C225   C229    1.405   .     A
C225   C688    1.427   1_554 S
C225   C694    1.420   1_554 S
C226   C227    1.391   .     A
C226   C684    1.405   .     S
C226   C693    1.420   .     S
C227   C228    1.392   .     A
C227   H243    1.085   .     S
C228   O260    1.382   .     S
C229   H245    1.076   .     S
C230   H233    1.083   .     S
Cu231  Cu232   2.687   .     S
Cu231  O254    1.937   .     S
Cu231  N250    2.019   .     S
Cu231  O251    1.961   .     S
Cu231  O258    1.916   .     S
Cu231  O256    1.956   .     S
Cu232  O259    1.937   .     S
Cu232  N249    2.019   .     S
Cu232  O253    1.956   .     S
Cu232  O257    1.961   .     S
Cu232  O255    1.916   .     S
H234   C369    1.088   .     S
H239   C379    1.113   .     S
H242   N302    1.028   .     S
N249   H293    1.029   .     S
N249   N302    1.287   .     S
C261   O305    1.283   .     A
C261   O303    1.291   .     A
C261   C263    1.430   .     S
C262   C276    1.422   .     A
C262   C264    1.469   .     S
C262   C270    1.400   .     A
C263   C421    1.338   .     S
C263   O460    1.389   .     S
C264   O306    1.300   .     A
C264   O307    1.295   .     A
C265   C266    1.430   .     S
C266   O308    1.289   .     A
C266   O309    1.288   .     A
C267   O311    1.300   .     A
C267   C269    1.461   .     S
C267   O310    1.293   .     A
C268   C282    1.393   .     A
C268   H296    1.084   .     S
C268   C746    1.405   1_554 S
C269   C282    1.397   .     A
C269   C281    1.398   .     A
C270   H298    1.084   .     S
C270   C271    1.385   .     A
C271   H300    1.083   .     S
C271   C741    1.390   .     S
C272   C276    1.423   .     A
C272   C741    1.419   .     S
C272   C745    1.427   .     S
C273   H299    1.076   .     S
C273   C740    1.419   1_554 S
C273   C739    1.390   1_554 S
C274   H287    1.113   .     S
C274   O312    1.411   .     S
C274   H289    1.107   .     S
C274   H288    1.114   .     S
C275   O304    1.411   .     S
C275   H290    1.113   .     S
C275   H188    1.109   1_655 S
C276   C280    1.421   .     A
C277   C281    1.405   .     A
C277   C740    1.427   1_554 S
C277   C746    1.420   1_554 S
C278   C279    1.391   .     A
C278   C736    1.405   .     S
C278   C745    1.420   .     S
C279   C280    1.392   .     A
C279   H295    1.085   .     S
C280   O312    1.382   .     S
C281   H297    1.076   .     S
C282   H285    1.083   .     S
Cu283  Cu284   2.687   .     S
Cu283  O306    1.937   .     S
Cu283  N302    2.019   .     S
Cu283  O303    1.961   .     S
Cu283  O310    1.916   .     S
Cu283  O308    1.956   .     S
Cu284  O311    1.937   .     S
Cu284  N301    2.019   .     S
Cu284  O305    1.956   .     S
Cu284  O309    1.961   .     S
Cu284  O307    1.916   .     S
H286   C421    1.088   .     S
H291   C431    1.113   .     S
H294   N198    1.028   1_655 S
N301   H189    1.029   1_655 S
N301   N198    1.287   1_655 S
C313   O357    1.283   .     A
C313   O355    1.291   .     A
C313   C315    1.430   .     S
C314   C328    1.422   .     A
C314   C316    1.469   .     S
C314   C322    1.400   .     A
C315   C5      1.338   1_565 S
C315   O44     1.389   1_565 S
C316   O358    1.300   .     A
C316   O359    1.295   .     A
C317   C318    1.430   .     S
C318   O360    1.289   .     A
C318   O361    1.288   .     A
C319   O363    1.300   .     A
C319   C321    1.461   .     S
C319   O362    1.293   .     A
C320   C334    1.393   .     A
C320   H348    1.084   .     S
C320   C798    1.405   1_554 S
C321   C334    1.397   .     A
C321   C333    1.398   .     A
C322   H350    1.084   .     S
C322   C323    1.385   .     A
C323   H352    1.083   .     S
C323   C793    1.390   .     S
C324   C328    1.423   .     A
C324   C793    1.419   .     S
C324   C797    1.427   .     S
C325   H351    1.076   .     S
C325   C792    1.419   1_554 S
C325   C791    1.390   1_554 S
C326   H339    1.113   .     S
C326   O364    1.411   .     S
C326   H341    1.107   .     S
C326   H340    1.114   .     S
C327   O356    1.411   .     S
C327   H342    1.113   .     S
C327   H396    1.109   .     S
C328   C332    1.421   .     A
C329   C333    1.405   .     A
C329   C792    1.427   1_554 S
C329   C798    1.420   1_554 S
C330   C331    1.391   .     A
C330   C788    1.405   .     S
C330   C797    1.420   .     S
C331   C332    1.392   .     A
C331   H347    1.085   .     S
C332   O364    1.382   .     S
C333   H349    1.076   .     S
C334   H337    1.083   .     S
Cu335  Cu336   2.687   .     S
Cu335  O358    1.937   .     S
Cu335  N354    2.019   .     S
Cu335  O355    1.961   .     S
Cu335  O362    1.916   .     S
Cu335  O360    1.956   .     S
Cu336  O363    1.937   .     S
Cu336  N353    2.019   .     S
Cu336  O357    1.956   .     S
Cu336  O361    1.961   .     S
Cu336  O359    1.916   .     S
H338   C5      1.088   1_565 S
H343   C15     1.113   1_565 S
H344   C431    1.109   1_455 S
H345   N457    1.029   1_455 S
H346   N406    1.028   .     S
N353   H397    1.029   .     S
N353   N406    1.287   .     S
N354   N457    1.287   1_455 S
N354   H450    1.028   1_455 S
C365   O409    1.283   .     A
C365   O407    1.291   .     A
C365   C367    1.430   .     S
C366   C380    1.422   .     A
C366   C368    1.469   .     S
C366   C374    1.400   .     A
C367   C57     1.338   1_565 S
C367   O96     1.389   1_565 S
C368   O410    1.300   .     A
C368   O411    1.295   .     A
C369   C370    1.430   .     S
C370   O412    1.289   .     A
C370   O413    1.288   .     A
C371   O415    1.300   .     A
C371   C373    1.461   .     S
C371   O414    1.293   .     A
C372   C386    1.393   .     A
C372   H400    1.084   .     S
C372   C850    1.405   1_554 S
C373   C386    1.397   .     A
C373   C385    1.398   .     A
C374   H402    1.084   .     S
C374   C375    1.385   .     A
C375   H404    1.083   .     S
C375   C845    1.390   .     S
C376   C380    1.423   .     A
C376   C845    1.419   .     S
C376   C849    1.427   .     S
C377   H403    1.076   .     S
C377   C844    1.419   1_554 S
C377   C843    1.390   1_554 S
C378   H391    1.113   .     S
C378   O416    1.411   .     S
C378   H393    1.107   .     S
C378   H392    1.114   .     S
C379   O408    1.411   .     S
C379   H394    1.113   .     S
C379   H448    1.109   .     S
C380   C384    1.421   .     A
C381   C385    1.405   .     A
C381   C844    1.427   1_554 S
C381   C850    1.420   1_554 S
C382   C383    1.391   .     A
C382   C840    1.405   .     S
C382   C849    1.420   .     S
C383   C384    1.392   .     A
C383   H399    1.085   .     S
C384   O416    1.382   .     S
C385   H401    1.076   .     S
C386   H389    1.083   .     S
Cu387  Cu388   2.687   .     S
Cu387  O410    1.937   .     S
Cu387  N406    2.019   .     S
Cu387  O407    1.961   .     S
Cu387  O414    1.916   .     S
Cu387  O412    1.956   .     S
Cu388  O415    1.937   .     S
Cu388  N405    2.019   .     S
Cu388  O409    1.956   .     S
Cu388  O413    1.961   .     S
Cu388  O411    1.916   .     S
H390   C57     1.088   1_565 S
H395   C67     1.113   1_565 S
H398   N458    1.028   .     S
N405   H449    1.029   .     S
N405   N458    1.287   .     S
C417   O461    1.283   .     A
C417   O459    1.291   .     A
C417   C419    1.430   .     S
C418   C432    1.422   .     A
C418   C420    1.469   .     S
C418   C426    1.400   .     A
C419   C109    1.338   1_565 S
C419   O148    1.389   1_565 S
C420   O462    1.300   .     A
C420   O463    1.295   .     A
C421   C422    1.430   .     S
C422   O464    1.289   .     A
C422   O465    1.288   .     A
C423   O467    1.300   .     A
C423   C425    1.461   .     S
C423   O466    1.293   .     A
C424   C438    1.393   .     A
C424   H452    1.084   .     S
C424   C902    1.405   1_554 S
C425   C438    1.397   .     A
C425   C437    1.398   .     A
C426   H454    1.084   .     S
C426   C427    1.385   .     A
C427   H456    1.083   .     S
C427   C897    1.390   .     S
C428   C432    1.423   .     A
C428   C897    1.419   .     S
C428   C901    1.427   .     S
C429   H455    1.076   .     S
C429   C896    1.419   1_554 S
C429   C895    1.390   1_554 S
C430   H443    1.113   .     S
C430   O468    1.411   .     S
C430   H445    1.107   .     S
C430   H444    1.114   .     S
C431   O460    1.411   .     S
C431   H446    1.113   .     S
C431   H344    1.109   1_655 S
C432   C436    1.421   .     A
C433   C437    1.405   .     A
C433   C896    1.427   1_554 S
C433   C902    1.420   1_554 S
C434   C435    1.391   .     A
C434   C892    1.405   .     S
C434   C901    1.420   .     S
C435   C436    1.392   .     A
C435   H451    1.085   .     S
C436   O468    1.382   .     S
C437   H453    1.076   .     S
C438   H441    1.083   .     S
Cu439  Cu440   2.687   .     S
Cu439  O462    1.937   .     S
Cu439  N458    2.019   .     S
Cu439  O459    1.961   .     S
Cu439  O466    1.916   .     S
Cu439  O464    1.956   .     S
Cu440  O467    1.937   .     S
Cu440  N457    2.019   .     S
Cu440  O461    1.956   .     S
Cu440  O465    1.961   .     S
Cu440  O463    1.916   .     S
H442   C109    1.088   1_565 S
H447   C119    1.113   1_565 S
H450   N354    1.028   1_655 S
N457   H345    1.029   1_655 S
N457   N354    1.287   1_655 S
C469   O513    1.283   .     A
C469   O511    1.291   .     A
C469   C471    1.430   .     S
C470   C484    1.422   .     A
C470   C472    1.469   .     S
C470   C478    1.400   .     A
C471   C629    1.338   .     S
C471   O668    1.389   .     S
C472   O514    1.300   .     A
C472   O515    1.295   .     A
C473   C474    1.430   .     S
C473   C783    1.338   1_545 S
C473   H806    1.088   1_545 S
C474   O516    1.289   .     A
C474   O517    1.288   .     A
C475   O519    1.300   .     A
C475   C477    1.461   .     S
C475   O518    1.293   .     A
C476   C490    1.393   .     A
C476   H504    1.084   .     S
C477   C490    1.397   .     A
C477   C489    1.398   .     A
C478   H506    1.084   .     S
C478   C479    1.385   .     A
C479   H508    1.083   .     S
C479   C13     1.390   1_556 S
C480   C484    1.423   .     A
C480   C13     1.419   1_556 S
C480   C17     1.427   1_556 S
C481   H507    1.076   .     S
C482   H495    1.113   .     S
C482   O520    1.411   .     S
C482   H497    1.107   .     S
C482   H496    1.114   .     S
C483   O512    1.411   .     S
C483   H498    1.113   .     S
C483   H811    1.113   1_545 S
C483   H552    1.109   .     S
C484   C488    1.421   .     A
C485   C489    1.405   .     A
C486   C487    1.391   .     A
C486   C8      1.405   1_556 S
C486   C17     1.420   1_556 S
C487   C488    1.392   .     A
C487   H503    1.085   .     S
C488   O520    1.382   .     S
C489   H505    1.076   .     S
C490   H493    1.083   .     S
Cu491  Cu492   2.687   .     S
Cu491  O514    1.937   .     S
Cu491  N510    2.019   .     S
Cu491  O511    1.961   .     S
Cu491  O518    1.916   .     S
Cu491  O516    1.956   .     S
Cu492  O519    1.937   .     S
Cu492  N509    2.019   .     S
Cu492  O513    1.956   .     S
Cu492  O517    1.961   .     S
Cu492  O515    1.916   .     S
H494   C629    1.088   .     S
H499   C639    1.113   .     S
H500   C587    1.109   1_455 S
H501   N613    1.029   1_455 S
H502   N562    1.028   .     S
N509   H553    1.029   .     S
N509   N562    1.287   .     S
N510   N613    1.287   1_455 S
N510   H606    1.028   1_455 S
O512   C783    1.389   1_545 S
C521   O565    1.283   .     A
C521   O563    1.291   .     A
C521   C523    1.430   .     S
C522   C536    1.422   .     A
C522   C524    1.469   .     S
C522   C530    1.400   .     A
C523   C681    1.338   .     S
C523   O720    1.389   .     S
C524   O566    1.300   .     A
C524   O567    1.295   .     A
C525   C526    1.430   .     S
C525   C835    1.338   1_545 S
C525   H858    1.088   1_545 S
C526   O568    1.289   .     A
C526   O569    1.288   .     A
C527   O571    1.300   .     A
C527   C529    1.461   .     S
C527   O570    1.293   .     A
C528   C542    1.393   .     A
C528   H556    1.084   .     S
C529   C542    1.397   .     A
C529   C541    1.398   .     A
C530   H558    1.084   .     S
C530   C531    1.385   .     A
C531   H560    1.083   .     S
C531   C65     1.390   1_556 S
C532   C536    1.423   .     A
C532   C65     1.419   1_556 S
C532   C69     1.427   1_556 S
C533   H559    1.076   .     S
C534   H547    1.113   .     S
C534   O572    1.411   .     S
C534   H549    1.107   .     S
C534   H548    1.114   .     S
C535   O564    1.411   .     S
C535   H550    1.113   .     S
C535   H863    1.113   1_545 S
C535   H604    1.109   .     S
C536   C540    1.421   .     A
C537   C541    1.405   .     A
C538   C539    1.391   .     A
C538   C60     1.405   1_556 S
C538   C69     1.420   1_556 S
C539   C540    1.392   .     A
C539   H555    1.085   .     S
C540   O572    1.382   .     S
C541   H557    1.076   .     S
C542   H545    1.083   .     S
Cu543  Cu544   2.687   .     S
Cu543  O566    1.937   .     S
Cu543  N562    2.019   .     S
Cu543  O563    1.961   .     S
Cu543  O570    1.916   .     S
Cu543  O568    1.956   .     S
Cu544  O571    1.937   .     S
Cu544  N561    2.019   .     S
Cu544  O565    1.956   .     S
Cu544  O569    1.961   .     S
Cu544  O567    1.916   .     S
H546   C681    1.088   .     S
H551   C691    1.113   .     S
H554   N614    1.028   .     S
N561   H605    1.029   .     S
N561   N614    1.287   .     S
O564   C835    1.389   1_545 S
C573   O617    1.283   .     A
C573   O615    1.291   .     A
C573   C575    1.430   .     S
C574   C588    1.422   .     A
C574   C576    1.469   .     S
C574   C582    1.400   .     A
C575   C733    1.338   .     S
C575   O772    1.389   .     S
C576   O618    1.300   .     A
C576   O619    1.295   .     A
C577   C578    1.430   .     S
C577   C887    1.338   1_545 S
C577   H910    1.088   1_545 S
C578   O620    1.289   .     A
C578   O621    1.288   .     A
C579   O623    1.300   .     A
C579   C581    1.461   .     S
C579   O622    1.293   .     A
C580   C594    1.393   .     A
C580   H608    1.084   .     S
C581   C594    1.397   .     A
C581   C593    1.398   .     A
C582   H610    1.084   .     S
C582   C583    1.385   .     A
C583   H612    1.083   .     S
C583   C117    1.390   1_556 S
C584   C588    1.423   .     A
C584   C117    1.419   1_556 S
C584   C121    1.427   1_556 S
C585   H611    1.076   .     S
C586   H599    1.113   .     S
C586   O624    1.411   .     S
C586   H601    1.107   .     S
C586   H600    1.114   .     S
C587   O616    1.411   .     S
C587   H602    1.113   .     S
C587   H915    1.113   1_545 S
C587   H500    1.109   1_655 S
C588   C592    1.421   .     A
C589   C593    1.405   .     A
C590   C591    1.391   .     A
C590   C112    1.405   1_556 S
C590   C121    1.420   1_556 S
C591   C592    1.392   .     A
C591   H607    1.085   .     S
C592   O624    1.382   .     S
C593   H609    1.076   .     S
C594   H597    1.083   .     S
Cu595  Cu596   2.687   .     S
Cu595  O618    1.937   .     S
Cu595  N614    2.019   .     S
Cu595  O615    1.961   .     S
Cu595  O622    1.916   .     S
Cu595  O620    1.956   .     S
Cu596  O623    1.937   .     S
Cu596  N613    2.019   .     S
Cu596  O617    1.956   .     S
Cu596  O621    1.961   .     S
Cu596  O619    1.916   .     S
H598   C733    1.088   .     S
H603   C743    1.113   .     S
H606   N510    1.028   1_655 S
N613   H501    1.029   1_655 S
N613   N510    1.287   1_655 S
O616   C887    1.389   1_545 S
C625   O669    1.283   .     A
C625   O667    1.291   .     A
C625   C627    1.430   .     S
C626   C640    1.422   .     A
C626   C628    1.469   .     S
C626   C634    1.400   .     A
C627   C785    1.338   .     S
C627   O824    1.389   .     S
C628   O670    1.300   .     A
C628   O671    1.295   .     A
C629   C630    1.430   .     S
C630   O672    1.289   .     A
C630   O673    1.288   .     A
C631   O675    1.300   .     A
C631   C633    1.461   .     S
C631   O674    1.293   .     A
C632   C646    1.393   .     A
C632   H660    1.084   .     S
C633   C646    1.397   .     A
C633   C645    1.398   .     A
C634   H662    1.084   .     S
C634   C635    1.385   .     A
C635   H664    1.083   .     S
C635   C169    1.390   1_556 S
C636   C640    1.423   .     A
C636   C169    1.419   1_556 S
C636   C173    1.427   1_556 S
C637   H663    1.076   .     S
C638   H651    1.113   .     S
C638   O676    1.411   .     S
C638   H653    1.107   .     S
C638   H652    1.114   .     S
C639   O668    1.411   .     S
C639   H654    1.113   .     S
C639   H708    1.109   .     S
C640   C644    1.421   .     A
C641   C645    1.405   .     A
C642   C643    1.391   .     A
C642   C164    1.405   1_556 S
C642   C173    1.420   1_556 S
C643   C644    1.392   .     A
C643   H659    1.085   .     S
C644   O676    1.382   .     S
C645   H661    1.076   .     S
C646   H649    1.083   .     S
Cu647  Cu648   2.687   .     S
Cu647  O670    1.937   .     S
Cu647  N666    2.019   .     S
Cu647  O667    1.961   .     S
Cu647  O674    1.916   .     S
Cu647  O672    1.956   .     S
Cu648  O675    1.937   .     S
Cu648  N665    2.019   .     S
Cu648  O669    1.956   .     S
Cu648  O673    1.961   .     S
Cu648  O671    1.916   .     S
H650   C785    1.088   .     S
H655   C795    1.113   .     S
H656   C743    1.109   1_455 S
H657   N769    1.029   1_455 S
H658   N718    1.028   .     S
N665   H709    1.029   .     S
N665   N718    1.287   .     S
N666   N769    1.287   1_455 S
N666   H762    1.028   1_455 S
C677   O721    1.283   .     A
C677   O719    1.291   .     A
C677   C679    1.430   .     S
C678   C692    1.422   .     A
C678   C680    1.469   .     S
C678   C686    1.400   .     A
C679   C837    1.338   .     S
C679   O876    1.389   .     S
C680   O722    1.300   .     A
C680   O723    1.295   .     A
C681   C682    1.430   .     S
C682   O724    1.289   .     A
C682   O725    1.288   .     A
C683   O727    1.300   .     A
C683   C685    1.461   .     S
C683   O726    1.293   .     A
C684   C698    1.393   .     A
C684   H712    1.084   .     S
C685   C698    1.397   .     A
C685   C697    1.398   .     A
C686   H714    1.084   .     S
C686   C687    1.385   .     A
C687   H716    1.083   .     S
C687   C221    1.390   1_556 S
C688   C692    1.423   .     A
C688   C221    1.419   1_556 S
C688   C225    1.427   1_556 S
C689   H715    1.076   .     S
C690   H703    1.113   .     S
C690   O728    1.411   .     S
C690   H705    1.107   .     S
C690   H704    1.114   .     S
C691   O720    1.411   .     S
C691   H706    1.113   .     S
C691   H760    1.109   .     S
C692   C696    1.421   .     A
C693   C697    1.405   .     A
C694   C695    1.391   .     A
C694   C216    1.405   1_556 S
C694   C225    1.420   1_556 S
C695   C696    1.392   .     A
C695   H711    1.085   .     S
C696   O728    1.382   .     S
C697   H713    1.076   .     S
C698   H701    1.083   .     S
Cu699  Cu700   2.687   .     S
Cu699  O722    1.937   .     S
Cu699  N718    2.019   .     S
Cu699  O719    1.961   .     S
Cu699  O726    1.916   .     S
Cu699  O724    1.956   .     S
Cu700  O727    1.937   .     S
Cu700  N717    2.019   .     S
Cu700  O721    1.956   .     S
Cu700  O725    1.961   .     S
Cu700  O723    1.916   .     S
H702   C837    1.088   .     S
H707   C847    1.113   .     S
H710   N770    1.028   .     S
N717   H761    1.029   .     S
N717   N770    1.287   .     S
C729   O773    1.283   .     A
C729   O771    1.291   .     A
C729   C731    1.430   .     S
C730   C744    1.422   .     A
C730   C732    1.469   .     S
C730   C738    1.400   .     A
C731   C889    1.338   .     S
C731   O928    1.389   .     S
C732   O774    1.300   .     A
C732   O775    1.295   .     A
C733   C734    1.430   .     S
C734   O776    1.289   .     A
C734   O777    1.288   .     A
C735   O779    1.300   .     A
C735   C737    1.461   .     S
C735   O778    1.293   .     A
C736   C750    1.393   .     A
C736   H764    1.084   .     S
C737   C750    1.397   .     A
C737   C749    1.398   .     A
C738   H766    1.084   .     S
C738   C739    1.385   .     A
C739   H768    1.083   .     S
C739   C273    1.390   1_556 S
C740   C744    1.423   .     A
C740   C273    1.419   1_556 S
C740   C277    1.427   1_556 S
C741   H767    1.076   .     S
C742   H755    1.113   .     S
C742   O780    1.411   .     S
C742   H757    1.107   .     S
C742   H756    1.114   .     S
C743   O772    1.411   .     S
C743   H758    1.113   .     S
C743   H656    1.109   1_655 S
C744   C748    1.421   .     A
C745   C749    1.405   .     A
C746   C747    1.391   .     A
C746   C268    1.405   1_556 S
C746   C277    1.420   1_556 S
C747   C748    1.392   .     A
C747   H763    1.085   .     S
C748   O780    1.382   .     S
C749   H765    1.076   .     S
C750   H753    1.083   .     S
Cu751  Cu752   2.687   .     S
Cu751  O774    1.937   .     S
Cu751  N770    2.019   .     S
Cu751  O771    1.961   .     S
Cu751  O778    1.916   .     S
Cu751  O776    1.956   .     S
Cu752  O779    1.937   .     S
Cu752  N769    2.019   .     S
Cu752  O773    1.956   .     S
Cu752  O777    1.961   .     S
Cu752  O775    1.916   .     S
H754   C889    1.088   .     S
H759   C899    1.113   .     S
H762   N666    1.028   1_655 S
N769   H657    1.029   1_655 S
N769   N666    1.287   1_655 S
C781   O825    1.283   .     A
C781   O823    1.291   .     A
C781   C783    1.430   .     S
C782   C796    1.422   .     A
C782   C784    1.469   .     S
C782   C790    1.400   .     A
C783   C473    1.338   1_565 S
C783   O512    1.389   1_565 S
C784   O826    1.300   .     A
C784   O827    1.295   .     A
C785   C786    1.430   .     S
C786   O828    1.289   .     A
C786   O829    1.288   .     A
C787   O831    1.300   .     A
C787   C789    1.461   .     S
C787   O830    1.293   .     A
C788   C802    1.393   .     A
C788   H816    1.084   .     S
C789   C802    1.397   .     A
C789   C801    1.398   .     A
C790   H818    1.084   .     S
C790   C791    1.385   .     A
C791   H820    1.083   .     S
C791   C325    1.390   1_556 S
C792   C796    1.423   .     A
C792   C325    1.419   1_556 S
C792   C329    1.427   1_556 S
C793   H819    1.076   .     S
C794   H807    1.113   .     S
C794   O832    1.411   .     S
C794   H809    1.107   .     S
C794   H808    1.114   .     S
C795   O824    1.411   .     S
C795   H810    1.113   .     S
C795   H864    1.109   .     S
C796   C800    1.421   .     A
C797   C801    1.405   .     A
C798   C799    1.391   .     A
C798   C320    1.405   1_556 S
C798   C329    1.420   1_556 S
C799   C800    1.392   .     A
C799   H815    1.085   .     S
C800   O832    1.382   .     S
C801   H817    1.076   .     S
C802   H805    1.083   .     S
Cu803  Cu804   2.687   .     S
Cu803  O826    1.937   .     S
Cu803  N822    2.019   .     S
Cu803  O823    1.961   .     S
Cu803  O830    1.916   .     S
Cu803  O828    1.956   .     S
Cu804  O831    1.937   .     S
Cu804  N821    2.019   .     S
Cu804  O825    1.956   .     S
Cu804  O829    1.961   .     S
Cu804  O827    1.916   .     S
H806   C473    1.088   1_565 S
H811   C483    1.113   1_565 S
H812   C899    1.109   1_455 S
H813   N925    1.029   1_455 S
H814   N874    1.028   .     S
N821   H865    1.029   .     S
N821   N874    1.287   .     S
N822   N925    1.287   1_455 S
N822   H918    1.028   1_455 S
C833   O877    1.283   .     A
C833   O875    1.291   .     A
C833   C835    1.430   .     S
C834   C848    1.422   .     A
C834   C836    1.469   .     S
C834   C842    1.400   .     A
C835   C525    1.338   1_565 S
C835   O564    1.389   1_565 S
C836   O878    1.300   .     A
C836   O879    1.295   .     A
C837   C838    1.430   .     S
C838   O880    1.289   .     A
C838   O881    1.288   .     A
C839   O883    1.300   .     A
C839   C841    1.461   .     S
C839   O882    1.293   .     A
C840   C854    1.393   .     A
C840   H868    1.084   .     S
C841   C854    1.397   .     A
C841   C853    1.398   .     A
C842   H870    1.084   .     S
C842   C843    1.385   .     A
C843   H872    1.083   .     S
C843   C377    1.390   1_556 S
C844   C848    1.423   .     A
C844   C377    1.419   1_556 S
C844   C381    1.427   1_556 S
C845   H871    1.076   .     S
C846   H859    1.113   .     S
C846   O884    1.411   .     S
C846   H861    1.107   .     S
C846   H860    1.114   .     S
C847   O876    1.411   .     S
C847   H862    1.113   .     S
C847   H916    1.109   .     S
C848   C852    1.421   .     A
C849   C853    1.405   .     A
C850   C851    1.391   .     A
C850   C372    1.405   1_556 S
C850   C381    1.420   1_556 S
C851   C852    1.392   .     A
C851   H867    1.085   .     S
C852   O884    1.382   .     S
C853   H869    1.076   .     S
C854   H857    1.083   .     S
Cu855  Cu856   2.687   .     S
Cu855  O878    1.937   .     S
Cu855  N874    2.019   .     S
Cu855  O875    1.961   .     S
Cu855  O882    1.916   .     S
Cu855  O880    1.956   .     S
Cu856  O883    1.937   .     S
Cu856  N873    2.019   .     S
Cu856  O877    1.956   .     S
Cu856  O881    1.961   .     S
Cu856  O879    1.916   .     S
H858   C525    1.088   1_565 S
H863   C535    1.113   1_565 S
H866   N926    1.028   .     S
N873   H917    1.029   .     S
N873   N926    1.287   .     S
C885   O929    1.283   .     A
C885   O927    1.291   .     A
C885   C887    1.430   .     S
C886   C900    1.422   .     A
C886   C888    1.469   .     S
C886   C894    1.400   .     A
C887   C577    1.338   1_565 S
C887   O616    1.389   1_565 S
C888   O930    1.300   .     A
C888   O931    1.295   .     A
C889   C890    1.430   .     S
C890   O932    1.289   .     A
C890   O933    1.288   .     A
C891   O935    1.300   .     A
C891   C893    1.461   .     S
C891   O934    1.293   .     A
C892   C906    1.393   .     A
C892   H920    1.084   .     S
C893   C906    1.397   .     A
C893   C905    1.398   .     A
C894   H922    1.084   .     S
C894   C895    1.385   .     A
C895   H924    1.083   .     S
C895   C429    1.390   1_556 S
C896   C900    1.423   .     A
C896   C429    1.419   1_556 S
C896   C433    1.427   1_556 S
C897   H923    1.076   .     S
C898   H911    1.113   .     S
C898   O936    1.411   .     S
C898   H913    1.107   .     S
C898   H912    1.114   .     S
C899   O928    1.411   .     S
C899   H914    1.113   .     S
C899   H812    1.109   1_655 S
C900   C904    1.421   .     A
C901   C905    1.405   .     A
C902   C903    1.391   .     A
C902   C424    1.405   1_556 S
C902   C433    1.420   1_556 S
C903   C904    1.392   .     A
C903   H919    1.085   .     S
C904   O936    1.382   .     S
C905   H921    1.076   .     S
C906   H909    1.083   .     S
Cu907  Cu908   2.687   .     S
Cu907  O930    1.937   .     S
Cu907  N926    2.019   .     S
Cu907  O927    1.961   .     S
Cu907  O934    1.916   .     S
Cu907  O932    1.956   .     S
Cu908  O935    1.937   .     S
Cu908  N925    2.019   .     S
Cu908  O929    1.956   .     S
Cu908  O933    1.961   .     S
Cu908  O931    1.916   .     S
H910   C577    1.088   1_565 S
H915   C587    1.113   1_565 S
H918   N822    1.028   1_655 S
N925   H813    1.029   1_655 S
N925   N822    1.287   1_655 S
