data_str_m2_o1_o16_pcu_sym.5
_audit_creation_date              2020-01-03
_audit_creation_method            'Materials Studio'
_symmetry_space_group_name_H-M    'P1'
_symmetry_Int_Tables_number       1
_symmetry_cell_setting            triclinic
loop_
_symmetry_equiv_pos_as_xyz
  x,y,z
_cell_length_a                    28.5696
_cell_length_b                    32.4960
_cell_length_c                    26.9385
_cell_angle_alpha                 90.1911
_cell_angle_beta                  73.1857
_cell_angle_gamma                 89.9880
loop_
_atom_site_label
_atom_site_type_symbol
_atom_site_fract_x
_atom_site_fract_y
_atom_site_fract_z
_atom_site_U_iso_or_equiv
_atom_site_adp_type
_atom_site_occupancy
C1     C     0.16662   0.24597   0.25018   0.00000  Uiso   1.00
C2     C     0.12799   0.14869   0.40490   0.00000  Uiso   1.00
C3     C     0.20945   0.31205   0.24902   0.00000  Uiso   1.00
C4     C     0.14125   0.16096   0.34930   0.00000  Uiso   1.00
C5     C     0.20945   0.02129   0.24901   0.00000  Uiso   1.00
C6     C     0.16653   0.04275   0.25048   0.00000  Uiso   1.00
C7     C     0.12354   0.02131   0.25224   0.00000  Uiso   1.00
C8     C     0.12355   0.31207   0.25221   0.00000  Uiso   1.00
C9     C     0.16653   0.29060   0.25048   0.00000  Uiso   1.00
C10    C     0.29920   0.19053   0.28431   0.00000  Uiso   1.00
C11    C     0.01544   0.19045   0.28437   0.00000  Uiso   1.00
C12    C     0.14868   0.14624   0.48735   0.00000  Uiso   1.00
C13    C     0.03412   0.14275   0.21575   0.00000  Uiso   1.00
C14    C     0.31785   0.14275   0.21577   0.00000  Uiso   1.00
C15    C     0.16662   0.08736   0.25014   0.00000  Uiso   1.00
C16    C     0.19259   0.16679   0.15013   0.00000  Uiso   1.00
C17    C     0.26946   0.16643   0.01101   0.00000  Uiso   1.00
C18    C     0.20731   0.16512   0.09350   0.00000  Uiso   1.00
C19    C     0.07895   0.13922   0.43168   0.00000  Uiso   1.00
C20    C     0.06531   0.13335   0.48522   0.00000  Uiso   1.00
C21    C     0.09892   0.13849   0.01302   0.00000  Uiso   1.00
C22    C     0.04117   0.09481   0.39098   0.00000  Uiso   1.00
C23    C     0.16391   0.14608   0.43235   0.00000  Uiso   1.00
C24    C     0.18420   0.15329   0.01424   0.00000  Uiso   1.00
C25    C     0.23426   0.15697   0.48588   0.00000  Uiso   1.00
C26    C     0.24894   0.14976   0.43288   0.00000  Uiso   1.00
C27    C     0.21454   0.14228   0.40704   0.00000  Uiso   1.00
C28    C     0.17157   0.15798   0.06824   0.00000  Uiso   1.00
C29    C     0.25625   0.16990   0.06466   0.00000  Uiso   1.00
Cu30   Cu    0.11978   0.16666   0.25000   0.00000  Uiso   1.00
Cu31   Cu    0.21355   0.16667   0.25000   0.00000  Uiso   1.00
H32    H     0.28424   0.17631   0.08348   0.00000  Uiso   1.00
H33    H     0.30718   0.17112   0.48896   0.00000  Uiso   1.00
H34    H     0.13405   0.15639   0.09156   0.00000  Uiso   1.00
H35    H     0.08506   0.13439   0.05436   0.00000  Uiso   1.00
H36    H     0.02807   0.12518   0.00575   0.00000  Uiso   1.00
H37    H     0.22902   0.13169   0.36765   0.00000  Uiso   1.00
H38    H     0.24303   0.29604   0.24774   0.00000  Uiso   1.00
H39    H     0.02789   0.07461   0.42548   0.00000  Uiso   1.00
H40    H     0.07706   0.08360   0.36576   0.00000  Uiso   1.00
H41    H     0.01461   0.09261   0.36811   0.00000  Uiso   1.00
H42    H     0.24304   0.03729   0.24770   0.00000  Uiso   1.00
H43    H     0.08994   0.03734   0.25359   0.00000  Uiso   1.00
H44    H     0.08996   0.29607   0.25353   0.00000  Uiso   1.00
H45    H     0.27305   0.20968   0.31179   0.00000  Uiso   1.00
H46    H     0.02663   0.20953   0.31189   0.00000  Uiso   1.00
H47    H     0.06025   0.12353   0.18833   0.00000  Uiso   1.00
H48    H     0.30663   0.12356   0.18837   0.00000  Uiso   1.00
H49    H     0.28724   0.14942   0.41119   0.00000  Uiso   1.00
N50    N     0.04931   0.16666   0.24999   0.00000  Uiso   1.00
N51    N     0.28402   0.16669   0.25000   0.00000  Uiso   1.00
O52    O     0.12708   0.22678   0.25001   0.00000  Uiso   1.00
O53    O     0.20627   0.22679   0.25001   0.00000  Uiso   1.00
O54    O     0.10775   0.16665   0.32549   0.00000  Uiso   1.00
O55    O     0.18694   0.16666   0.32549   0.00000  Uiso   1.00
O56    O     0.12706   0.10654   0.25000   0.00000  Uiso   1.00
O57    O     0.20625   0.10655   0.25000   0.00000  Uiso   1.00
O58    O     0.14640   0.16667   0.17451   0.00000  Uiso   1.00
O59    O     0.22559   0.16668   0.17451   0.00000  Uiso   1.00
O60    O     0.04373   0.13620   0.40594   0.00000  Uiso   1.00
C61    C     0.49996   0.24597   0.25018   0.00000  Uiso   1.00
C62    C     0.46132   0.14869   0.40490   0.00000  Uiso   1.00
C63    C     0.54278   0.31205   0.24902   0.00000  Uiso   1.00
C64    C     0.47459   0.16096   0.34930   0.00000  Uiso   1.00
C65    C     0.54278   0.02129   0.24901   0.00000  Uiso   1.00
C66    C     0.49986   0.04275   0.25048   0.00000  Uiso   1.00
C67    C     0.45687   0.02131   0.25224   0.00000  Uiso   1.00
C68    C     0.45688   0.31207   0.25221   0.00000  Uiso   1.00
C69    C     0.49987   0.29060   0.25048   0.00000  Uiso   1.00
C70    C     0.63253   0.19053   0.28431   0.00000  Uiso   1.00
C71    C     0.34877   0.19045   0.28437   0.00000  Uiso   1.00
C72    C     0.48201   0.14624   0.48735   0.00000  Uiso   1.00
C73    C     0.36746   0.14275   0.21575   0.00000  Uiso   1.00
C74    C     0.65118   0.14275   0.21577   0.00000  Uiso   1.00
C75    C     0.49995   0.08736   0.25014   0.00000  Uiso   1.00
C76    C     0.52593   0.16679   0.15013   0.00000  Uiso   1.00
C77    C     0.60279   0.16643   0.01101   0.00000  Uiso   1.00
C78    C     0.54064   0.16512   0.09350   0.00000  Uiso   1.00
C79    C     0.41228   0.13922   0.43168   0.00000  Uiso   1.00
C80    C     0.39864   0.13335   0.48522   0.00000  Uiso   1.00
C81    C     0.43225   0.13849   0.01302   0.00000  Uiso   1.00
C82    C     0.37450   0.09481   0.39098   0.00000  Uiso   1.00
C83    C     0.49724   0.14608   0.43235   0.00000  Uiso   1.00
C84    C     0.51754   0.15329   0.01424   0.00000  Uiso   1.00
C85    C     0.56759   0.15697   0.48588   0.00000  Uiso   1.00
C86    C     0.58228   0.14976   0.43288   0.00000  Uiso   1.00
C87    C     0.54787   0.14228   0.40704   0.00000  Uiso   1.00
C88    C     0.50490   0.15798   0.06824   0.00000  Uiso   1.00
C89    C     0.58959   0.16990   0.06466   0.00000  Uiso   1.00
Cu90   Cu    0.45311   0.16666   0.25000   0.00000  Uiso   1.00
Cu91   Cu    0.54689   0.16667   0.25000   0.00000  Uiso   1.00
H92    H     0.61757   0.17631   0.08348   0.00000  Uiso   1.00
H93    H     0.64052   0.17112   0.48896   0.00000  Uiso   1.00
H94    H     0.46738   0.15639   0.09156   0.00000  Uiso   1.00
H95    H     0.41839   0.13439   0.05436   0.00000  Uiso   1.00
H96    H     0.36140   0.12518   0.00575   0.00000  Uiso   1.00
H97    H     0.56235   0.13169   0.36765   0.00000  Uiso   1.00
H98    H     0.57637   0.29604   0.24774   0.00000  Uiso   1.00
H99    H     0.36122   0.07461   0.42548   0.00000  Uiso   1.00
H100   H     0.41040   0.08360   0.36576   0.00000  Uiso   1.00
H101   H     0.34795   0.09261   0.36811   0.00000  Uiso   1.00
H102   H     0.57637   0.03729   0.24770   0.00000  Uiso   1.00
H103   H     0.42327   0.03734   0.25359   0.00000  Uiso   1.00
H104   H     0.42329   0.29607   0.25353   0.00000  Uiso   1.00
H105   H     0.60638   0.20968   0.31179   0.00000  Uiso   1.00
H106   H     0.35996   0.20953   0.31189   0.00000  Uiso   1.00
H107   H     0.39359   0.12353   0.18833   0.00000  Uiso   1.00
H108   H     0.63996   0.12356   0.18837   0.00000  Uiso   1.00
H109   H     0.62057   0.14942   0.41119   0.00000  Uiso   1.00
N110   N     0.38265   0.16666   0.24999   0.00000  Uiso   1.00
N111   N     0.61735   0.16669   0.25000   0.00000  Uiso   1.00
O112   O     0.46042   0.22678   0.25001   0.00000  Uiso   1.00
O113   O     0.53961   0.22679   0.25001   0.00000  Uiso   1.00
O114   O     0.44108   0.16665   0.32549   0.00000  Uiso   1.00
O115   O     0.52027   0.16666   0.32549   0.00000  Uiso   1.00
O116   O     0.46039   0.10654   0.25000   0.00000  Uiso   1.00
O117   O     0.53958   0.10655   0.25000   0.00000  Uiso   1.00
O118   O     0.47973   0.16667   0.17451   0.00000  Uiso   1.00
O119   O     0.55892   0.16668   0.17451   0.00000  Uiso   1.00
O120   O     0.37706   0.13620   0.40594   0.00000  Uiso   1.00
C121   C     0.83329   0.24597   0.25018   0.00000  Uiso   1.00
C122   C     0.79465   0.14869   0.40490   0.00000  Uiso   1.00
C123   C     0.87611   0.31205   0.24902   0.00000  Uiso   1.00
C124   C     0.80792   0.16096   0.34930   0.00000  Uiso   1.00
C125   C     0.87611   0.02129   0.24901   0.00000  Uiso   1.00
C126   C     0.83320   0.04275   0.25048   0.00000  Uiso   1.00
C127   C     0.79021   0.02131   0.25224   0.00000  Uiso   1.00
C128   C     0.79022   0.31207   0.25221   0.00000  Uiso   1.00
C129   C     0.83320   0.29060   0.25048   0.00000  Uiso   1.00
C130   C     0.96586   0.19053   0.28431   0.00000  Uiso   1.00
C131   C     0.68211   0.19045   0.28437   0.00000  Uiso   1.00
C132   C     0.81535   0.14624   0.48735   0.00000  Uiso   1.00
C133   C     0.70079   0.14275   0.21575   0.00000  Uiso   1.00
C134   C     0.98452   0.14275   0.21577   0.00000  Uiso   1.00
C135   C     0.83329   0.08736   0.25014   0.00000  Uiso   1.00
C136   C     0.85926   0.16679   0.15013   0.00000  Uiso   1.00
C137   C     0.93613   0.16643   0.01101   0.00000  Uiso   1.00
C138   C     0.87397   0.16512   0.09350   0.00000  Uiso   1.00
C139   C     0.74561   0.13922   0.43168   0.00000  Uiso   1.00
C140   C     0.73198   0.13335   0.48522   0.00000  Uiso   1.00
C141   C     0.76558   0.13849   0.01302   0.00000  Uiso   1.00
C142   C     0.70783   0.09481   0.39098   0.00000  Uiso   1.00
C143   C     0.83057   0.14608   0.43235   0.00000  Uiso   1.00
C144   C     0.85087   0.15329   0.01424   0.00000  Uiso   1.00
C145   C     0.90092   0.15697   0.48588   0.00000  Uiso   1.00
C146   C     0.91561   0.14976   0.43288   0.00000  Uiso   1.00
C147   C     0.88121   0.14228   0.40704   0.00000  Uiso   1.00
C148   C     0.83824   0.15798   0.06824   0.00000  Uiso   1.00
C149   C     0.92292   0.16990   0.06466   0.00000  Uiso   1.00
Cu150  Cu    0.78645   0.16666   0.25000   0.00000  Uiso   1.00
Cu151  Cu    0.88022   0.16667   0.25000   0.00000  Uiso   1.00
H152   H     0.95090   0.17631   0.08348   0.00000  Uiso   1.00
H153   H     0.97385   0.17112   0.48896   0.00000  Uiso   1.00
H154   H     0.80071   0.15639   0.09156   0.00000  Uiso   1.00
H155   H     0.75172   0.13439   0.05436   0.00000  Uiso   1.00
H156   H     0.69474   0.12518   0.00575   0.00000  Uiso   1.00
H157   H     0.89569   0.13169   0.36765   0.00000  Uiso   1.00
H158   H     0.90970   0.29604   0.24774   0.00000  Uiso   1.00
H159   H     0.69455   0.07461   0.42548   0.00000  Uiso   1.00
H160   H     0.74373   0.08360   0.36576   0.00000  Uiso   1.00
H161   H     0.68128   0.09261   0.36811   0.00000  Uiso   1.00
H162   H     0.90970   0.03729   0.24770   0.00000  Uiso   1.00
H163   H     0.75660   0.03734   0.25359   0.00000  Uiso   1.00
H164   H     0.75662   0.29607   0.25353   0.00000  Uiso   1.00
H165   H     0.93972   0.20968   0.31179   0.00000  Uiso   1.00
H166   H     0.69329   0.20953   0.31189   0.00000  Uiso   1.00
H167   H     0.72692   0.12353   0.18833   0.00000  Uiso   1.00
H168   H     0.97329   0.12356   0.18837   0.00000  Uiso   1.00
H169   H     0.95391   0.14942   0.41119   0.00000  Uiso   1.00
N170   N     0.71598   0.16666   0.24999   0.00000  Uiso   1.00
N171   N     0.95069   0.16669   0.25000   0.00000  Uiso   1.00
O172   O     0.79375   0.22678   0.25001   0.00000  Uiso   1.00
O173   O     0.87294   0.22679   0.25001   0.00000  Uiso   1.00
O174   O     0.77441   0.16665   0.32549   0.00000  Uiso   1.00
O175   O     0.85360   0.16666   0.32549   0.00000  Uiso   1.00
O176   O     0.79373   0.10654   0.25000   0.00000  Uiso   1.00
O177   O     0.87292   0.10655   0.25000   0.00000  Uiso   1.00
O178   O     0.81306   0.16667   0.17451   0.00000  Uiso   1.00
O179   O     0.89225   0.16668   0.17451   0.00000  Uiso   1.00
O180   O     0.71039   0.13620   0.40594   0.00000  Uiso   1.00
C181   C     0.16662   0.57931   0.25018   0.00000  Uiso   1.00
C182   C     0.12799   0.48202   0.40490   0.00000  Uiso   1.00
C183   C     0.20945   0.64539   0.24902   0.00000  Uiso   1.00
C184   C     0.14125   0.49429   0.34930   0.00000  Uiso   1.00
C185   C     0.20945   0.35462   0.24901   0.00000  Uiso   1.00
C186   C     0.16653   0.37609   0.25048   0.00000  Uiso   1.00
C187   C     0.12354   0.35465   0.25224   0.00000  Uiso   1.00
C188   C     0.12355   0.64540   0.25221   0.00000  Uiso   1.00
C189   C     0.16653   0.62393   0.25048   0.00000  Uiso   1.00
C190   C     0.29920   0.52386   0.28431   0.00000  Uiso   1.00
C191   C     0.01544   0.52379   0.28437   0.00000  Uiso   1.00
C192   C     0.14868   0.47957   0.48735   0.00000  Uiso   1.00
C193   C     0.03412   0.47608   0.21575   0.00000  Uiso   1.00
C194   C     0.31785   0.47608   0.21577   0.00000  Uiso   1.00
C195   C     0.16662   0.42070   0.25014   0.00000  Uiso   1.00
C196   C     0.19259   0.50013   0.15013   0.00000  Uiso   1.00
C197   C     0.26946   0.49976   0.01101   0.00000  Uiso   1.00
C198   C     0.20731   0.49845   0.09350   0.00000  Uiso   1.00
C199   C     0.07895   0.47255   0.43168   0.00000  Uiso   1.00
C200   C     0.06531   0.46668   0.48522   0.00000  Uiso   1.00
C201   C     0.09892   0.47183   0.01302   0.00000  Uiso   1.00
C202   C     0.04117   0.42815   0.39098   0.00000  Uiso   1.00
C203   C     0.16391   0.47941   0.43235   0.00000  Uiso   1.00
C204   C     0.18420   0.48662   0.01424   0.00000  Uiso   1.00
C205   C     0.23426   0.49030   0.48588   0.00000  Uiso   1.00
C206   C     0.24894   0.48309   0.43288   0.00000  Uiso   1.00
C207   C     0.21454   0.47561   0.40704   0.00000  Uiso   1.00
C208   C     0.17157   0.49131   0.06824   0.00000  Uiso   1.00
C209   C     0.25625   0.50324   0.06466   0.00000  Uiso   1.00
Cu210  Cu    0.11978   0.49999   0.25000   0.00000  Uiso   1.00
Cu211  Cu    0.21355   0.50001   0.25000   0.00000  Uiso   1.00
H212   H     0.28424   0.50964   0.08348   0.00000  Uiso   1.00
H213   H     0.30718   0.50445   0.48896   0.00000  Uiso   1.00
H214   H     0.13405   0.48972   0.09156   0.00000  Uiso   1.00
H215   H     0.08506   0.46772   0.05436   0.00000  Uiso   1.00
H216   H     0.02807   0.45851   0.00575   0.00000  Uiso   1.00
H217   H     0.22902   0.46502   0.36765   0.00000  Uiso   1.00
H218   H     0.24303   0.62937   0.24774   0.00000  Uiso   1.00
H219   H     0.02789   0.40795   0.42548   0.00000  Uiso   1.00
H220   H     0.07706   0.41694   0.36576   0.00000  Uiso   1.00
H221   H     0.01461   0.42594   0.36811   0.00000  Uiso   1.00
H222   H     0.24304   0.37063   0.24770   0.00000  Uiso   1.00
H223   H     0.08994   0.37067   0.25359   0.00000  Uiso   1.00
H224   H     0.08996   0.62940   0.25353   0.00000  Uiso   1.00
H225   H     0.27305   0.54301   0.31179   0.00000  Uiso   1.00
H226   H     0.02663   0.54287   0.31189   0.00000  Uiso   1.00
H227   H     0.06025   0.45687   0.18833   0.00000  Uiso   1.00
H228   H     0.30663   0.45690   0.18837   0.00000  Uiso   1.00
H229   H     0.28724   0.48275   0.41119   0.00000  Uiso   1.00
N230   N     0.04931   0.49999   0.24999   0.00000  Uiso   1.00
N231   N     0.28402   0.50002   0.25000   0.00000  Uiso   1.00
O232   O     0.12708   0.56011   0.25001   0.00000  Uiso   1.00
O233   O     0.20627   0.56012   0.25001   0.00000  Uiso   1.00
O234   O     0.10775   0.49998   0.32549   0.00000  Uiso   1.00
O235   O     0.18694   0.49999   0.32549   0.00000  Uiso   1.00
O236   O     0.12706   0.43988   0.25000   0.00000  Uiso   1.00
O237   O     0.20625   0.43989   0.25000   0.00000  Uiso   1.00
O238   O     0.14640   0.50001   0.17451   0.00000  Uiso   1.00
O239   O     0.22559   0.50002   0.17451   0.00000  Uiso   1.00
O240   O     0.04373   0.46953   0.40594   0.00000  Uiso   1.00
C241   C     0.49996   0.57931   0.25018   0.00000  Uiso   1.00
C242   C     0.46132   0.48202   0.40490   0.00000  Uiso   1.00
C243   C     0.54278   0.64539   0.24902   0.00000  Uiso   1.00
C244   C     0.47459   0.49429   0.34930   0.00000  Uiso   1.00
C245   C     0.54278   0.35462   0.24901   0.00000  Uiso   1.00
C246   C     0.49986   0.37609   0.25048   0.00000  Uiso   1.00
C247   C     0.45687   0.35465   0.25224   0.00000  Uiso   1.00
C248   C     0.45688   0.64540   0.25221   0.00000  Uiso   1.00
C249   C     0.49987   0.62393   0.25048   0.00000  Uiso   1.00
C250   C     0.63253   0.52386   0.28431   0.00000  Uiso   1.00
C251   C     0.34877   0.52379   0.28437   0.00000  Uiso   1.00
C252   C     0.48201   0.47957   0.48735   0.00000  Uiso   1.00
C253   C     0.36746   0.47608   0.21575   0.00000  Uiso   1.00
C254   C     0.65118   0.47608   0.21577   0.00000  Uiso   1.00
C255   C     0.49995   0.42070   0.25014   0.00000  Uiso   1.00
C256   C     0.52593   0.50013   0.15013   0.00000  Uiso   1.00
C257   C     0.60279   0.49976   0.01101   0.00000  Uiso   1.00
C258   C     0.54064   0.49845   0.09350   0.00000  Uiso   1.00
C259   C     0.41228   0.47255   0.43168   0.00000  Uiso   1.00
C260   C     0.39864   0.46668   0.48522   0.00000  Uiso   1.00
C261   C     0.43225   0.47183   0.01302   0.00000  Uiso   1.00
C262   C     0.37450   0.42815   0.39098   0.00000  Uiso   1.00
C263   C     0.49724   0.47941   0.43235   0.00000  Uiso   1.00
C264   C     0.51754   0.48662   0.01424   0.00000  Uiso   1.00
C265   C     0.56759   0.49030   0.48588   0.00000  Uiso   1.00
C266   C     0.58228   0.48309   0.43288   0.00000  Uiso   1.00
C267   C     0.54787   0.47561   0.40704   0.00000  Uiso   1.00
C268   C     0.50490   0.49131   0.06824   0.00000  Uiso   1.00
C269   C     0.58959   0.50324   0.06466   0.00000  Uiso   1.00
Cu270  Cu    0.45311   0.49999   0.25000   0.00000  Uiso   1.00
Cu271  Cu    0.54689   0.50001   0.25000   0.00000  Uiso   1.00
H272   H     0.61757   0.50964   0.08348   0.00000  Uiso   1.00
H273   H     0.64052   0.50445   0.48896   0.00000  Uiso   1.00
H274   H     0.46738   0.48972   0.09156   0.00000  Uiso   1.00
H275   H     0.41839   0.46772   0.05436   0.00000  Uiso   1.00
H276   H     0.36140   0.45851   0.00575   0.00000  Uiso   1.00
H277   H     0.56235   0.46502   0.36765   0.00000  Uiso   1.00
H278   H     0.57637   0.62937   0.24774   0.00000  Uiso   1.00
H279   H     0.36122   0.40795   0.42548   0.00000  Uiso   1.00
H280   H     0.41040   0.41694   0.36576   0.00000  Uiso   1.00
H281   H     0.34795   0.42594   0.36811   0.00000  Uiso   1.00
H282   H     0.57637   0.37063   0.24770   0.00000  Uiso   1.00
H283   H     0.42327   0.37067   0.25359   0.00000  Uiso   1.00
H284   H     0.42329   0.62940   0.25353   0.00000  Uiso   1.00
H285   H     0.60638   0.54301   0.31179   0.00000  Uiso   1.00
H286   H     0.35996   0.54287   0.31189   0.00000  Uiso   1.00
H287   H     0.39359   0.45687   0.18833   0.00000  Uiso   1.00
H288   H     0.63996   0.45690   0.18837   0.00000  Uiso   1.00
H289   H     0.62057   0.48275   0.41119   0.00000  Uiso   1.00
N290   N     0.38265   0.49999   0.24999   0.00000  Uiso   1.00
N291   N     0.61735   0.50002   0.25000   0.00000  Uiso   1.00
O292   O     0.46042   0.56011   0.25001   0.00000  Uiso   1.00
O293   O     0.53961   0.56012   0.25001   0.00000  Uiso   1.00
O294   O     0.44108   0.49998   0.32549   0.00000  Uiso   1.00
O295   O     0.52027   0.49999   0.32549   0.00000  Uiso   1.00
O296   O     0.46039   0.43988   0.25000   0.00000  Uiso   1.00
O297   O     0.53958   0.43989   0.25000   0.00000  Uiso   1.00
O298   O     0.47973   0.50001   0.17451   0.00000  Uiso   1.00
O299   O     0.55892   0.50002   0.17451   0.00000  Uiso   1.00
O300   O     0.37706   0.46953   0.40594   0.00000  Uiso   1.00
C301   C     0.83329   0.57931   0.25018   0.00000  Uiso   1.00
C302   C     0.79465   0.48202   0.40490   0.00000  Uiso   1.00
C303   C     0.87611   0.64539   0.24902   0.00000  Uiso   1.00
C304   C     0.80792   0.49429   0.34930   0.00000  Uiso   1.00
C305   C     0.87611   0.35462   0.24901   0.00000  Uiso   1.00
C306   C     0.83320   0.37609   0.25048   0.00000  Uiso   1.00
C307   C     0.79021   0.35465   0.25224   0.00000  Uiso   1.00
C308   C     0.79022   0.64540   0.25221   0.00000  Uiso   1.00
C309   C     0.83320   0.62393   0.25048   0.00000  Uiso   1.00
C310   C     0.96586   0.52386   0.28431   0.00000  Uiso   1.00
C311   C     0.68211   0.52379   0.28437   0.00000  Uiso   1.00
C312   C     0.81535   0.47957   0.48735   0.00000  Uiso   1.00
C313   C     0.70079   0.47608   0.21575   0.00000  Uiso   1.00
C314   C     0.98452   0.47608   0.21577   0.00000  Uiso   1.00
C315   C     0.83329   0.42070   0.25014   0.00000  Uiso   1.00
C316   C     0.85926   0.50013   0.15013   0.00000  Uiso   1.00
C317   C     0.93613   0.49976   0.01101   0.00000  Uiso   1.00
C318   C     0.87397   0.49845   0.09350   0.00000  Uiso   1.00
C319   C     0.74561   0.47255   0.43168   0.00000  Uiso   1.00
C320   C     0.73198   0.46668   0.48522   0.00000  Uiso   1.00
C321   C     0.76558   0.47183   0.01302   0.00000  Uiso   1.00
C322   C     0.70783   0.42815   0.39098   0.00000  Uiso   1.00
C323   C     0.83057   0.47941   0.43235   0.00000  Uiso   1.00
C324   C     0.85087   0.48662   0.01424   0.00000  Uiso   1.00
C325   C     0.90092   0.49030   0.48588   0.00000  Uiso   1.00
C326   C     0.91561   0.48309   0.43288   0.00000  Uiso   1.00
C327   C     0.88121   0.47561   0.40704   0.00000  Uiso   1.00
C328   C     0.83824   0.49131   0.06824   0.00000  Uiso   1.00
C329   C     0.92292   0.50324   0.06466   0.00000  Uiso   1.00
Cu330  Cu    0.78645   0.49999   0.25000   0.00000  Uiso   1.00
Cu331  Cu    0.88022   0.50001   0.25000   0.00000  Uiso   1.00
H332   H     0.95090   0.50964   0.08348   0.00000  Uiso   1.00
H333   H     0.97385   0.50445   0.48896   0.00000  Uiso   1.00
H334   H     0.80071   0.48972   0.09156   0.00000  Uiso   1.00
H335   H     0.75172   0.46772   0.05436   0.00000  Uiso   1.00
H336   H     0.69474   0.45851   0.00575   0.00000  Uiso   1.00
H337   H     0.89569   0.46502   0.36765   0.00000  Uiso   1.00
H338   H     0.90970   0.62937   0.24774   0.00000  Uiso   1.00
H339   H     0.69455   0.40795   0.42548   0.00000  Uiso   1.00
H340   H     0.74373   0.41694   0.36576   0.00000  Uiso   1.00
H341   H     0.68128   0.42594   0.36811   0.00000  Uiso   1.00
H342   H     0.90970   0.37063   0.24770   0.00000  Uiso   1.00
H343   H     0.75660   0.37067   0.25359   0.00000  Uiso   1.00
H344   H     0.75662   0.62940   0.25353   0.00000  Uiso   1.00
H345   H     0.93972   0.54301   0.31179   0.00000  Uiso   1.00
H346   H     0.69329   0.54287   0.31189   0.00000  Uiso   1.00
H347   H     0.72692   0.45687   0.18833   0.00000  Uiso   1.00
H348   H     0.97329   0.45690   0.18837   0.00000  Uiso   1.00
H349   H     0.95391   0.48275   0.41119   0.00000  Uiso   1.00
N350   N     0.71598   0.49999   0.24999   0.00000  Uiso   1.00
N351   N     0.95069   0.50002   0.25000   0.00000  Uiso   1.00
O352   O     0.79375   0.56011   0.25001   0.00000  Uiso   1.00
O353   O     0.87294   0.56012   0.25001   0.00000  Uiso   1.00
O354   O     0.77441   0.49998   0.32549   0.00000  Uiso   1.00
O355   O     0.85360   0.49999   0.32549   0.00000  Uiso   1.00
O356   O     0.79373   0.43988   0.25000   0.00000  Uiso   1.00
O357   O     0.87292   0.43989   0.25000   0.00000  Uiso   1.00
O358   O     0.81306   0.50001   0.17451   0.00000  Uiso   1.00
O359   O     0.89225   0.50002   0.17451   0.00000  Uiso   1.00
O360   O     0.71039   0.46953   0.40594   0.00000  Uiso   1.00
C361   C     0.16662   0.91264   0.25018   0.00000  Uiso   1.00
C362   C     0.12799   0.81535   0.40490   0.00000  Uiso   1.00
C363   C     0.20945   0.97872   0.24902   0.00000  Uiso   1.00
C364   C     0.14125   0.82762   0.34930   0.00000  Uiso   1.00
C365   C     0.20945   0.68796   0.24901   0.00000  Uiso   1.00
C366   C     0.16653   0.70942   0.25048   0.00000  Uiso   1.00
C367   C     0.12354   0.68798   0.25224   0.00000  Uiso   1.00
C368   C     0.12355   0.97874   0.25221   0.00000  Uiso   1.00
C369   C     0.16653   0.95727   0.25048   0.00000  Uiso   1.00
C370   C     0.29920   0.85719   0.28431   0.00000  Uiso   1.00
C371   C     0.01544   0.85712   0.28437   0.00000  Uiso   1.00
C372   C     0.14868   0.81290   0.48735   0.00000  Uiso   1.00
C373   C     0.03412   0.80941   0.21575   0.00000  Uiso   1.00
C374   C     0.31785   0.80942   0.21577   0.00000  Uiso   1.00
C375   C     0.16662   0.75403   0.25014   0.00000  Uiso   1.00
C376   C     0.19259   0.83346   0.15013   0.00000  Uiso   1.00
C377   C     0.26946   0.83310   0.01101   0.00000  Uiso   1.00
C378   C     0.20731   0.83179   0.09350   0.00000  Uiso   1.00
C379   C     0.07895   0.80589   0.43168   0.00000  Uiso   1.00
C380   C     0.06531   0.80002   0.48522   0.00000  Uiso   1.00
C381   C     0.09892   0.80516   0.01302   0.00000  Uiso   1.00
C382   C     0.04117   0.76148   0.39098   0.00000  Uiso   1.00
C383   C     0.16391   0.81275   0.43235   0.00000  Uiso   1.00
C384   C     0.18420   0.81996   0.01424   0.00000  Uiso   1.00
C385   C     0.23426   0.82363   0.48588   0.00000  Uiso   1.00
C386   C     0.24894   0.81643   0.43288   0.00000  Uiso   1.00
C387   C     0.21454   0.80894   0.40704   0.00000  Uiso   1.00
C388   C     0.17157   0.82465   0.06824   0.00000  Uiso   1.00
C389   C     0.25625   0.83657   0.06466   0.00000  Uiso   1.00
Cu390  Cu    0.11978   0.83333   0.25000   0.00000  Uiso   1.00
Cu391  Cu    0.21355   0.83334   0.25000   0.00000  Uiso   1.00
H392   H     0.28424   0.84297   0.08348   0.00000  Uiso   1.00
H393   H     0.30718   0.83778   0.48896   0.00000  Uiso   1.00
H394   H     0.13405   0.82306   0.09156   0.00000  Uiso   1.00
H395   H     0.08506   0.80105   0.05436   0.00000  Uiso   1.00
H396   H     0.02807   0.79185   0.00575   0.00000  Uiso   1.00
H397   H     0.22902   0.79835   0.36765   0.00000  Uiso   1.00
H398   H     0.24303   0.96270   0.24774   0.00000  Uiso   1.00
H399   H     0.02789   0.74128   0.42548   0.00000  Uiso   1.00
H400   H     0.07706   0.75027   0.36576   0.00000  Uiso   1.00
H401   H     0.01461   0.75927   0.36811   0.00000  Uiso   1.00
H402   H     0.24304   0.70396   0.24770   0.00000  Uiso   1.00
H403   H     0.08994   0.70401   0.25359   0.00000  Uiso   1.00
H404   H     0.08996   0.96273   0.25353   0.00000  Uiso   1.00
H405   H     0.27305   0.87634   0.31179   0.00000  Uiso   1.00
H406   H     0.02663   0.87620   0.31189   0.00000  Uiso   1.00
H407   H     0.06025   0.79020   0.18833   0.00000  Uiso   1.00
H408   H     0.30663   0.79023   0.18837   0.00000  Uiso   1.00
H409   H     0.28724   0.81609   0.41119   0.00000  Uiso   1.00
N410   N     0.04931   0.83332   0.24999   0.00000  Uiso   1.00
N411   N     0.28402   0.83335   0.25000   0.00000  Uiso   1.00
O412   O     0.12708   0.89345   0.25001   0.00000  Uiso   1.00
O413   O     0.20627   0.89346   0.25001   0.00000  Uiso   1.00
O414   O     0.10775   0.83332   0.32549   0.00000  Uiso   1.00
O415   O     0.18694   0.83333   0.32549   0.00000  Uiso   1.00
O416   O     0.12706   0.77321   0.25000   0.00000  Uiso   1.00
O417   O     0.20625   0.77322   0.25000   0.00000  Uiso   1.00
O418   O     0.14640   0.83334   0.17451   0.00000  Uiso   1.00
O419   O     0.22559   0.83335   0.17451   0.00000  Uiso   1.00
O420   O     0.04373   0.80287   0.40594   0.00000  Uiso   1.00
C421   C     0.49996   0.91264   0.25018   0.00000  Uiso   1.00
C422   C     0.46132   0.81535   0.40490   0.00000  Uiso   1.00
C423   C     0.54278   0.97872   0.24902   0.00000  Uiso   1.00
C424   C     0.47459   0.82762   0.34930   0.00000  Uiso   1.00
C425   C     0.54278   0.68796   0.24901   0.00000  Uiso   1.00
C426   C     0.49986   0.70942   0.25048   0.00000  Uiso   1.00
C427   C     0.45687   0.68798   0.25224   0.00000  Uiso   1.00
C428   C     0.45688   0.97874   0.25221   0.00000  Uiso   1.00
C429   C     0.49987   0.95727   0.25048   0.00000  Uiso   1.00
C430   C     0.63253   0.85719   0.28431   0.00000  Uiso   1.00
C431   C     0.34877   0.85712   0.28437   0.00000  Uiso   1.00
C432   C     0.48201   0.81290   0.48735   0.00000  Uiso   1.00
C433   C     0.36746   0.80941   0.21575   0.00000  Uiso   1.00
C434   C     0.65118   0.80942   0.21577   0.00000  Uiso   1.00
C435   C     0.49995   0.75403   0.25014   0.00000  Uiso   1.00
C436   C     0.52593   0.83346   0.15013   0.00000  Uiso   1.00
C437   C     0.60279   0.83310   0.01101   0.00000  Uiso   1.00
C438   C     0.54064   0.83179   0.09350   0.00000  Uiso   1.00
C439   C     0.41228   0.80589   0.43168   0.00000  Uiso   1.00
C440   C     0.39864   0.80002   0.48522   0.00000  Uiso   1.00
C441   C     0.43225   0.80516   0.01302   0.00000  Uiso   1.00
C442   C     0.37450   0.76148   0.39098   0.00000  Uiso   1.00
C443   C     0.49724   0.81275   0.43235   0.00000  Uiso   1.00
C444   C     0.51754   0.81996   0.01424   0.00000  Uiso   1.00
C445   C     0.56759   0.82363   0.48588   0.00000  Uiso   1.00
C446   C     0.58228   0.81643   0.43288   0.00000  Uiso   1.00
C447   C     0.54787   0.80894   0.40704   0.00000  Uiso   1.00
C448   C     0.50490   0.82465   0.06824   0.00000  Uiso   1.00
C449   C     0.58959   0.83657   0.06466   0.00000  Uiso   1.00
Cu450  Cu    0.45311   0.83333   0.25000   0.00000  Uiso   1.00
Cu451  Cu    0.54689   0.83334   0.25000   0.00000  Uiso   1.00
H452   H     0.61757   0.84297   0.08348   0.00000  Uiso   1.00
H453   H     0.64052   0.83778   0.48896   0.00000  Uiso   1.00
H454   H     0.46738   0.82306   0.09156   0.00000  Uiso   1.00
H455   H     0.41839   0.80105   0.05436   0.00000  Uiso   1.00
H456   H     0.36140   0.79185   0.00575   0.00000  Uiso   1.00
H457   H     0.56235   0.79835   0.36765   0.00000  Uiso   1.00
H458   H     0.57637   0.96270   0.24774   0.00000  Uiso   1.00
H459   H     0.36122   0.74128   0.42548   0.00000  Uiso   1.00
H460   H     0.41040   0.75027   0.36576   0.00000  Uiso   1.00
H461   H     0.34795   0.75927   0.36811   0.00000  Uiso   1.00
H462   H     0.57637   0.70396   0.24770   0.00000  Uiso   1.00
H463   H     0.42327   0.70401   0.25359   0.00000  Uiso   1.00
H464   H     0.42329   0.96273   0.25353   0.00000  Uiso   1.00
H465   H     0.60638   0.87634   0.31179   0.00000  Uiso   1.00
H466   H     0.35996   0.87620   0.31189   0.00000  Uiso   1.00
H467   H     0.39359   0.79020   0.18833   0.00000  Uiso   1.00
H468   H     0.63996   0.79023   0.18837   0.00000  Uiso   1.00
H469   H     0.62057   0.81609   0.41119   0.00000  Uiso   1.00
N470   N     0.38265   0.83332   0.24999   0.00000  Uiso   1.00
N471   N     0.61735   0.83335   0.25000   0.00000  Uiso   1.00
O472   O     0.46042   0.89345   0.25001   0.00000  Uiso   1.00
O473   O     0.53961   0.89346   0.25001   0.00000  Uiso   1.00
O474   O     0.44108   0.83332   0.32549   0.00000  Uiso   1.00
O475   O     0.52027   0.83333   0.32549   0.00000  Uiso   1.00
O476   O     0.46039   0.77321   0.25000   0.00000  Uiso   1.00
O477   O     0.53958   0.77322   0.25000   0.00000  Uiso   1.00
O478   O     0.47973   0.83334   0.17451   0.00000  Uiso   1.00
O479   O     0.55892   0.83335   0.17451   0.00000  Uiso   1.00
O480   O     0.37706   0.80287   0.40594   0.00000  Uiso   1.00
C481   C     0.83329   0.91264   0.25018   0.00000  Uiso   1.00
C482   C     0.79465   0.81535   0.40490   0.00000  Uiso   1.00
C483   C     0.87611   0.97872   0.24902   0.00000  Uiso   1.00
C484   C     0.80792   0.82762   0.34930   0.00000  Uiso   1.00
C485   C     0.87611   0.68796   0.24901   0.00000  Uiso   1.00
C486   C     0.83320   0.70942   0.25048   0.00000  Uiso   1.00
C487   C     0.79021   0.68798   0.25224   0.00000  Uiso   1.00
C488   C     0.79022   0.97874   0.25221   0.00000  Uiso   1.00
C489   C     0.83320   0.95727   0.25048   0.00000  Uiso   1.00
C490   C     0.96586   0.85719   0.28431   0.00000  Uiso   1.00
C491   C     0.68211   0.85712   0.28437   0.00000  Uiso   1.00
C492   C     0.81535   0.81290   0.48735   0.00000  Uiso   1.00
C493   C     0.70079   0.80941   0.21575   0.00000  Uiso   1.00
C494   C     0.98452   0.80942   0.21577   0.00000  Uiso   1.00
C495   C     0.83329   0.75403   0.25014   0.00000  Uiso   1.00
C496   C     0.85926   0.83346   0.15013   0.00000  Uiso   1.00
C497   C     0.93613   0.83310   0.01101   0.00000  Uiso   1.00
C498   C     0.87397   0.83179   0.09350   0.00000  Uiso   1.00
C499   C     0.74561   0.80589   0.43168   0.00000  Uiso   1.00
C500   C     0.73198   0.80002   0.48522   0.00000  Uiso   1.00
C501   C     0.76558   0.80516   0.01302   0.00000  Uiso   1.00
C502   C     0.70783   0.76148   0.39098   0.00000  Uiso   1.00
C503   C     0.83057   0.81275   0.43235   0.00000  Uiso   1.00
C504   C     0.85087   0.81996   0.01424   0.00000  Uiso   1.00
C505   C     0.90092   0.82363   0.48588   0.00000  Uiso   1.00
C506   C     0.91561   0.81643   0.43288   0.00000  Uiso   1.00
C507   C     0.88121   0.80894   0.40704   0.00000  Uiso   1.00
C508   C     0.83824   0.82465   0.06824   0.00000  Uiso   1.00
C509   C     0.92292   0.83657   0.06466   0.00000  Uiso   1.00
Cu510  Cu    0.78645   0.83333   0.25000   0.00000  Uiso   1.00
Cu511  Cu    0.88022   0.83334   0.25000   0.00000  Uiso   1.00
H512   H     0.95090   0.84297   0.08348   0.00000  Uiso   1.00
H513   H     0.97385   0.83778   0.48896   0.00000  Uiso   1.00
H514   H     0.80071   0.82306   0.09156   0.00000  Uiso   1.00
H515   H     0.75172   0.80105   0.05436   0.00000  Uiso   1.00
H516   H     0.69474   0.79185   0.00575   0.00000  Uiso   1.00
H517   H     0.89569   0.79835   0.36765   0.00000  Uiso   1.00
H518   H     0.90970   0.96270   0.24774   0.00000  Uiso   1.00
H519   H     0.69455   0.74128   0.42548   0.00000  Uiso   1.00
H520   H     0.74373   0.75027   0.36576   0.00000  Uiso   1.00
H521   H     0.68128   0.75927   0.36811   0.00000  Uiso   1.00
H522   H     0.90970   0.70396   0.24770   0.00000  Uiso   1.00
H523   H     0.75660   0.70401   0.25359   0.00000  Uiso   1.00
H524   H     0.75662   0.96273   0.25353   0.00000  Uiso   1.00
H525   H     0.93972   0.87634   0.31179   0.00000  Uiso   1.00
H526   H     0.69329   0.87620   0.31189   0.00000  Uiso   1.00
H527   H     0.72692   0.79020   0.18833   0.00000  Uiso   1.00
H528   H     0.97329   0.79023   0.18837   0.00000  Uiso   1.00
H529   H     0.95391   0.81609   0.41119   0.00000  Uiso   1.00
N530   N     0.71598   0.83332   0.24999   0.00000  Uiso   1.00
N531   N     0.95069   0.83335   0.25000   0.00000  Uiso   1.00
O532   O     0.79375   0.89345   0.25001   0.00000  Uiso   1.00
O533   O     0.87294   0.89346   0.25001   0.00000  Uiso   1.00
O534   O     0.77441   0.83332   0.32549   0.00000  Uiso   1.00
O535   O     0.85360   0.83333   0.32549   0.00000  Uiso   1.00
O536   O     0.79373   0.77321   0.25000   0.00000  Uiso   1.00
O537   O     0.87292   0.77322   0.25000   0.00000  Uiso   1.00
O538   O     0.81306   0.83334   0.17451   0.00000  Uiso   1.00
O539   O     0.89225   0.83335   0.17451   0.00000  Uiso   1.00
O540   O     0.71039   0.80287   0.40594   0.00000  Uiso   1.00
C541   C     0.16662   0.24597   0.75018   0.00000  Uiso   1.00
C542   C     0.12799   0.14869   0.90490   0.00000  Uiso   1.00
C543   C     0.20945   0.31205   0.74902   0.00000  Uiso   1.00
C544   C     0.14125   0.16096   0.84930   0.00000  Uiso   1.00
C545   C     0.20945   0.02129   0.74901   0.00000  Uiso   1.00
C546   C     0.16653   0.04275   0.75048   0.00000  Uiso   1.00
C547   C     0.12354   0.02131   0.75224   0.00000  Uiso   1.00
C548   C     0.12355   0.31207   0.75221   0.00000  Uiso   1.00
C549   C     0.16653   0.29060   0.75048   0.00000  Uiso   1.00
C550   C     0.29920   0.19053   0.78431   0.00000  Uiso   1.00
C551   C     0.01544   0.19045   0.78437   0.00000  Uiso   1.00
C552   C     0.14868   0.14624   0.98735   0.00000  Uiso   1.00
C553   C     0.03412   0.14275   0.71575   0.00000  Uiso   1.00
C554   C     0.31785   0.14275   0.71577   0.00000  Uiso   1.00
C555   C     0.16662   0.08736   0.75014   0.00000  Uiso   1.00
C556   C     0.19259   0.16679   0.65013   0.00000  Uiso   1.00
C557   C     0.26946   0.16643   0.51101   0.00000  Uiso   1.00
C558   C     0.20731   0.16512   0.59350   0.00000  Uiso   1.00
C559   C     0.07895   0.13922   0.93168   0.00000  Uiso   1.00
C560   C     0.06531   0.13335   0.98522   0.00000  Uiso   1.00
C561   C     0.09892   0.13849   0.51302   0.00000  Uiso   1.00
C562   C     0.04117   0.09481   0.89098   0.00000  Uiso   1.00
C563   C     0.16391   0.14608   0.93235   0.00000  Uiso   1.00
C564   C     0.18420   0.15329   0.51424   0.00000  Uiso   1.00
C565   C     0.23426   0.15697   0.98588   0.00000  Uiso   1.00
C566   C     0.24894   0.14976   0.93288   0.00000  Uiso   1.00
C567   C     0.21454   0.14228   0.90704   0.00000  Uiso   1.00
C568   C     0.17157   0.15798   0.56824   0.00000  Uiso   1.00
C569   C     0.25625   0.16990   0.56466   0.00000  Uiso   1.00
Cu570  Cu    0.11978   0.16666   0.75000   0.00000  Uiso   1.00
Cu571  Cu    0.21355   0.16667   0.75000   0.00000  Uiso   1.00
H572   H     0.28424   0.17631   0.58348   0.00000  Uiso   1.00
H573   H     0.30718   0.17112   0.98896   0.00000  Uiso   1.00
H574   H     0.13405   0.15639   0.59156   0.00000  Uiso   1.00
H575   H     0.08506   0.13439   0.55436   0.00000  Uiso   1.00
H576   H     0.02807   0.12518   0.50575   0.00000  Uiso   1.00
H577   H     0.22902   0.13169   0.86765   0.00000  Uiso   1.00
H578   H     0.24303   0.29604   0.74774   0.00000  Uiso   1.00
H579   H     0.02789   0.07461   0.92548   0.00000  Uiso   1.00
H580   H     0.07706   0.08360   0.86576   0.00000  Uiso   1.00
H581   H     0.01461   0.09261   0.86811   0.00000  Uiso   1.00
H582   H     0.24304   0.03729   0.74770   0.00000  Uiso   1.00
H583   H     0.08994   0.03734   0.75359   0.00000  Uiso   1.00
H584   H     0.08996   0.29607   0.75353   0.00000  Uiso   1.00
H585   H     0.27305   0.20968   0.81179   0.00000  Uiso   1.00
H586   H     0.02663   0.20953   0.81189   0.00000  Uiso   1.00
H587   H     0.06025   0.12353   0.68833   0.00000  Uiso   1.00
H588   H     0.30663   0.12356   0.68837   0.00000  Uiso   1.00
H589   H     0.28724   0.14942   0.91119   0.00000  Uiso   1.00
N590   N     0.04931   0.16666   0.74999   0.00000  Uiso   1.00
N591   N     0.28402   0.16669   0.75000   0.00000  Uiso   1.00
O592   O     0.12708   0.22678   0.75001   0.00000  Uiso   1.00
O593   O     0.20627   0.22679   0.75001   0.00000  Uiso   1.00
O594   O     0.10775   0.16665   0.82549   0.00000  Uiso   1.00
O595   O     0.18694   0.16666   0.82549   0.00000  Uiso   1.00
O596   O     0.12706   0.10654   0.75000   0.00000  Uiso   1.00
O597   O     0.20625   0.10655   0.75000   0.00000  Uiso   1.00
O598   O     0.14640   0.16667   0.67451   0.00000  Uiso   1.00
O599   O     0.22559   0.16668   0.67451   0.00000  Uiso   1.00
O600   O     0.04373   0.13620   0.90594   0.00000  Uiso   1.00
C601   C     0.49996   0.24597   0.75018   0.00000  Uiso   1.00
C602   C     0.46132   0.14869   0.90490   0.00000  Uiso   1.00
C603   C     0.54278   0.31205   0.74902   0.00000  Uiso   1.00
C604   C     0.47459   0.16096   0.84930   0.00000  Uiso   1.00
C605   C     0.54278   0.02129   0.74901   0.00000  Uiso   1.00
C606   C     0.49986   0.04275   0.75048   0.00000  Uiso   1.00
C607   C     0.45687   0.02131   0.75224   0.00000  Uiso   1.00
C608   C     0.45688   0.31207   0.75221   0.00000  Uiso   1.00
C609   C     0.49987   0.29060   0.75048   0.00000  Uiso   1.00
C610   C     0.63253   0.19053   0.78431   0.00000  Uiso   1.00
C611   C     0.34877   0.19045   0.78437   0.00000  Uiso   1.00
C612   C     0.48201   0.14624   0.98735   0.00000  Uiso   1.00
C613   C     0.36746   0.14275   0.71575   0.00000  Uiso   1.00
C614   C     0.65118   0.14275   0.71577   0.00000  Uiso   1.00
C615   C     0.49995   0.08736   0.75014   0.00000  Uiso   1.00
C616   C     0.52593   0.16679   0.65013   0.00000  Uiso   1.00
C617   C     0.60279   0.16643   0.51101   0.00000  Uiso   1.00
C618   C     0.54064   0.16512   0.59350   0.00000  Uiso   1.00
C619   C     0.41228   0.13922   0.93168   0.00000  Uiso   1.00
C620   C     0.39864   0.13335   0.98522   0.00000  Uiso   1.00
C621   C     0.43225   0.13849   0.51302   0.00000  Uiso   1.00
C622   C     0.37450   0.09481   0.89098   0.00000  Uiso   1.00
C623   C     0.49724   0.14608   0.93235   0.00000  Uiso   1.00
C624   C     0.51754   0.15329   0.51424   0.00000  Uiso   1.00
C625   C     0.56759   0.15697   0.98588   0.00000  Uiso   1.00
C626   C     0.58228   0.14976   0.93288   0.00000  Uiso   1.00
C627   C     0.54787   0.14228   0.90704   0.00000  Uiso   1.00
C628   C     0.50490   0.15798   0.56824   0.00000  Uiso   1.00
C629   C     0.58959   0.16990   0.56466   0.00000  Uiso   1.00
Cu630  Cu    0.45311   0.16666   0.75000   0.00000  Uiso   1.00
Cu631  Cu    0.54689   0.16667   0.75000   0.00000  Uiso   1.00
H632   H     0.61757   0.17631   0.58348   0.00000  Uiso   1.00
H633   H     0.64052   0.17112   0.98896   0.00000  Uiso   1.00
H634   H     0.46738   0.15639   0.59156   0.00000  Uiso   1.00
H635   H     0.41839   0.13439   0.55436   0.00000  Uiso   1.00
H636   H     0.36140   0.12518   0.50575   0.00000  Uiso   1.00
H637   H     0.56235   0.13169   0.86765   0.00000  Uiso   1.00
H638   H     0.57637   0.29604   0.74774   0.00000  Uiso   1.00
H639   H     0.36122   0.07461   0.92548   0.00000  Uiso   1.00
H640   H     0.41040   0.08360   0.86576   0.00000  Uiso   1.00
H641   H     0.34795   0.09261   0.86811   0.00000  Uiso   1.00
H642   H     0.57637   0.03729   0.74770   0.00000  Uiso   1.00
H643   H     0.42327   0.03734   0.75359   0.00000  Uiso   1.00
H644   H     0.42329   0.29607   0.75353   0.00000  Uiso   1.00
H645   H     0.60638   0.20968   0.81179   0.00000  Uiso   1.00
H646   H     0.35996   0.20953   0.81189   0.00000  Uiso   1.00
H647   H     0.39359   0.12353   0.68833   0.00000  Uiso   1.00
H648   H     0.63996   0.12356   0.68837   0.00000  Uiso   1.00
H649   H     0.62057   0.14942   0.91119   0.00000  Uiso   1.00
N650   N     0.38265   0.16666   0.74999   0.00000  Uiso   1.00
N651   N     0.61735   0.16669   0.75000   0.00000  Uiso   1.00
O652   O     0.46042   0.22678   0.75001   0.00000  Uiso   1.00
O653   O     0.53961   0.22679   0.75001   0.00000  Uiso   1.00
O654   O     0.44108   0.16665   0.82549   0.00000  Uiso   1.00
O655   O     0.52027   0.16666   0.82549   0.00000  Uiso   1.00
O656   O     0.46039   0.10654   0.75000   0.00000  Uiso   1.00
O657   O     0.53958   0.10655   0.75000   0.00000  Uiso   1.00
O658   O     0.47973   0.16667   0.67451   0.00000  Uiso   1.00
O659   O     0.55892   0.16668   0.67451   0.00000  Uiso   1.00
O660   O     0.37706   0.13620   0.90594   0.00000  Uiso   1.00
C661   C     0.83329   0.24597   0.75018   0.00000  Uiso   1.00
C662   C     0.79465   0.14869   0.90490   0.00000  Uiso   1.00
C663   C     0.87611   0.31205   0.74902   0.00000  Uiso   1.00
C664   C     0.80792   0.16096   0.84930   0.00000  Uiso   1.00
C665   C     0.87611   0.02129   0.74901   0.00000  Uiso   1.00
C666   C     0.83320   0.04275   0.75048   0.00000  Uiso   1.00
C667   C     0.79021   0.02131   0.75224   0.00000  Uiso   1.00
C668   C     0.79022   0.31207   0.75221   0.00000  Uiso   1.00
C669   C     0.83320   0.29060   0.75048   0.00000  Uiso   1.00
C670   C     0.96586   0.19053   0.78431   0.00000  Uiso   1.00
C671   C     0.68211   0.19045   0.78437   0.00000  Uiso   1.00
C672   C     0.81535   0.14624   0.98735   0.00000  Uiso   1.00
C673   C     0.70079   0.14275   0.71575   0.00000  Uiso   1.00
C674   C     0.98452   0.14275   0.71577   0.00000  Uiso   1.00
C675   C     0.83329   0.08736   0.75014   0.00000  Uiso   1.00
C676   C     0.85926   0.16679   0.65013   0.00000  Uiso   1.00
C677   C     0.93613   0.16643   0.51101   0.00000  Uiso   1.00
C678   C     0.87397   0.16512   0.59350   0.00000  Uiso   1.00
C679   C     0.74561   0.13922   0.93168   0.00000  Uiso   1.00
C680   C     0.73198   0.13335   0.98522   0.00000  Uiso   1.00
C681   C     0.76558   0.13849   0.51302   0.00000  Uiso   1.00
C682   C     0.70783   0.09481   0.89098   0.00000  Uiso   1.00
C683   C     0.83057   0.14608   0.93235   0.00000  Uiso   1.00
C684   C     0.85087   0.15329   0.51424   0.00000  Uiso   1.00
C685   C     0.90092   0.15697   0.98588   0.00000  Uiso   1.00
C686   C     0.91561   0.14976   0.93288   0.00000  Uiso   1.00
C687   C     0.88121   0.14228   0.90704   0.00000  Uiso   1.00
C688   C     0.83824   0.15798   0.56824   0.00000  Uiso   1.00
C689   C     0.92292   0.16990   0.56466   0.00000  Uiso   1.00
Cu690  Cu    0.78645   0.16666   0.75000   0.00000  Uiso   1.00
Cu691  Cu    0.88022   0.16667   0.75000   0.00000  Uiso   1.00
H692   H     0.95090   0.17631   0.58348   0.00000  Uiso   1.00
H693   H     0.97385   0.17112   0.98896   0.00000  Uiso   1.00
H694   H     0.80071   0.15639   0.59156   0.00000  Uiso   1.00
H695   H     0.75172   0.13439   0.55436   0.00000  Uiso   1.00
H696   H     0.69474   0.12518   0.50575   0.00000  Uiso   1.00
H697   H     0.89569   0.13169   0.86765   0.00000  Uiso   1.00
H698   H     0.90970   0.29604   0.74774   0.00000  Uiso   1.00
H699   H     0.69455   0.07461   0.92548   0.00000  Uiso   1.00
H700   H     0.74373   0.08360   0.86576   0.00000  Uiso   1.00
H701   H     0.68128   0.09261   0.86811   0.00000  Uiso   1.00
H702   H     0.90970   0.03729   0.74770   0.00000  Uiso   1.00
H703   H     0.75660   0.03734   0.75359   0.00000  Uiso   1.00
H704   H     0.75662   0.29607   0.75353   0.00000  Uiso   1.00
H705   H     0.93972   0.20968   0.81179   0.00000  Uiso   1.00
H706   H     0.69329   0.20953   0.81189   0.00000  Uiso   1.00
H707   H     0.72692   0.12353   0.68833   0.00000  Uiso   1.00
H708   H     0.97329   0.12356   0.68837   0.00000  Uiso   1.00
H709   H     0.95391   0.14942   0.91119   0.00000  Uiso   1.00
N710   N     0.71598   0.16666   0.74999   0.00000  Uiso   1.00
N711   N     0.95069   0.16669   0.75000   0.00000  Uiso   1.00
O712   O     0.79375   0.22678   0.75001   0.00000  Uiso   1.00
O713   O     0.87294   0.22679   0.75001   0.00000  Uiso   1.00
O714   O     0.77441   0.16665   0.82549   0.00000  Uiso   1.00
O715   O     0.85360   0.16666   0.82549   0.00000  Uiso   1.00
O716   O     0.79373   0.10654   0.75000   0.00000  Uiso   1.00
O717   O     0.87292   0.10655   0.75000   0.00000  Uiso   1.00
O718   O     0.81306   0.16667   0.67451   0.00000  Uiso   1.00
O719   O     0.89225   0.16668   0.67451   0.00000  Uiso   1.00
O720   O     0.71039   0.13620   0.90594   0.00000  Uiso   1.00
C721   C     0.16662   0.57931   0.75018   0.00000  Uiso   1.00
C722   C     0.12799   0.48202   0.90490   0.00000  Uiso   1.00
C723   C     0.20945   0.64539   0.74902   0.00000  Uiso   1.00
C724   C     0.14125   0.49429   0.84930   0.00000  Uiso   1.00
C725   C     0.20945   0.35462   0.74901   0.00000  Uiso   1.00
C726   C     0.16653   0.37609   0.75048   0.00000  Uiso   1.00
C727   C     0.12354   0.35465   0.75224   0.00000  Uiso   1.00
C728   C     0.12355   0.64540   0.75221   0.00000  Uiso   1.00
C729   C     0.16653   0.62393   0.75048   0.00000  Uiso   1.00
C730   C     0.29920   0.52386   0.78431   0.00000  Uiso   1.00
C731   C     0.01544   0.52379   0.78437   0.00000  Uiso   1.00
C732   C     0.14868   0.47957   0.98735   0.00000  Uiso   1.00
C733   C     0.03412   0.47608   0.71575   0.00000  Uiso   1.00
C734   C     0.31785   0.47608   0.71577   0.00000  Uiso   1.00
C735   C     0.16662   0.42070   0.75014   0.00000  Uiso   1.00
C736   C     0.19259   0.50013   0.65013   0.00000  Uiso   1.00
C737   C     0.26946   0.49976   0.51101   0.00000  Uiso   1.00
C738   C     0.20731   0.49845   0.59350   0.00000  Uiso   1.00
C739   C     0.07895   0.47255   0.93168   0.00000  Uiso   1.00
C740   C     0.06531   0.46668   0.98522   0.00000  Uiso   1.00
C741   C     0.09892   0.47183   0.51302   0.00000  Uiso   1.00
C742   C     0.04117   0.42815   0.89098   0.00000  Uiso   1.00
C743   C     0.16391   0.47941   0.93235   0.00000  Uiso   1.00
C744   C     0.18420   0.48662   0.51424   0.00000  Uiso   1.00
C745   C     0.23426   0.49030   0.98588   0.00000  Uiso   1.00
C746   C     0.24894   0.48309   0.93288   0.00000  Uiso   1.00
C747   C     0.21454   0.47561   0.90704   0.00000  Uiso   1.00
C748   C     0.17157   0.49131   0.56824   0.00000  Uiso   1.00
C749   C     0.25625   0.50324   0.56466   0.00000  Uiso   1.00
Cu750  Cu    0.11978   0.49999   0.75000   0.00000  Uiso   1.00
Cu751  Cu    0.21355   0.50001   0.75000   0.00000  Uiso   1.00
H752   H     0.28424   0.50964   0.58348   0.00000  Uiso   1.00
H753   H     0.30718   0.50445   0.98896   0.00000  Uiso   1.00
H754   H     0.13405   0.48972   0.59156   0.00000  Uiso   1.00
H755   H     0.08506   0.46772   0.55436   0.00000  Uiso   1.00
H756   H     0.02807   0.45851   0.50575   0.00000  Uiso   1.00
H757   H     0.22902   0.46502   0.86765   0.00000  Uiso   1.00
H758   H     0.24303   0.62937   0.74774   0.00000  Uiso   1.00
H759   H     0.02789   0.40795   0.92548   0.00000  Uiso   1.00
H760   H     0.07706   0.41694   0.86576   0.00000  Uiso   1.00
H761   H     0.01461   0.42594   0.86811   0.00000  Uiso   1.00
H762   H     0.24304   0.37063   0.74770   0.00000  Uiso   1.00
H763   H     0.08994   0.37067   0.75359   0.00000  Uiso   1.00
H764   H     0.08996   0.62940   0.75353   0.00000  Uiso   1.00
H765   H     0.27305   0.54301   0.81179   0.00000  Uiso   1.00
H766   H     0.02663   0.54287   0.81189   0.00000  Uiso   1.00
H767   H     0.06025   0.45687   0.68833   0.00000  Uiso   1.00
H768   H     0.30663   0.45690   0.68837   0.00000  Uiso   1.00
H769   H     0.28724   0.48275   0.91119   0.00000  Uiso   1.00
N770   N     0.04931   0.49999   0.74999   0.00000  Uiso   1.00
N771   N     0.28402   0.50002   0.75000   0.00000  Uiso   1.00
O772   O     0.12708   0.56011   0.75001   0.00000  Uiso   1.00
O773   O     0.20627   0.56012   0.75001   0.00000  Uiso   1.00
O774   O     0.10775   0.49998   0.82549   0.00000  Uiso   1.00
O775   O     0.18694   0.49999   0.82549   0.00000  Uiso   1.00
O776   O     0.12706   0.43988   0.75000   0.00000  Uiso   1.00
O777   O     0.20625   0.43989   0.75000   0.00000  Uiso   1.00
O778   O     0.14640   0.50001   0.67451   0.00000  Uiso   1.00
O779   O     0.22559   0.50002   0.67451   0.00000  Uiso   1.00
O780   O     0.04373   0.46953   0.90594   0.00000  Uiso   1.00
C781   C     0.49996   0.57931   0.75018   0.00000  Uiso   1.00
C782   C     0.46132   0.48202   0.90490   0.00000  Uiso   1.00
C783   C     0.54278   0.64539   0.74902   0.00000  Uiso   1.00
C784   C     0.47459   0.49429   0.84930   0.00000  Uiso   1.00
C785   C     0.54278   0.35462   0.74901   0.00000  Uiso   1.00
C786   C     0.49986   0.37609   0.75048   0.00000  Uiso   1.00
C787   C     0.45687   0.35465   0.75224   0.00000  Uiso   1.00
C788   C     0.45688   0.64540   0.75221   0.00000  Uiso   1.00
C789   C     0.49987   0.62393   0.75048   0.00000  Uiso   1.00
C790   C     0.63253   0.52386   0.78431   0.00000  Uiso   1.00
C791   C     0.34877   0.52379   0.78437   0.00000  Uiso   1.00
C792   C     0.48201   0.47957   0.98735   0.00000  Uiso   1.00
C793   C     0.36746   0.47608   0.71575   0.00000  Uiso   1.00
C794   C     0.65118   0.47608   0.71577   0.00000  Uiso   1.00
C795   C     0.49995   0.42070   0.75014   0.00000  Uiso   1.00
C796   C     0.52593   0.50013   0.65013   0.00000  Uiso   1.00
C797   C     0.60279   0.49976   0.51101   0.00000  Uiso   1.00
C798   C     0.54064   0.49845   0.59350   0.00000  Uiso   1.00
C799   C     0.41228   0.47255   0.93168   0.00000  Uiso   1.00
C800   C     0.39864   0.46668   0.98522   0.00000  Uiso   1.00
C801   C     0.43225   0.47183   0.51302   0.00000  Uiso   1.00
C802   C     0.37450   0.42815   0.89098   0.00000  Uiso   1.00
C803   C     0.49724   0.47941   0.93235   0.00000  Uiso   1.00
C804   C     0.51754   0.48662   0.51424   0.00000  Uiso   1.00
C805   C     0.56759   0.49030   0.98588   0.00000  Uiso   1.00
C806   C     0.58228   0.48309   0.93288   0.00000  Uiso   1.00
C807   C     0.54787   0.47561   0.90704   0.00000  Uiso   1.00
C808   C     0.50490   0.49131   0.56824   0.00000  Uiso   1.00
C809   C     0.58959   0.50324   0.56466   0.00000  Uiso   1.00
Cu810  Cu    0.45311   0.49999   0.75000   0.00000  Uiso   1.00
Cu811  Cu    0.54689   0.50001   0.75000   0.00000  Uiso   1.00
H812   H     0.61757   0.50964   0.58348   0.00000  Uiso   1.00
H813   H     0.64052   0.50445   0.98896   0.00000  Uiso   1.00
H814   H     0.46738   0.48972   0.59156   0.00000  Uiso   1.00
H815   H     0.41839   0.46772   0.55436   0.00000  Uiso   1.00
H816   H     0.36140   0.45851   0.50575   0.00000  Uiso   1.00
H817   H     0.56235   0.46502   0.86765   0.00000  Uiso   1.00
H818   H     0.57637   0.62937   0.74774   0.00000  Uiso   1.00
H819   H     0.36122   0.40795   0.92548   0.00000  Uiso   1.00
H820   H     0.41040   0.41694   0.86576   0.00000  Uiso   1.00
H821   H     0.34795   0.42594   0.86811   0.00000  Uiso   1.00
H822   H     0.57637   0.37063   0.74770   0.00000  Uiso   1.00
H823   H     0.42327   0.37067   0.75359   0.00000  Uiso   1.00
H824   H     0.42329   0.62940   0.75353   0.00000  Uiso   1.00
H825   H     0.60638   0.54301   0.81179   0.00000  Uiso   1.00
H826   H     0.35996   0.54287   0.81189   0.00000  Uiso   1.00
H827   H     0.39359   0.45687   0.68833   0.00000  Uiso   1.00
H828   H     0.63996   0.45690   0.68837   0.00000  Uiso   1.00
H829   H     0.62057   0.48275   0.91119   0.00000  Uiso   1.00
N830   N     0.38265   0.49999   0.74999   0.00000  Uiso   1.00
N831   N     0.61735   0.50002   0.75000   0.00000  Uiso   1.00
O832   O     0.46042   0.56011   0.75001   0.00000  Uiso   1.00
O833   O     0.53961   0.56012   0.75001   0.00000  Uiso   1.00
O834   O     0.44108   0.49998   0.82549   0.00000  Uiso   1.00
O835   O     0.52027   0.49999   0.82549   0.00000  Uiso   1.00
O836   O     0.46039   0.43988   0.75000   0.00000  Uiso   1.00
O837   O     0.53958   0.43989   0.75000   0.00000  Uiso   1.00
O838   O     0.47973   0.50001   0.67451   0.00000  Uiso   1.00
O839   O     0.55892   0.50002   0.67451   0.00000  Uiso   1.00
O840   O     0.37706   0.46953   0.90594   0.00000  Uiso   1.00
C841   C     0.83329   0.57931   0.75018   0.00000  Uiso   1.00
C842   C     0.79465   0.48202   0.90490   0.00000  Uiso   1.00
C843   C     0.87611   0.64539   0.74902   0.00000  Uiso   1.00
C844   C     0.80792   0.49429   0.84930   0.00000  Uiso   1.00
C845   C     0.87611   0.35462   0.74901   0.00000  Uiso   1.00
C846   C     0.83320   0.37609   0.75048   0.00000  Uiso   1.00
C847   C     0.79021   0.35465   0.75224   0.00000  Uiso   1.00
C848   C     0.79022   0.64540   0.75221   0.00000  Uiso   1.00
C849   C     0.83320   0.62393   0.75048   0.00000  Uiso   1.00
C850   C     0.96586   0.52386   0.78431   0.00000  Uiso   1.00
C851   C     0.68211   0.52379   0.78437   0.00000  Uiso   1.00
C852   C     0.81535   0.47957   0.98735   0.00000  Uiso   1.00
C853   C     0.70079   0.47608   0.71575   0.00000  Uiso   1.00
C854   C     0.98452   0.47608   0.71577   0.00000  Uiso   1.00
C855   C     0.83329   0.42070   0.75014   0.00000  Uiso   1.00
C856   C     0.85926   0.50013   0.65013   0.00000  Uiso   1.00
C857   C     0.93613   0.49976   0.51101   0.00000  Uiso   1.00
C858   C     0.87397   0.49845   0.59350   0.00000  Uiso   1.00
C859   C     0.74561   0.47255   0.93168   0.00000  Uiso   1.00
C860   C     0.73198   0.46668   0.98522   0.00000  Uiso   1.00
C861   C     0.76558   0.47183   0.51302   0.00000  Uiso   1.00
C862   C     0.70783   0.42815   0.89098   0.00000  Uiso   1.00
C863   C     0.83057   0.47941   0.93235   0.00000  Uiso   1.00
C864   C     0.85087   0.48662   0.51424   0.00000  Uiso   1.00
C865   C     0.90092   0.49030   0.98588   0.00000  Uiso   1.00
C866   C     0.91561   0.48309   0.93288   0.00000  Uiso   1.00
C867   C     0.88121   0.47561   0.90704   0.00000  Uiso   1.00
C868   C     0.83824   0.49131   0.56824   0.00000  Uiso   1.00
C869   C     0.92292   0.50324   0.56466   0.00000  Uiso   1.00
Cu870  Cu    0.78645   0.49999   0.75000   0.00000  Uiso   1.00
Cu871  Cu    0.88022   0.50001   0.75000   0.00000  Uiso   1.00
H872   H     0.95090   0.50964   0.58348   0.00000  Uiso   1.00
H873   H     0.97385   0.50445   0.98896   0.00000  Uiso   1.00
H874   H     0.80071   0.48972   0.59156   0.00000  Uiso   1.00
H875   H     0.75172   0.46772   0.55436   0.00000  Uiso   1.00
H876   H     0.69474   0.45851   0.50575   0.00000  Uiso   1.00
H877   H     0.89569   0.46502   0.86765   0.00000  Uiso   1.00
H878   H     0.90970   0.62937   0.74774   0.00000  Uiso   1.00
H879   H     0.69455   0.40795   0.92548   0.00000  Uiso   1.00
H880   H     0.74373   0.41694   0.86576   0.00000  Uiso   1.00
H881   H     0.68128   0.42594   0.86811   0.00000  Uiso   1.00
H882   H     0.90970   0.37063   0.74770   0.00000  Uiso   1.00
H883   H     0.75660   0.37067   0.75359   0.00000  Uiso   1.00
H884   H     0.75662   0.62940   0.75353   0.00000  Uiso   1.00
H885   H     0.93972   0.54301   0.81179   0.00000  Uiso   1.00
H886   H     0.69329   0.54287   0.81189   0.00000  Uiso   1.00
H887   H     0.72692   0.45687   0.68833   0.00000  Uiso   1.00
H888   H     0.97329   0.45690   0.68837   0.00000  Uiso   1.00
H889   H     0.95391   0.48275   0.91119   0.00000  Uiso   1.00
N890   N     0.71598   0.49999   0.74999   0.00000  Uiso   1.00
N891   N     0.95069   0.50002   0.75000   0.00000  Uiso   1.00
O892   O     0.79375   0.56011   0.75001   0.00000  Uiso   1.00
O893   O     0.87294   0.56012   0.75001   0.00000  Uiso   1.00
O894   O     0.77441   0.49998   0.82549   0.00000  Uiso   1.00
O895   O     0.85360   0.49999   0.82549   0.00000  Uiso   1.00
O896   O     0.79373   0.43988   0.75000   0.00000  Uiso   1.00
O897   O     0.87292   0.43989   0.75000   0.00000  Uiso   1.00
O898   O     0.81306   0.50001   0.67451   0.00000  Uiso   1.00
O899   O     0.89225   0.50002   0.67451   0.00000  Uiso   1.00
O900   O     0.71039   0.46953   0.90594   0.00000  Uiso   1.00
C901   C     0.16662   0.91264   0.75018   0.00000  Uiso   1.00
C902   C     0.12799   0.81535   0.90490   0.00000  Uiso   1.00
C903   C     0.20945   0.97872   0.74902   0.00000  Uiso   1.00
C904   C     0.14125   0.82762   0.84930   0.00000  Uiso   1.00
C905   C     0.20945   0.68796   0.74901   0.00000  Uiso   1.00
C906   C     0.16653   0.70942   0.75048   0.00000  Uiso   1.00
C907   C     0.12354   0.68798   0.75224   0.00000  Uiso   1.00
C908   C     0.12355   0.97874   0.75221   0.00000  Uiso   1.00
C909   C     0.16653   0.95727   0.75048   0.00000  Uiso   1.00
C910   C     0.29920   0.85719   0.78431   0.00000  Uiso   1.00
C911   C     0.01544   0.85712   0.78437   0.00000  Uiso   1.00
C912   C     0.14868   0.81290   0.98735   0.00000  Uiso   1.00
C913   C     0.03412   0.80941   0.71575   0.00000  Uiso   1.00
C914   C     0.31785   0.80942   0.71577   0.00000  Uiso   1.00
C915   C     0.16662   0.75403   0.75014   0.00000  Uiso   1.00
C916   C     0.19259   0.83346   0.65013   0.00000  Uiso   1.00
C917   C     0.26946   0.83310   0.51101   0.00000  Uiso   1.00
C918   C     0.20731   0.83179   0.59350   0.00000  Uiso   1.00
C919   C     0.07895   0.80589   0.93168   0.00000  Uiso   1.00
C920   C     0.06531   0.80002   0.98522   0.00000  Uiso   1.00
C921   C     0.09892   0.80516   0.51302   0.00000  Uiso   1.00
C922   C     0.04117   0.76148   0.89098   0.00000  Uiso   1.00
C923   C     0.16391   0.81275   0.93235   0.00000  Uiso   1.00
C924   C     0.18420   0.81996   0.51424   0.00000  Uiso   1.00
C925   C     0.23426   0.82363   0.98588   0.00000  Uiso   1.00
C926   C     0.24894   0.81643   0.93288   0.00000  Uiso   1.00
C927   C     0.21454   0.80894   0.90704   0.00000  Uiso   1.00
C928   C     0.17157   0.82465   0.56824   0.00000  Uiso   1.00
C929   C     0.25625   0.83657   0.56466   0.00000  Uiso   1.00
Cu930  Cu    0.11978   0.83333   0.75000   0.00000  Uiso   1.00
Cu931  Cu    0.21355   0.83334   0.75000   0.00000  Uiso   1.00
H932   H     0.28424   0.84297   0.58348   0.00000  Uiso   1.00
H933   H     0.30718   0.83778   0.98896   0.00000  Uiso   1.00
H934   H     0.13405   0.82306   0.59156   0.00000  Uiso   1.00
H935   H     0.08506   0.80105   0.55436   0.00000  Uiso   1.00
H936   H     0.02807   0.79185   0.50575   0.00000  Uiso   1.00
H937   H     0.22902   0.79835   0.86765   0.00000  Uiso   1.00
H938   H     0.24303   0.96270   0.74774   0.00000  Uiso   1.00
H939   H     0.02789   0.74128   0.92548   0.00000  Uiso   1.00
H940   H     0.07706   0.75027   0.86576   0.00000  Uiso   1.00
H941   H     0.01461   0.75927   0.86811   0.00000  Uiso   1.00
H942   H     0.24304   0.70396   0.74770   0.00000  Uiso   1.00
H943   H     0.08994   0.70401   0.75359   0.00000  Uiso   1.00
H944   H     0.08996   0.96273   0.75353   0.00000  Uiso   1.00
H945   H     0.27305   0.87634   0.81179   0.00000  Uiso   1.00
H946   H     0.02663   0.87620   0.81189   0.00000  Uiso   1.00
H947   H     0.06025   0.79020   0.68833   0.00000  Uiso   1.00
H948   H     0.30663   0.79023   0.68837   0.00000  Uiso   1.00
H949   H     0.28724   0.81609   0.91119   0.00000  Uiso   1.00
N950   N     0.04931   0.83332   0.74999   0.00000  Uiso   1.00
N951   N     0.28402   0.83335   0.75000   0.00000  Uiso   1.00
O952   O     0.12708   0.89345   0.75001   0.00000  Uiso   1.00
O953   O     0.20627   0.89346   0.75001   0.00000  Uiso   1.00
O954   O     0.10775   0.83332   0.82549   0.00000  Uiso   1.00
O955   O     0.18694   0.83333   0.82549   0.00000  Uiso   1.00
O956   O     0.12706   0.77321   0.75000   0.00000  Uiso   1.00
O957   O     0.20625   0.77322   0.75000   0.00000  Uiso   1.00
O958   O     0.14640   0.83334   0.67451   0.00000  Uiso   1.00
O959   O     0.22559   0.83335   0.67451   0.00000  Uiso   1.00
O960   O     0.04373   0.80287   0.90594   0.00000  Uiso   1.00
C961   C     0.49996   0.91264   0.75018   0.00000  Uiso   1.00
C962   C     0.46132   0.81535   0.90490   0.00000  Uiso   1.00
C963   C     0.54278   0.97872   0.74902   0.00000  Uiso   1.00
C964   C     0.47459   0.82762   0.84930   0.00000  Uiso   1.00
C965   C     0.54278   0.68796   0.74901   0.00000  Uiso   1.00
C966   C     0.49986   0.70942   0.75048   0.00000  Uiso   1.00
C967   C     0.45687   0.68798   0.75224   0.00000  Uiso   1.00
C968   C     0.45688   0.97874   0.75221   0.00000  Uiso   1.00
C969   C     0.49987   0.95727   0.75048   0.00000  Uiso   1.00
C970   C     0.63253   0.85719   0.78431   0.00000  Uiso   1.00
C971   C     0.34877   0.85712   0.78437   0.00000  Uiso   1.00
C972   C     0.48201   0.81290   0.98735   0.00000  Uiso   1.00
C973   C     0.36746   0.80941   0.71575   0.00000  Uiso   1.00
C974   C     0.65118   0.80942   0.71577   0.00000  Uiso   1.00
C975   C     0.49995   0.75403   0.75014   0.00000  Uiso   1.00
C976   C     0.52593   0.83346   0.65013   0.00000  Uiso   1.00
C977   C     0.60279   0.83310   0.51101   0.00000  Uiso   1.00
C978   C     0.54064   0.83179   0.59350   0.00000  Uiso   1.00
C979   C     0.41228   0.80589   0.93168   0.00000  Uiso   1.00
C980   C     0.39864   0.80002   0.98522   0.00000  Uiso   1.00
C981   C     0.43225   0.80516   0.51302   0.00000  Uiso   1.00
C982   C     0.37450   0.76148   0.89098   0.00000  Uiso   1.00
C983   C     0.49724   0.81275   0.93235   0.00000  Uiso   1.00
C984   C     0.51754   0.81996   0.51424   0.00000  Uiso   1.00
C985   C     0.56759   0.82363   0.98588   0.00000  Uiso   1.00
C986   C     0.58228   0.81643   0.93288   0.00000  Uiso   1.00
C987   C     0.54787   0.80894   0.90704   0.00000  Uiso   1.00
C988   C     0.50490   0.82465   0.56824   0.00000  Uiso   1.00
C989   C     0.58959   0.83657   0.56466   0.00000  Uiso   1.00
Cu990  Cu    0.45311   0.83333   0.75000   0.00000  Uiso   1.00
Cu991  Cu    0.54689   0.83334   0.75000   0.00000  Uiso   1.00
H992   H     0.61757   0.84297   0.58348   0.00000  Uiso   1.00
H993   H     0.64052   0.83778   0.98896   0.00000  Uiso   1.00
H994   H     0.46738   0.82306   0.59156   0.00000  Uiso   1.00
H995   H     0.41839   0.80105   0.55436   0.00000  Uiso   1.00
H996   H     0.36140   0.79185   0.50575   0.00000  Uiso   1.00
H997   H     0.56235   0.79835   0.86765   0.00000  Uiso   1.00
H998   H     0.57637   0.96270   0.74774   0.00000  Uiso   1.00
H999   H     0.36122   0.74128   0.92548   0.00000  Uiso   1.00
H1000  H     0.41040   0.75027   0.86576   0.00000  Uiso   1.00
H1001  H     0.34795   0.75927   0.86811   0.00000  Uiso   1.00
H1002  H     0.57637   0.70396   0.74770   0.00000  Uiso   1.00
H1003  H     0.42327   0.70401   0.75359   0.00000  Uiso   1.00
H1004  H     0.42329   0.96273   0.75353   0.00000  Uiso   1.00
H1005  H     0.60638   0.87634   0.81179   0.00000  Uiso   1.00
H1006  H     0.35996   0.87620   0.81189   0.00000  Uiso   1.00
H1007  H     0.39359   0.79020   0.68833   0.00000  Uiso   1.00
H1008  H     0.63996   0.79023   0.68837   0.00000  Uiso   1.00
H1009  H     0.62057   0.81609   0.91119   0.00000  Uiso   1.00
N1010  N     0.38265   0.83332   0.74999   0.00000  Uiso   1.00
N1011  N     0.61735   0.83335   0.75000   0.00000  Uiso   1.00
O1012  O     0.46042   0.89345   0.75001   0.00000  Uiso   1.00
O1013  O     0.53961   0.89346   0.75001   0.00000  Uiso   1.00
O1014  O     0.44108   0.83332   0.82549   0.00000  Uiso   1.00
O1015  O     0.52027   0.83333   0.82549   0.00000  Uiso   1.00
O1016  O     0.46039   0.77321   0.75000   0.00000  Uiso   1.00
O1017  O     0.53958   0.77322   0.75000   0.00000  Uiso   1.00
O1018  O     0.47973   0.83334   0.67451   0.00000  Uiso   1.00
O1019  O     0.55892   0.83335   0.67451   0.00000  Uiso   1.00
O1020  O     0.37706   0.80287   0.90594   0.00000  Uiso   1.00
C1021  C     0.83329   0.91264   0.75018   0.00000  Uiso   1.00
C1022  C     0.79465   0.81535   0.90490   0.00000  Uiso   1.00
C1023  C     0.87611   0.97872   0.74902   0.00000  Uiso   1.00
C1024  C     0.80792   0.82762   0.84930   0.00000  Uiso   1.00
C1025  C     0.87611   0.68796   0.74901   0.00000  Uiso   1.00
C1026  C     0.83320   0.70942   0.75048   0.00000  Uiso   1.00
C1027  C     0.79021   0.68798   0.75224   0.00000  Uiso   1.00
C1028  C     0.79022   0.97874   0.75221   0.00000  Uiso   1.00
C1029  C     0.83320   0.95727   0.75048   0.00000  Uiso   1.00
C1030  C     0.96586   0.85719   0.78431   0.00000  Uiso   1.00
C1031  C     0.68211   0.85712   0.78437   0.00000  Uiso   1.00
C1032  C     0.81535   0.81290   0.98735   0.00000  Uiso   1.00
C1033  C     0.70079   0.80941   0.71575   0.00000  Uiso   1.00
C1034  C     0.98452   0.80942   0.71577   0.00000  Uiso   1.00
C1035  C     0.83329   0.75403   0.75014   0.00000  Uiso   1.00
C1036  C     0.85926   0.83346   0.65013   0.00000  Uiso   1.00
C1037  C     0.93613   0.83310   0.51101   0.00000  Uiso   1.00
C1038  C     0.87397   0.83179   0.59350   0.00000  Uiso   1.00
C1039  C     0.74561   0.80589   0.93168   0.00000  Uiso   1.00
C1040  C     0.73198   0.80002   0.98522   0.00000  Uiso   1.00
C1041  C     0.76558   0.80516   0.51302   0.00000  Uiso   1.00
C1042  C     0.70783   0.76148   0.89098   0.00000  Uiso   1.00
C1043  C     0.83057   0.81275   0.93235   0.00000  Uiso   1.00
C1044  C     0.85087   0.81996   0.51424   0.00000  Uiso   1.00
C1045  C     0.90092   0.82363   0.98588   0.00000  Uiso   1.00
C1046  C     0.91561   0.81643   0.93288   0.00000  Uiso   1.00
C1047  C     0.88121   0.80894   0.90704   0.00000  Uiso   1.00
C1048  C     0.83824   0.82465   0.56824   0.00000  Uiso   1.00
C1049  C     0.92292   0.83657   0.56466   0.00000  Uiso   1.00
Cu1050 Cu    0.78645   0.83333   0.75000   0.00000  Uiso   1.00
Cu1051 Cu    0.88022   0.83334   0.75000   0.00000  Uiso   1.00
H1052  H     0.95090   0.84297   0.58348   0.00000  Uiso   1.00
H1053  H     0.97385   0.83778   0.98896   0.00000  Uiso   1.00
H1054  H     0.80071   0.82306   0.59156   0.00000  Uiso   1.00
H1055  H     0.75172   0.80105   0.55436   0.00000  Uiso   1.00
H1056  H     0.69474   0.79185   0.50575   0.00000  Uiso   1.00
H1057  H     0.89569   0.79835   0.86765   0.00000  Uiso   1.00
H1058  H     0.90970   0.96270   0.74774   0.00000  Uiso   1.00
H1059  H     0.69455   0.74128   0.92548   0.00000  Uiso   1.00
H1060  H     0.74373   0.75027   0.86576   0.00000  Uiso   1.00
H1061  H     0.68128   0.75927   0.86811   0.00000  Uiso   1.00
H1062  H     0.90970   0.70396   0.74770   0.00000  Uiso   1.00
H1063  H     0.75660   0.70401   0.75359   0.00000  Uiso   1.00
H1064  H     0.75662   0.96273   0.75353   0.00000  Uiso   1.00
H1065  H     0.93972   0.87634   0.81179   0.00000  Uiso   1.00
H1066  H     0.69329   0.87620   0.81189   0.00000  Uiso   1.00
H1067  H     0.72692   0.79020   0.68833   0.00000  Uiso   1.00
H1068  H     0.97329   0.79023   0.68837   0.00000  Uiso   1.00
H1069  H     0.95391   0.81609   0.91119   0.00000  Uiso   1.00
N1070  N     0.71598   0.83332   0.74999   0.00000  Uiso   1.00
N1071  N     0.95069   0.83335   0.75000   0.00000  Uiso   1.00
O1072  O     0.79375   0.89345   0.75001   0.00000  Uiso   1.00
O1073  O     0.87294   0.89346   0.75001   0.00000  Uiso   1.00
O1074  O     0.77441   0.83332   0.82549   0.00000  Uiso   1.00
O1075  O     0.85360   0.83333   0.82549   0.00000  Uiso   1.00
O1076  O     0.79373   0.77321   0.75000   0.00000  Uiso   1.00
O1077  O     0.87292   0.77322   0.75000   0.00000  Uiso   1.00
O1078  O     0.81306   0.83334   0.67451   0.00000  Uiso   1.00
O1079  O     0.89225   0.83335   0.67451   0.00000  Uiso   1.00
O1080  O     0.71039   0.80287   0.90594   0.00000  Uiso   1.00
loop_
_geom_bond_atom_site_label_1
_geom_bond_atom_site_label_2
_geom_bond_distance
_geom_bond_site_symmetry_2
_ccdc_geom_bond_type
C1     O53     1.292   .     A
C1     O52     1.292   .     A
C1     C9      1.450   .     S
C2     C4      1.491   .     S
C2     C23     1.430   .     A
C2     C19     1.412   .     A
C3     C9      1.401   .     A
C3     H38     1.083   .     S
C3     C185    1.383   .     S
C4     O55     1.291   .     A
C4     O54     1.311   .     A
C5     H42     1.083   .     S
C5     C6      1.401   .     A
C5     C363    1.383   1_545 S
C6     C7      1.401   .     A
C6     C15     1.450   .     S
C7     H43     1.083   .     S
C7     C368    1.384   1_545 S
C8     H44     1.083   .     S
C8     C9      1.401   .     A
C8     C187    1.384   .     S
C10    H45     1.082   .     S
C10    N51     1.367   .     A
C10    C71     1.417   .     S
C11    N50     1.367   .     A
C11    H46     1.082   .     S
C11    C130    1.417   1_455 S
C12    C23     1.418   .     A
C12    C561    1.413   .     S
C12    C564    1.425   .     S
C13    N50     1.367   .     A
C13    H47     1.082   .     S
C13    C134    1.417   1_455 S
C14    N51     1.367   .     A
C14    H48     1.082   .     S
C14    C73     1.417   .     S
C15    O57     1.292   .     A
C15    O56     1.292   .     A
C16    O58     1.293   .     A
C16    C18     1.461   .     S
C16    O59     1.295   .     A
C17    C29     1.388   .     A
C17    C565    1.399   1_554 S
C17    H573    1.081   1_554 S
C18    C28     1.400   .     A
C18    C29     1.398   .     A
C19    O60     1.381   .     S
C19    C20     1.395   .     A
C20    C561    1.388   .     S
C20    H576    1.081   .     S
C21    H35     1.077   .     S
C21    C560    1.388   1_554 S
C21    C552    1.413   1_554 S
C22    H39     1.113   .     S
C22    O60     1.411   .     S
C22    H41     1.109   .     S
C22    H40     1.114   .     S
C23    C27     1.415   .     A
C24    C28     1.402   .     A
C24    C552    1.425   1_554 S
C24    C565    1.418   1_554 S
C25    C26     1.386   .     A
C25    C557    1.399   .     S
C25    C564    1.418   .     S
C26    C27     1.380   .     A
C26    H49     1.081   .     S
C27    H37     1.077   .     S
C28    H34     1.076   .     S
C29    H32     1.083   .     S
Cu30   O56     1.965   .     S
Cu30   N50     2.013   .     S
Cu30   O54     1.962   .     S
Cu30   O58     1.954   .     S
Cu30   Cu31    2.679   .     S
Cu30   O52     1.965   .     S
Cu31   O57     1.965   .     S
Cu31   O59     1.962   .     S
Cu31   O55     1.954   .     S
Cu31   O53     1.965   .     S
Cu31   N51     2.013   .     S
H33    C557    1.081   .     S
H36    C560    1.081   1_554 S
C61    O113    1.292   .     A
C61    O112    1.292   .     A
C61    C69     1.450   .     S
C62    C64     1.491   .     S
C62    C83     1.430   .     A
C62    C79     1.412   .     A
C63    C69     1.401   .     A
C63    H98     1.083   .     S
C63    C245    1.383   .     S
C64    O115    1.291   .     A
C64    O114    1.311   .     A
C65    H102    1.083   .     S
C65    C66     1.401   .     A
C65    C423    1.383   1_545 S
C66    C67     1.401   .     A
C66    C75     1.450   .     S
C67    H103    1.083   .     S
C67    C428    1.384   1_545 S
C68    H104    1.083   .     S
C68    C69     1.401   .     A
C68    C247    1.384   .     S
C70    H105    1.082   .     S
C70    N111    1.367   .     A
C70    C131    1.417   .     S
C71    N110    1.367   .     A
C71    H106    1.082   .     S
C72    C83     1.418   .     A
C72    C621    1.413   .     S
C72    C624    1.425   .     S
C73    N110    1.367   .     A
C73    H107    1.082   .     S
C74    N111    1.367   .     A
C74    H108    1.082   .     S
C74    C133    1.417   .     S
C75    O117    1.292   .     A
C75    O116    1.292   .     A
C76    O118    1.293   .     A
C76    C78     1.461   .     S
C76    O119    1.295   .     A
C77    C89     1.388   .     A
C77    C625    1.399   1_554 S
C77    H633    1.081   1_554 S
C78    C88     1.400   .     A
C78    C89     1.398   .     A
C79    O120    1.381   .     S
C79    C80     1.395   .     A
C80    C621    1.388   .     S
C80    H636    1.081   .     S
C81    H95     1.077   .     S
C81    C620    1.388   1_554 S
C81    C612    1.413   1_554 S
C82    H99     1.113   .     S
C82    O120    1.411   .     S
C82    H101    1.109   .     S
C82    H100    1.114   .     S
C83    C87     1.415   .     A
C84    C88     1.402   .     A
C84    C612    1.425   1_554 S
C84    C625    1.418   1_554 S
C85    C86     1.386   .     A
C85    C617    1.399   .     S
C85    C624    1.418   .     S
C86    C87     1.380   .     A
C86    H109    1.081   .     S
C87    H97     1.077   .     S
C88    H94     1.076   .     S
C89    H92     1.083   .     S
Cu90   O116    1.965   .     S
Cu90   N110    2.013   .     S
Cu90   O114    1.962   .     S
Cu90   O118    1.954   .     S
Cu90   Cu91    2.679   .     S
Cu90   O112    1.965   .     S
Cu91   O117    1.965   .     S
Cu91   O119    1.962   .     S
Cu91   O115    1.954   .     S
Cu91   O113    1.965   .     S
Cu91   N111    2.013   .     S
H93    C617    1.081   .     S
H96    C620    1.081   1_554 S
C121   O173    1.292   .     A
C121   O172    1.292   .     A
C121   C129    1.450   .     S
C122   C124    1.491   .     S
C122   C143    1.430   .     A
C122   C139    1.412   .     A
C123   C129    1.401   .     A
C123   H158    1.083   .     S
C123   C305    1.383   .     S
C124   O175    1.291   .     A
C124   O174    1.311   .     A
C125   H162    1.083   .     S
C125   C126    1.401   .     A
C125   C483    1.383   1_545 S
C126   C127    1.401   .     A
C126   C135    1.450   .     S
C127   H163    1.083   .     S
C127   C488    1.384   1_545 S
C128   H164    1.083   .     S
C128   C129    1.401   .     A
C128   C307    1.384   .     S
C130   H165    1.082   .     S
C130   N171    1.367   .     A
C130   C11     1.417   1_655 S
C131   N170    1.367   .     A
C131   H166    1.082   .     S
C132   C143    1.418   .     A
C132   C681    1.413   .     S
C132   C684    1.425   .     S
C133   N170    1.367   .     A
C133   H167    1.082   .     S
C134   N171    1.367   .     A
C134   H168    1.082   .     S
C134   C13     1.417   1_655 S
C135   O177    1.292   .     A
C135   O176    1.292   .     A
C136   O178    1.293   .     A
C136   C138    1.461   .     S
C136   O179    1.295   .     A
C137   C149    1.388   .     A
C137   C685    1.399   1_554 S
C137   H693    1.081   1_554 S
C138   C148    1.400   .     A
C138   C149    1.398   .     A
C139   O180    1.381   .     S
C139   C140    1.395   .     A
C140   C681    1.388   .     S
C140   H696    1.081   .     S
C141   H155    1.077   .     S
C141   C680    1.388   1_554 S
C141   C672    1.413   1_554 S
C142   H159    1.113   .     S
C142   O180    1.411   .     S
C142   H161    1.109   .     S
C142   H160    1.114   .     S
C143   C147    1.415   .     A
C144   C148    1.402   .     A
C144   C672    1.425   1_554 S
C144   C685    1.418   1_554 S
C145   C146    1.386   .     A
C145   C677    1.399   .     S
C145   C684    1.418   .     S
C146   C147    1.380   .     A
C146   H169    1.081   .     S
C147   H157    1.077   .     S
C148   H154    1.076   .     S
C149   H152    1.083   .     S
Cu150  O176    1.965   .     S
Cu150  N170    2.013   .     S
Cu150  O174    1.962   .     S
Cu150  O178    1.954   .     S
Cu150  Cu151   2.679   .     S
Cu150  O172    1.965   .     S
Cu151  O177    1.965   .     S
Cu151  O179    1.962   .     S
Cu151  O175    1.954   .     S
Cu151  O173    1.965   .     S
Cu151  N171    2.013   .     S
H153   C677    1.081   .     S
H156   C680    1.081   1_554 S
C181   O233    1.292   .     A
C181   O232    1.292   .     A
C181   C189    1.450   .     S
C182   C184    1.491   .     S
C182   C203    1.430   .     A
C182   C199    1.412   .     A
C183   C189    1.401   .     A
C183   H218    1.083   .     S
C183   C365    1.383   .     S
C184   O235    1.291   .     A
C184   O234    1.311   .     A
C185   H222    1.083   .     S
C185   C186    1.401   .     A
C186   C187    1.401   .     A
C186   C195    1.450   .     S
C187   H223    1.083   .     S
C188   H224    1.083   .     S
C188   C189    1.401   .     A
C188   C367    1.384   .     S
C190   H225    1.082   .     S
C190   N231    1.367   .     A
C190   C251    1.417   .     S
C191   N230    1.367   .     A
C191   H226    1.082   .     S
C191   C310    1.417   1_455 S
C192   C203    1.418   .     A
C192   C741    1.413   .     S
C192   C744    1.425   .     S
C193   N230    1.367   .     A
C193   H227    1.082   .     S
C193   C314    1.417   1_455 S
C194   N231    1.367   .     A
C194   H228    1.082   .     S
C194   C253    1.417   .     S
C195   O237    1.292   .     A
C195   O236    1.292   .     A
C196   O238    1.293   .     A
C196   C198    1.461   .     S
C196   O239    1.295   .     A
C197   C209    1.388   .     A
C197   C745    1.399   1_554 S
C197   H753    1.081   1_554 S
C198   C208    1.400   .     A
C198   C209    1.398   .     A
C199   O240    1.381   .     S
C199   C200    1.395   .     A
C200   C741    1.388   .     S
C200   H756    1.081   .     S
C201   H215    1.077   .     S
C201   C740    1.388   1_554 S
C201   C732    1.413   1_554 S
C202   H219    1.113   .     S
C202   O240    1.411   .     S
C202   H221    1.109   .     S
C202   H220    1.114   .     S
C203   C207    1.415   .     A
C204   C208    1.402   .     A
C204   C732    1.425   1_554 S
C204   C745    1.418   1_554 S
C205   C206    1.386   .     A
C205   C737    1.399   .     S
C205   C744    1.418   .     S
C206   C207    1.380   .     A
C206   H229    1.081   .     S
C207   H217    1.077   .     S
C208   H214    1.076   .     S
C209   H212    1.083   .     S
Cu210  O236    1.965   .     S
Cu210  N230    2.013   .     S
Cu210  O234    1.962   .     S
Cu210  O238    1.954   .     S
Cu210  Cu211   2.679   .     S
Cu210  O232    1.965   .     S
Cu211  O237    1.965   .     S
Cu211  O239    1.962   .     S
Cu211  O235    1.954   .     S
Cu211  O233    1.965   .     S
Cu211  N231    2.013   .     S
H213   C737    1.081   .     S
H216   C740    1.081   1_554 S
C241   O293    1.292   .     A
C241   O292    1.292   .     A
C241   C249    1.450   .     S
C242   C244    1.491   .     S
C242   C263    1.430   .     A
C242   C259    1.412   .     A
C243   C249    1.401   .     A
C243   H278    1.083   .     S
C243   C425    1.383   .     S
C244   O295    1.291   .     A
C244   O294    1.311   .     A
C245   H282    1.083   .     S
C245   C246    1.401   .     A
C246   C247    1.401   .     A
C246   C255    1.450   .     S
C247   H283    1.083   .     S
C248   H284    1.083   .     S
C248   C249    1.401   .     A
C248   C427    1.384   .     S
C250   H285    1.082   .     S
C250   N291    1.367   .     A
C250   C311    1.417   .     S
C251   N290    1.367   .     A
C251   H286    1.082   .     S
C252   C263    1.418   .     A
C252   C801    1.413   .     S
C252   C804    1.425   .     S
C253   N290    1.367   .     A
C253   H287    1.082   .     S
C254   N291    1.367   .     A
C254   H288    1.082   .     S
C254   C313    1.417   .     S
C255   O297    1.292   .     A
C255   O296    1.292   .     A
C256   O298    1.293   .     A
C256   C258    1.461   .     S
C256   O299    1.295   .     A
C257   C269    1.388   .     A
C257   C805    1.399   1_554 S
C257   H813    1.081   1_554 S
C258   C268    1.400   .     A
C258   C269    1.398   .     A
C259   O300    1.381   .     S
C259   C260    1.395   .     A
C260   C801    1.388   .     S
C260   H816    1.081   .     S
C261   H275    1.077   .     S
C261   C800    1.388   1_554 S
C261   C792    1.413   1_554 S
C262   H279    1.113   .     S
C262   O300    1.411   .     S
C262   H281    1.109   .     S
C262   H280    1.114   .     S
C263   C267    1.415   .     A
C264   C268    1.402   .     A
C264   C792    1.425   1_554 S
C264   C805    1.418   1_554 S
C265   C266    1.386   .     A
C265   C797    1.399   .     S
C265   C804    1.418   .     S
C266   C267    1.380   .     A
C266   H289    1.081   .     S
C267   H277    1.077   .     S
C268   H274    1.076   .     S
C269   H272    1.083   .     S
Cu270  O296    1.965   .     S
Cu270  N290    2.013   .     S
Cu270  O294    1.962   .     S
Cu270  O298    1.954   .     S
Cu270  Cu271   2.679   .     S
Cu270  O292    1.965   .     S
Cu271  O297    1.965   .     S
Cu271  O299    1.962   .     S
Cu271  O295    1.954   .     S
Cu271  O293    1.965   .     S
Cu271  N291    2.013   .     S
H273   C797    1.081   .     S
H276   C800    1.081   1_554 S
C301   O353    1.292   .     A
C301   O352    1.292   .     A
C301   C309    1.450   .     S
C302   C304    1.491   .     S
C302   C323    1.430   .     A
C302   C319    1.412   .     A
C303   C309    1.401   .     A
C303   H338    1.083   .     S
C303   C485    1.383   .     S
C304   O355    1.291   .     A
C304   O354    1.311   .     A
C305   H342    1.083   .     S
C305   C306    1.401   .     A
C306   C307    1.401   .     A
C306   C315    1.450   .     S
C307   H343    1.083   .     S
C308   H344    1.083   .     S
C308   C309    1.401   .     A
C308   C487    1.384   .     S
C310   H345    1.082   .     S
C310   N351    1.367   .     A
C310   C191    1.417   1_655 S
C311   N350    1.367   .     A
C311   H346    1.082   .     S
C312   C323    1.418   .     A
C312   C861    1.413   .     S
C312   C864    1.425   .     S
C313   N350    1.367   .     A
C313   H347    1.082   .     S
C314   N351    1.367   .     A
C314   H348    1.082   .     S
C314   C193    1.417   1_655 S
C315   O357    1.292   .     A
C315   O356    1.292   .     A
C316   O358    1.293   .     A
C316   C318    1.461   .     S
C316   O359    1.295   .     A
C317   C329    1.388   .     A
C317   C865    1.399   1_554 S
C317   H873    1.081   1_554 S
C318   C328    1.400   .     A
C318   C329    1.398   .     A
C319   O360    1.381   .     S
C319   C320    1.395   .     A
C320   C861    1.388   .     S
C320   H876    1.081   .     S
C321   H335    1.077   .     S
C321   C860    1.388   1_554 S
C321   C852    1.413   1_554 S
C322   H339    1.113   .     S
C322   O360    1.411   .     S
C322   H341    1.109   .     S
C322   H340    1.114   .     S
C323   C327    1.415   .     A
C324   C328    1.402   .     A
C324   C852    1.425   1_554 S
C324   C865    1.418   1_554 S
C325   C326    1.386   .     A
C325   C857    1.399   .     S
C325   C864    1.418   .     S
C326   C327    1.380   .     A
C326   H349    1.081   .     S
C327   H337    1.077   .     S
C328   H334    1.076   .     S
C329   H332    1.083   .     S
Cu330  O356    1.965   .     S
Cu330  N350    2.013   .     S
Cu330  O354    1.962   .     S
Cu330  O358    1.954   .     S
Cu330  Cu331   2.679   .     S
Cu330  O352    1.965   .     S
Cu331  O357    1.965   .     S
Cu331  O359    1.962   .     S
Cu331  O355    1.954   .     S
Cu331  O353    1.965   .     S
Cu331  N351    2.013   .     S
H333   C857    1.081   .     S
H336   C860    1.081   1_554 S
C361   O413    1.292   .     A
C361   O412    1.292   .     A
C361   C369    1.450   .     S
C362   C364    1.491   .     S
C362   C383    1.430   .     A
C362   C379    1.412   .     A
C363   C369    1.401   .     A
C363   H398    1.083   .     S
C363   C5      1.383   1_565 S
C364   O415    1.291   .     A
C364   O414    1.311   .     A
C365   H402    1.083   .     S
C365   C366    1.401   .     A
C366   C367    1.401   .     A
C366   C375    1.450   .     S
C367   H403    1.083   .     S
C368   H404    1.083   .     S
C368   C369    1.401   .     A
C368   C7      1.384   1_565 S
C370   H405    1.082   .     S
C370   N411    1.367   .     A
C370   C431    1.417   .     S
C371   N410    1.367   .     A
C371   H406    1.082   .     S
C371   C490    1.417   1_455 S
C372   C383    1.418   .     A
C372   C921    1.413   .     S
C372   C924    1.425   .     S
C373   N410    1.367   .     A
C373   H407    1.082   .     S
C373   C494    1.417   1_455 S
C374   N411    1.367   .     A
C374   H408    1.082   .     S
C374   C433    1.417   .     S
C375   O417    1.292   .     A
C375   O416    1.292   .     A
C376   O418    1.293   .     A
C376   C378    1.461   .     S
C376   O419    1.295   .     A
C377   C389    1.388   .     A
C377   C925    1.399   1_554 S
C377   H933    1.081   1_554 S
C378   C388    1.400   .     A
C378   C389    1.398   .     A
C379   O420    1.381   .     S
C379   C380    1.395   .     A
C380   C921    1.388   .     S
C380   H936    1.081   .     S
C381   H395    1.077   .     S
C381   C920    1.388   1_554 S
C381   C912    1.413   1_554 S
C382   H399    1.113   .     S
C382   O420    1.411   .     S
C382   H401    1.109   .     S
C382   H400    1.114   .     S
C383   C387    1.415   .     A
C384   C388    1.402   .     A
C384   C912    1.425   1_554 S
C384   C925    1.418   1_554 S
C385   C386    1.386   .     A
C385   C917    1.399   .     S
C385   C924    1.418   .     S
C386   C387    1.380   .     A
C386   H409    1.081   .     S
C387   H397    1.077   .     S
C388   H394    1.076   .     S
C389   H392    1.083   .     S
Cu390  O416    1.965   .     S
Cu390  N410    2.013   .     S
Cu390  O414    1.962   .     S
Cu390  O418    1.954   .     S
Cu390  Cu391   2.679   .     S
Cu390  O412    1.965   .     S
Cu391  O417    1.965   .     S
Cu391  O419    1.962   .     S
Cu391  O415    1.954   .     S
Cu391  O413    1.965   .     S
Cu391  N411    2.013   .     S
H393   C917    1.081   .     S
H396   C920    1.081   1_554 S
C421   O473    1.292   .     A
C421   O472    1.292   .     A
C421   C429    1.450   .     S
C422   C424    1.491   .     S
C422   C443    1.430   .     A
C422   C439    1.412   .     A
C423   C429    1.401   .     A
C423   H458    1.083   .     S
C423   C65     1.383   1_565 S
C424   O475    1.291   .     A
C424   O474    1.311   .     A
C425   H462    1.083   .     S
C425   C426    1.401   .     A
C426   C427    1.401   .     A
C426   C435    1.450   .     S
C427   H463    1.083   .     S
C428   H464    1.083   .     S
C428   C429    1.401   .     A
C428   C67     1.384   1_565 S
C430   H465    1.082   .     S
C430   N471    1.367   .     A
C430   C491    1.417   .     S
C431   N470    1.367   .     A
C431   H466    1.082   .     S
C432   C443    1.418   .     A
C432   C981    1.413   .     S
C432   C984    1.425   .     S
C433   N470    1.367   .     A
C433   H467    1.082   .     S
C434   N471    1.367   .     A
C434   H468    1.082   .     S
C434   C493    1.417   .     S
C435   O477    1.292   .     A
C435   O476    1.292   .     A
C436   O478    1.293   .     A
C436   C438    1.461   .     S
C436   O479    1.295   .     A
C437   C449    1.388   .     A
C437   C985    1.399   1_554 S
C437   H993    1.081   1_554 S
C438   C448    1.400   .     A
C438   C449    1.398   .     A
C439   O480    1.381   .     S
C439   C440    1.395   .     A
C440   C981    1.388   .     S
C440   H996    1.081   .     S
C441   H455    1.077   .     S
C441   C980    1.388   1_554 S
C441   C972    1.413   1_554 S
C442   H459    1.113   .     S
C442   O480    1.411   .     S
C442   H461    1.109   .     S
C442   H460    1.114   .     S
C443   C447    1.415   .     A
C444   C448    1.402   .     A
C444   C972    1.425   1_554 S
C444   C985    1.418   1_554 S
C445   C446    1.386   .     A
C445   C977    1.399   .     S
C445   C984    1.418   .     S
C446   C447    1.380   .     A
C446   H469    1.081   .     S
C447   H457    1.077   .     S
C448   H454    1.076   .     S
C449   H452    1.083   .     S
Cu450  O476    1.965   .     S
Cu450  N470    2.013   .     S
Cu450  O474    1.962   .     S
Cu450  O478    1.954   .     S
Cu450  Cu451   2.679   .     S
Cu450  O472    1.965   .     S
Cu451  O477    1.965   .     S
Cu451  O479    1.962   .     S
Cu451  O475    1.954   .     S
Cu451  O473    1.965   .     S
Cu451  N471    2.013   .     S
H453   C977    1.081   .     S
H456   C980    1.081   1_554 S
C481   O533    1.292   .     A
C481   O532    1.292   .     A
C481   C489    1.450   .     S
C482   C484    1.491   .     S
C482   C503    1.430   .     A
C482   C499    1.412   .     A
C483   C489    1.401   .     A
C483   H518    1.083   .     S
C483   C125    1.383   1_565 S
C484   O535    1.291   .     A
C484   O534    1.311   .     A
C485   H522    1.083   .     S
C485   C486    1.401   .     A
C486   C487    1.401   .     A
C486   C495    1.450   .     S
C487   H523    1.083   .     S
C488   H524    1.083   .     S
C488   C489    1.401   .     A
C488   C127    1.384   1_565 S
C490   H525    1.082   .     S
C490   N531    1.367   .     A
C490   C371    1.417   1_655 S
C491   N530    1.367   .     A
C491   H526    1.082   .     S
C492   C503    1.418   .     A
C492   C1041   1.413   .     S
C492   C1044   1.425   .     S
C493   N530    1.367   .     A
C493   H527    1.082   .     S
C494   N531    1.367   .     A
C494   H528    1.082   .     S
C494   C373    1.417   1_655 S
C495   O537    1.292   .     A
C495   O536    1.292   .     A
C496   O538    1.293   .     A
C496   C498    1.461   .     S
C496   O539    1.295   .     A
C497   C509    1.388   .     A
C497   C1045   1.399   1_554 S
C497   H1053   1.081   1_554 S
C498   C508    1.400   .     A
C498   C509    1.398   .     A
C499   O540    1.381   .     S
C499   C500    1.395   .     A
C500   C1041   1.388   .     S
C500   H1056   1.081   .     S
C501   H515    1.077   .     S
C501   C1040   1.388   1_554 S
C501   C1032   1.413   1_554 S
C502   H519    1.113   .     S
C502   O540    1.411   .     S
C502   H521    1.109   .     S
C502   H520    1.114   .     S
C503   C507    1.415   .     A
C504   C508    1.402   .     A
C504   C1032   1.425   1_554 S
C504   C1045   1.418   1_554 S
C505   C506    1.386   .     A
C505   C1037   1.399   .     S
C505   C1044   1.418   .     S
C506   C507    1.380   .     A
C506   H529    1.081   .     S
C507   H517    1.077   .     S
C508   H514    1.076   .     S
C509   H512    1.083   .     S
Cu510  O536    1.965   .     S
Cu510  N530    2.013   .     S
Cu510  O534    1.962   .     S
Cu510  O538    1.954   .     S
Cu510  Cu511   2.679   .     S
Cu510  O532    1.965   .     S
Cu511  O537    1.965   .     S
Cu511  O539    1.962   .     S
Cu511  O535    1.954   .     S
Cu511  O533    1.965   .     S
Cu511  N531    2.013   .     S
H513   C1037   1.081   .     S
H516   C1040   1.081   1_554 S
C541   O593    1.292   .     A
C541   O592    1.292   .     A
C541   C549    1.450   .     S
C542   C544    1.491   .     S
C542   C563    1.430   .     A
C542   C559    1.412   .     A
C543   C549    1.401   .     A
C543   H578    1.083   .     S
C543   C725    1.383   .     S
C544   O595    1.291   .     A
C544   O594    1.311   .     A
C545   H582    1.083   .     S
C545   C546    1.401   .     A
C545   C903    1.383   1_545 S
C546   C547    1.401   .     A
C546   C555    1.450   .     S
C547   H583    1.083   .     S
C547   C908    1.384   1_545 S
C548   H584    1.083   .     S
C548   C549    1.401   .     A
C548   C727    1.384   .     S
C550   H585    1.082   .     S
C550   N591    1.367   .     A
C550   C611    1.417   .     S
C551   N590    1.367   .     A
C551   H586    1.082   .     S
C551   C670    1.417   1_455 S
C552   C563    1.418   .     A
C552   C21     1.413   1_556 S
C552   C24     1.425   1_556 S
C553   N590    1.367   .     A
C553   H587    1.082   .     S
C553   C674    1.417   1_455 S
C554   N591    1.367   .     A
C554   H588    1.082   .     S
C554   C613    1.417   .     S
C555   O597    1.292   .     A
C555   O596    1.292   .     A
C556   O598    1.293   .     A
C556   C558    1.461   .     S
C556   O599    1.295   .     A
C557   C569    1.388   .     A
C558   C568    1.400   .     A
C558   C569    1.398   .     A
C559   O600    1.381   .     S
C559   C560    1.395   .     A
C560   C21     1.388   1_556 S
C560   H36     1.081   1_556 S
C561   H575    1.077   .     S
C562   H579    1.113   .     S
C562   O600    1.411   .     S
C562   H581    1.109   .     S
C562   H580    1.114   .     S
C563   C567    1.415   .     A
C564   C568    1.402   .     A
C565   C566    1.386   .     A
C565   C17     1.399   1_556 S
C565   C24     1.418   1_556 S
C566   C567    1.380   .     A
C566   H589    1.081   .     S
C567   H577    1.077   .     S
C568   H574    1.076   .     S
C569   H572    1.083   .     S
Cu570  O596    1.965   .     S
Cu570  N590    2.013   .     S
Cu570  O594    1.962   .     S
Cu570  O598    1.954   .     S
Cu570  Cu571   2.679   .     S
Cu570  O592    1.965   .     S
Cu571  O597    1.965   .     S
Cu571  O599    1.962   .     S
Cu571  O595    1.954   .     S
Cu571  O593    1.965   .     S
Cu571  N591    2.013   .     S
H573   C17     1.081   1_556 S
C601   O653    1.292   .     A
C601   O652    1.292   .     A
C601   C609    1.450   .     S
C602   C604    1.491   .     S
C602   C623    1.430   .     A
C602   C619    1.412   .     A
C603   C609    1.401   .     A
C603   H638    1.083   .     S
C603   C785    1.383   .     S
C604   O655    1.291   .     A
C604   O654    1.311   .     A
C605   H642    1.083   .     S
C605   C606    1.401   .     A
C605   C963    1.383   1_545 S
C606   C607    1.401   .     A
C606   C615    1.450   .     S
C607   H643    1.083   .     S
C607   C968    1.384   1_545 S
C608   H644    1.083   .     S
C608   C609    1.401   .     A
C608   C787    1.384   .     S
C610   H645    1.082   .     S
C610   N651    1.367   .     A
C610   C671    1.417   .     S
C611   N650    1.367   .     A
C611   H646    1.082   .     S
C612   C623    1.418   .     A
C612   C81     1.413   1_556 S
C612   C84     1.425   1_556 S
C613   N650    1.367   .     A
C613   H647    1.082   .     S
C614   N651    1.367   .     A
C614   H648    1.082   .     S
C614   C673    1.417   .     S
C615   O657    1.292   .     A
C615   O656    1.292   .     A
C616   O658    1.293   .     A
C616   C618    1.461   .     S
C616   O659    1.295   .     A
C617   C629    1.388   .     A
C618   C628    1.400   .     A
C618   C629    1.398   .     A
C619   O660    1.381   .     S
C619   C620    1.395   .     A
C620   C81     1.388   1_556 S
C620   H96     1.081   1_556 S
C621   H635    1.077   .     S
C622   H639    1.113   .     S
C622   O660    1.411   .     S
C622   H641    1.109   .     S
C622   H640    1.114   .     S
C623   C627    1.415   .     A
C624   C628    1.402   .     A
C625   C626    1.386   .     A
C625   C77     1.399   1_556 S
C625   C84     1.418   1_556 S
C626   C627    1.380   .     A
C626   H649    1.081   .     S
C627   H637    1.077   .     S
C628   H634    1.076   .     S
C629   H632    1.083   .     S
Cu630  O656    1.965   .     S
Cu630  N650    2.013   .     S
Cu630  O654    1.962   .     S
Cu630  O658    1.954   .     S
Cu630  Cu631   2.679   .     S
Cu630  O652    1.965   .     S
Cu631  O657    1.965   .     S
Cu631  O659    1.962   .     S
Cu631  O655    1.954   .     S
Cu631  O653    1.965   .     S
Cu631  N651    2.013   .     S
H633   C77     1.081   1_556 S
C661   O713    1.292   .     A
C661   O712    1.292   .     A
C661   C669    1.450   .     S
C662   C664    1.491   .     S
C662   C683    1.430   .     A
C662   C679    1.412   .     A
C663   C669    1.401   .     A
C663   H698    1.083   .     S
C663   C845    1.383   .     S
C664   O715    1.291   .     A
C664   O714    1.311   .     A
C665   H702    1.083   .     S
C665   C666    1.401   .     A
C665   C1023   1.383   1_545 S
C666   C667    1.401   .     A
C666   C675    1.450   .     S
C667   H703    1.083   .     S
C667   C1028   1.384   1_545 S
C668   H704    1.083   .     S
C668   C669    1.401   .     A
C668   C847    1.384   .     S
C670   H705    1.082   .     S
C670   N711    1.367   .     A
C670   C551    1.417   1_655 S
C671   N710    1.367   .     A
C671   H706    1.082   .     S
C672   C683    1.418   .     A
C672   C141    1.413   1_556 S
C672   C144    1.425   1_556 S
C673   N710    1.367   .     A
C673   H707    1.082   .     S
C674   N711    1.367   .     A
C674   H708    1.082   .     S
C674   C553    1.417   1_655 S
C675   O717    1.292   .     A
C675   O716    1.292   .     A
C676   O718    1.293   .     A
C676   C678    1.461   .     S
C676   O719    1.295   .     A
C677   C689    1.388   .     A
C678   C688    1.400   .     A
C678   C689    1.398   .     A
C679   O720    1.381   .     S
C679   C680    1.395   .     A
C680   C141    1.388   1_556 S
C680   H156    1.081   1_556 S
C681   H695    1.077   .     S
C682   H699    1.113   .     S
C682   O720    1.411   .     S
C682   H701    1.109   .     S
C682   H700    1.114   .     S
C683   C687    1.415   .     A
C684   C688    1.402   .     A
C685   C686    1.386   .     A
C685   C137    1.399   1_556 S
C685   C144    1.418   1_556 S
C686   C687    1.380   .     A
C686   H709    1.081   .     S
C687   H697    1.077   .     S
C688   H694    1.076   .     S
C689   H692    1.083   .     S
Cu690  O716    1.965   .     S
Cu690  N710    2.013   .     S
Cu690  O714    1.962   .     S
Cu690  O718    1.954   .     S
Cu690  Cu691   2.679   .     S
Cu690  O712    1.965   .     S
Cu691  O717    1.965   .     S
Cu691  O719    1.962   .     S
Cu691  O715    1.954   .     S
Cu691  O713    1.965   .     S
Cu691  N711    2.013   .     S
H693   C137    1.081   1_556 S
C721   O773    1.292   .     A
C721   O772    1.292   .     A
C721   C729    1.450   .     S
C722   C724    1.491   .     S
C722   C743    1.430   .     A
C722   C739    1.412   .     A
C723   C729    1.401   .     A
C723   H758    1.083   .     S
C723   C905    1.383   .     S
C724   O775    1.291   .     A
C724   O774    1.311   .     A
C725   H762    1.083   .     S
C725   C726    1.401   .     A
C726   C727    1.401   .     A
C726   C735    1.450   .     S
C727   H763    1.083   .     S
C728   H764    1.083   .     S
C728   C729    1.401   .     A
C728   C907    1.384   .     S
C730   H765    1.082   .     S
C730   N771    1.367   .     A
C730   C791    1.417   .     S
C731   N770    1.367   .     A
C731   H766    1.082   .     S
C731   C850    1.417   1_455 S
C732   C743    1.418   .     A
C732   C201    1.413   1_556 S
C732   C204    1.425   1_556 S
C733   N770    1.367   .     A
C733   H767    1.082   .     S
C733   C854    1.417   1_455 S
C734   N771    1.367   .     A
C734   H768    1.082   .     S
C734   C793    1.417   .     S
C735   O777    1.292   .     A
C735   O776    1.292   .     A
C736   O778    1.293   .     A
C736   C738    1.461   .     S
C736   O779    1.295   .     A
C737   C749    1.388   .     A
C738   C748    1.400   .     A
C738   C749    1.398   .     A
C739   O780    1.381   .     S
C739   C740    1.395   .     A
C740   C201    1.388   1_556 S
C740   H216    1.081   1_556 S
C741   H755    1.077   .     S
C742   H759    1.113   .     S
C742   O780    1.411   .     S
C742   H761    1.109   .     S
C742   H760    1.114   .     S
C743   C747    1.415   .     A
C744   C748    1.402   .     A
C745   C746    1.386   .     A
C745   C197    1.399   1_556 S
C745   C204    1.418   1_556 S
C746   C747    1.380   .     A
C746   H769    1.081   .     S
C747   H757    1.077   .     S
C748   H754    1.076   .     S
C749   H752    1.083   .     S
Cu750  O776    1.965   .     S
Cu750  N770    2.013   .     S
Cu750  O774    1.962   .     S
Cu750  O778    1.954   .     S
Cu750  Cu751   2.679   .     S
Cu750  O772    1.965   .     S
Cu751  O777    1.965   .     S
Cu751  O779    1.962   .     S
Cu751  O775    1.954   .     S
Cu751  O773    1.965   .     S
Cu751  N771    2.013   .     S
H753   C197    1.081   1_556 S
C781   O833    1.292   .     A
C781   O832    1.292   .     A
C781   C789    1.450   .     S
C782   C784    1.491   .     S
C782   C803    1.430   .     A
C782   C799    1.412   .     A
C783   C789    1.401   .     A
C783   H818    1.083   .     S
C783   C965    1.383   .     S
C784   O835    1.291   .     A
C784   O834    1.311   .     A
C785   H822    1.083   .     S
C785   C786    1.401   .     A
C786   C787    1.401   .     A
C786   C795    1.450   .     S
C787   H823    1.083   .     S
C788   H824    1.083   .     S
C788   C789    1.401   .     A
C788   C967    1.384   .     S
C790   H825    1.082   .     S
C790   N831    1.367   .     A
C790   C851    1.417   .     S
C791   N830    1.367   .     A
C791   H826    1.082   .     S
C792   C803    1.418   .     A
C792   C261    1.413   1_556 S
C792   C264    1.425   1_556 S
C793   N830    1.367   .     A
C793   H827    1.082   .     S
C794   N831    1.367   .     A
C794   H828    1.082   .     S
C794   C853    1.417   .     S
C795   O837    1.292   .     A
C795   O836    1.292   .     A
C796   O838    1.293   .     A
C796   C798    1.461   .     S
C796   O839    1.295   .     A
C797   C809    1.388   .     A
C798   C808    1.400   .     A
C798   C809    1.398   .     A
C799   O840    1.381   .     S
C799   C800    1.395   .     A
C800   C261    1.388   1_556 S
C800   H276    1.081   1_556 S
C801   H815    1.077   .     S
C802   H819    1.113   .     S
C802   O840    1.411   .     S
C802   H821    1.109   .     S
C802   H820    1.114   .     S
C803   C807    1.415   .     A
C804   C808    1.402   .     A
C805   C806    1.386   .     A
C805   C257    1.399   1_556 S
C805   C264    1.418   1_556 S
C806   C807    1.380   .     A
C806   H829    1.081   .     S
C807   H817    1.077   .     S
C808   H814    1.076   .     S
C809   H812    1.083   .     S
Cu810  O836    1.965   .     S
Cu810  N830    2.013   .     S
Cu810  O834    1.962   .     S
Cu810  O838    1.954   .     S
Cu810  Cu811   2.679   .     S
Cu810  O832    1.965   .     S
Cu811  O837    1.965   .     S
Cu811  O839    1.962   .     S
Cu811  O835    1.954   .     S
Cu811  O833    1.965   .     S
Cu811  N831    2.013   .     S
H813   C257    1.081   1_556 S
C841   O893    1.292   .     A
C841   O892    1.292   .     A
C841   C849    1.450   .     S
C842   C844    1.491   .     S
C842   C863    1.430   .     A
C842   C859    1.412   .     A
C843   C849    1.401   .     A
C843   H878    1.083   .     S
C843   C1025   1.383   .     S
C844   O895    1.291   .     A
C844   O894    1.311   .     A
C845   H882    1.083   .     S
C845   C846    1.401   .     A
C846   C847    1.401   .     A
C846   C855    1.450   .     S
C847   H883    1.083   .     S
C848   H884    1.083   .     S
C848   C849    1.401   .     A
C848   C1027   1.384   .     S
C850   H885    1.082   .     S
C850   N891    1.367   .     A
C850   C731    1.417   1_655 S
C851   N890    1.367   .     A
C851   H886    1.082   .     S
C852   C863    1.418   .     A
C852   C321    1.413   1_556 S
C852   C324    1.425   1_556 S
C853   N890    1.367   .     A
C853   H887    1.082   .     S
C854   N891    1.367   .     A
C854   H888    1.082   .     S
C854   C733    1.417   1_655 S
C855   O897    1.292   .     A
C855   O896    1.292   .     A
C856   O898    1.293   .     A
C856   C858    1.461   .     S
C856   O899    1.295   .     A
C857   C869    1.388   .     A
C858   C868    1.400   .     A
C858   C869    1.398   .     A
C859   O900    1.381   .     S
C859   C860    1.395   .     A
C860   C321    1.388   1_556 S
C860   H336    1.081   1_556 S
C861   H875    1.077   .     S
C862   H879    1.113   .     S
C862   O900    1.411   .     S
C862   H881    1.109   .     S
C862   H880    1.114   .     S
C863   C867    1.415   .     A
C864   C868    1.402   .     A
C865   C866    1.386   .     A
C865   C317    1.399   1_556 S
C865   C324    1.418   1_556 S
C866   C867    1.380   .     A
C866   H889    1.081   .     S
C867   H877    1.077   .     S
C868   H874    1.076   .     S
C869   H872    1.083   .     S
Cu870  O896    1.965   .     S
Cu870  N890    2.013   .     S
Cu870  O894    1.962   .     S
Cu870  O898    1.954   .     S
Cu870  Cu871   2.679   .     S
Cu870  O892    1.965   .     S
Cu871  O897    1.965   .     S
Cu871  O899    1.962   .     S
Cu871  O895    1.954   .     S
Cu871  O893    1.965   .     S
Cu871  N891    2.013   .     S
H873   C317    1.081   1_556 S
C901   O953    1.292   .     A
C901   O952    1.292   .     A
C901   C909    1.450   .     S
C902   C904    1.491   .     S
C902   C923    1.430   .     A
C902   C919    1.412   .     A
C903   C909    1.401   .     A
C903   H938    1.083   .     S
C903   C545    1.383   1_565 S
C904   O955    1.291   .     A
C904   O954    1.311   .     A
C905   H942    1.083   .     S
C905   C906    1.401   .     A
C906   C907    1.401   .     A
C906   C915    1.450   .     S
C907   H943    1.083   .     S
C908   H944    1.083   .     S
C908   C909    1.401   .     A
C908   C547    1.384   1_565 S
C910   H945    1.082   .     S
C910   N951    1.367   .     A
C910   C971    1.417   .     S
C911   N950    1.367   .     A
C911   H946    1.082   .     S
C911   C1030   1.417   1_455 S
C912   C923    1.418   .     A
C912   C381    1.413   1_556 S
C912   C384    1.425   1_556 S
C913   N950    1.367   .     A
C913   H947    1.082   .     S
C913   C1034   1.417   1_455 S
C914   N951    1.367   .     A
C914   H948    1.082   .     S
C914   C973    1.417   .     S
C915   O957    1.292   .     A
C915   O956    1.292   .     A
C916   O958    1.293   .     A
C916   C918    1.461   .     S
C916   O959    1.295   .     A
C917   C929    1.388   .     A
C918   C928    1.400   .     A
C918   C929    1.398   .     A
C919   O960    1.381   .     S
C919   C920    1.395   .     A
C920   C381    1.388   1_556 S
C920   H396    1.081   1_556 S
C921   H935    1.077   .     S
C922   H939    1.113   .     S
C922   O960    1.411   .     S
C922   H941    1.109   .     S
C922   H940    1.114   .     S
C923   C927    1.415   .     A
C924   C928    1.402   .     A
C925   C926    1.386   .     A
C925   C377    1.399   1_556 S
C925   C384    1.418   1_556 S
C926   C927    1.380   .     A
C926   H949    1.081   .     S
C927   H937    1.077   .     S
C928   H934    1.076   .     S
C929   H932    1.083   .     S
Cu930  O956    1.965   .     S
Cu930  N950    2.013   .     S
Cu930  O954    1.962   .     S
Cu930  O958    1.954   .     S
Cu930  Cu931   2.679   .     S
Cu930  O952    1.965   .     S
Cu931  O957    1.965   .     S
Cu931  O959    1.962   .     S
Cu931  O955    1.954   .     S
Cu931  O953    1.965   .     S
Cu931  N951    2.013   .     S
H933   C377    1.081   1_556 S
C961   O1013   1.292   .     A
C961   O1012   1.292   .     A
C961   C969    1.450   .     S
C962   C964    1.491   .     S
C962   C983    1.430   .     A
C962   C979    1.412   .     A
C963   C969    1.401   .     A
C963   H998    1.083   .     S
C963   C605    1.383   1_565 S
C964   O1015   1.291   .     A
C964   O1014   1.311   .     A
C965   H1002   1.083   .     S
C965   C966    1.401   .     A
C966   C967    1.401   .     A
C966   C975    1.450   .     S
C967   H1003   1.083   .     S
C968   H1004   1.083   .     S
C968   C969    1.401   .     A
C968   C607    1.384   1_565 S
C970   H1005   1.082   .     S
C970   N1011   1.367   .     A
C970   C1031   1.417   .     S
C971   N1010   1.367   .     A
C971   H1006   1.082   .     S
C972   C983    1.418   .     A
C972   C441    1.413   1_556 S
C972   C444    1.425   1_556 S
C973   N1010   1.367   .     A
C973   H1007   1.082   .     S
C974   N1011   1.367   .     A
C974   H1008   1.082   .     S
C974   C1033   1.417   .     S
C975   O1017   1.292   .     A
C975   O1016   1.292   .     A
C976   O1018   1.293   .     A
C976   C978    1.461   .     S
C976   O1019   1.295   .     A
C977   C989    1.388   .     A
C978   C988    1.400   .     A
C978   C989    1.398   .     A
C979   O1020   1.381   .     S
C979   C980    1.395   .     A
C980   C441    1.388   1_556 S
C980   H456    1.081   1_556 S
C981   H995    1.077   .     S
C982   H999    1.113   .     S
C982   O1020   1.411   .     S
C982   H1001   1.109   .     S
C982   H1000   1.114   .     S
C983   C987    1.415   .     A
C984   C988    1.402   .     A
C985   C986    1.386   .     A
C985   C437    1.399   1_556 S
C985   C444    1.418   1_556 S
C986   C987    1.380   .     A
C986   H1009   1.081   .     S
C987   H997    1.077   .     S
C988   H994    1.076   .     S
C989   H992    1.083   .     S
Cu990  O1016   1.965   .     S
Cu990  N1010   2.013   .     S
Cu990  O1014   1.962   .     S
Cu990  O1018   1.954   .     S
Cu990  Cu991   2.679   .     S
Cu990  O1012   1.965   .     S
Cu991  O1017   1.965   .     S
Cu991  O1019   1.962   .     S
Cu991  O1015   1.954   .     S
Cu991  O1013   1.965   .     S
Cu991  N1011   2.013   .     S
H993   C437    1.081   1_556 S
C1021  O1073   1.292   .     A
C1021  O1072   1.292   .     A
C1021  C1029   1.450   .     S
C1022  C1024   1.491   .     S
C1022  C1043   1.430   .     A
C1022  C1039   1.412   .     A
C1023  C1029   1.401   .     A
C1023  H1058   1.083   .     S
C1023  C665    1.383   1_565 S
C1024  O1075   1.291   .     A
C1024  O1074   1.311   .     A
C1025  H1062   1.083   .     S
C1025  C1026   1.401   .     A
C1026  C1027   1.401   .     A
C1026  C1035   1.450   .     S
C1027  H1063   1.083   .     S
C1028  H1064   1.083   .     S
C1028  C1029   1.401   .     A
C1028  C667    1.384   1_565 S
C1030  H1065   1.082   .     S
C1030  N1071   1.367   .     A
C1030  C911    1.417   1_655 S
C1031  N1070   1.367   .     A
C1031  H1066   1.082   .     S
C1032  C1043   1.418   .     A
C1032  C501    1.413   1_556 S
C1032  C504    1.425   1_556 S
C1033  N1070   1.367   .     A
C1033  H1067   1.082   .     S
C1034  N1071   1.367   .     A
C1034  H1068   1.082   .     S
C1034  C913    1.417   1_655 S
C1035  O1077   1.292   .     A
C1035  O1076   1.292   .     A
C1036  O1078   1.293   .     A
C1036  C1038   1.461   .     S
C1036  O1079   1.295   .     A
C1037  C1049   1.388   .     A
C1038  C1048   1.400   .     A
C1038  C1049   1.398   .     A
C1039  O1080   1.381   .     S
C1039  C1040   1.395   .     A
C1040  C501    1.388   1_556 S
C1040  H516    1.081   1_556 S
C1041  H1055   1.077   .     S
C1042  H1059   1.113   .     S
C1042  O1080   1.411   .     S
C1042  H1061   1.109   .     S
C1042  H1060   1.114   .     S
C1043  C1047   1.415   .     A
C1044  C1048   1.402   .     A
C1045  C1046   1.386   .     A
C1045  C497    1.399   1_556 S
C1045  C504    1.418   1_556 S
C1046  C1047   1.380   .     A
C1046  H1069   1.081   .     S
C1047  H1057   1.077   .     S
C1048  H1054   1.076   .     S
C1049  H1052   1.083   .     S
Cu1050 O1076   1.965   .     S
Cu1050 N1070   2.013   .     S
Cu1050 O1074   1.962   .     S
Cu1050 O1078   1.954   .     S
Cu1050 Cu1051  2.679   .     S
Cu1050 O1072   1.965   .     S
Cu1051 O1077   1.965   .     S
Cu1051 O1079   1.962   .     S
Cu1051 O1075   1.954   .     S
Cu1051 O1073   1.965   .     S
Cu1051 N1071   2.013   .     S
H1053  C497    1.081   1_556 S
