data_str_m1_o10_o16_pcu_sym.43
_audit_creation_date              2020-01-03
_audit_creation_method            'Materials Studio'
_symmetry_space_group_name_H-M    'P1'
_symmetry_Int_Tables_number       1
_symmetry_cell_setting            triclinic
loop_
_symmetry_equiv_pos_as_xyz
  x,y,z
_cell_length_a                    32.4361
_cell_length_b                    32.3764
_cell_length_c                    31.2584
_cell_angle_alpha                 95.7427
_cell_angle_beta                  74.7392
_cell_angle_gamma                 98.1772
loop_
_atom_site_label
_atom_site_type_symbol
_atom_site_fract_x
_atom_site_fract_y
_atom_site_fract_z
_atom_site_U_iso_or_equiv
_atom_site_adp_type
_atom_site_occupancy
C1     C     0.05273   0.15928   0.26058   0.00000  Uiso   1.00
C2     C     0.17534   0.16395   0.05761   0.00000  Uiso   1.00
C3     C     0.20770   0.10277   0.06410   0.00000  Uiso   1.00
C4     C     0.28089   0.17457   0.24046   0.00000  Uiso   1.00
C5     C     0.13504   0.18476   0.42161   0.00000  Uiso   1.00
C6     C     0.32709   0.17941   0.23762   0.00000  Uiso   1.00
C7     C     0.00755   0.15724   0.26380   0.00000  Uiso   1.00
C8     C     0.18118   0.32289   0.23857   0.00000  Uiso   1.00
C9     C     0.15074   0.01220   0.26373   0.00000  Uiso   1.00
C10    C     0.15630   0.05610   0.26000   0.00000  Uiso   1.00
C11    C     0.17650   0.27794   0.24031   0.00000  Uiso   1.00
C12    C     0.10347   0.22424   0.49105   0.00000  Uiso   1.00
C13    C     0.18459   0.14906   0.12962   0.00000  Uiso   1.00
C14    C     0.14656   0.18224   0.37155   0.00000  Uiso   1.00
C15    C     0.20550   0.08802   0.02153   0.00000  Uiso   1.00
C16    C     0.19226   0.14025   0.08221   0.00000  Uiso   1.00
C17    C     0.11140   0.21771   0.44444   0.00000  Uiso   1.00
C18    C     0.09895   0.28003   0.42090   0.00000  Uiso   1.00
C19    C     0.05769   0.30127   0.43638   0.00000  Uiso   1.00
C20    C     0.06688   0.01551   0.43961   0.00000  Uiso   1.00
C21    C     0.10067   0.28554   0.03450   0.00000  Uiso   1.00
C22    C     0.07103   0.31742   0.05991   0.00000  Uiso   1.00
C23    C     0.11704   0.19697   0.01514   0.00000  Uiso   1.00
C24    C     0.09631   0.02179   0.07867   0.00000  Uiso   1.00
C25    C     0.16868   0.05882   0.37534   0.00000  Uiso   1.00
C26    C     0.21810   0.06516   0.35623   0.00000  Uiso   1.00
C27    C     0.23508   0.02387   0.33698   0.00000  Uiso   1.00
C28    C     0.01648   0.24587   0.21364   0.00000  Uiso   1.00
C29    C     0.05799   0.27298   0.19219   0.00000  Uiso   1.00
C30    C     0.05124   0.31903   0.19545   0.00000  Uiso   1.00
C31    C     0.14559   0.16804   0.49302   0.00000  Uiso   1.00
C32    C     0.14868   0.15666   0.44708   0.00000  Uiso   1.00
C33    C     0.16833   0.14769   0.01632   0.00000  Uiso   1.00
C34    C     0.18512   0.11020   0.49774   0.00000  Uiso   1.00
C35    C     0.17921   0.09410   0.45700   0.00000  Uiso   1.00
C36    C     0.16163   0.11609   0.43044   0.00000  Uiso   1.00
H37    H     0.22030   0.08432   0.08373   0.00000  Uiso   1.00
H38    H     0.03634   0.02915   0.45442   0.00000  Uiso   1.00
H39    H     0.08074   0.02712   0.40603   0.00000  Uiso   1.00
H40    H     0.12761   0.30182   0.00970   0.00000  Uiso   1.00
H41    H     0.11465   0.27289   0.05864   0.00000  Uiso   1.00
H42    H     0.05404   0.32843   0.03745   0.00000  Uiso   1.00
H43    H     0.04651   0.30224   0.08762   0.00000  Uiso   1.00
H44    H     0.11483   0.01163   0.10016   0.00000  Uiso   1.00
H45    H     0.07372   0.04330   0.09881   0.00000  Uiso   1.00
H46    H     0.11889   0.03898   0.05117   0.00000  Uiso   1.00
H47    H     0.15346   0.04503   0.34880   0.00000  Uiso   1.00
H48    H     0.31903   0.13678   0.28755   0.00000  Uiso   1.00
H49    H     0.15806   0.03431   0.39962   0.00000  Uiso   1.00
H50    H     0.22716   0.08789   0.33014   0.00000  Uiso   1.00
H51    H     0.23511   0.07841   0.38185   0.00000  Uiso   1.00
H52    H     0.22817   0.00150   0.36343   0.00000  Uiso   1.00
H53    H     0.27045   0.02934   0.32291   0.00000  Uiso   1.00
H54    H     0.21985   0.00998   0.31017   0.00000  Uiso   1.00
H55    H     0.00719   0.25572   0.24984   0.00000  Uiso   1.00
H56    H     0.32427   0.25154   0.19799   0.00000  Uiso   1.00
H57    H     0.08341   0.26940   0.20899   0.00000  Uiso   1.00
H58    H     0.06919   0.26247   0.15657   0.00000  Uiso   1.00
H59    H     0.18850   0.06357   0.44665   0.00000  Uiso   1.00
H60    H     0.02877   0.32365   0.17545   0.00000  Uiso   1.00
H61    H     0.08254   0.00482   0.18252   0.00000  Uiso   1.00
H62    H     0.03781   0.33000   0.23052   0.00000  Uiso   1.00
H63    H     0.16603   0.19410   0.07192   0.00000  Uiso   1.00
H64    H     0.11457   0.28707   0.38585   0.00000  Uiso   1.00
H65    H     0.12249   0.29324   0.44030   0.00000  Uiso   1.00
H66    H     0.03726   0.29165   0.41273   0.00000  Uiso   1.00
H67    H     0.03902   0.29080   0.46941   0.00000  Uiso   1.00
H68    H     0.08937   0.02600   0.46099   0.00000  Uiso   1.00
I69    I     0.23909   0.01805   0.19599   0.00000  Uiso   1.00
I70    I     0.08824   0.32404   0.30378   0.00000  Uiso   1.00
I71    I     0.23141   0.03056   0.49803   0.00000  Uiso   1.00
I72    I     0.07682   0.18688   0.08092   0.00000  Uiso   1.00
O73    O     0.16667   0.16667   0.25000   0.00000  Uiso   1.00
O74    O     0.15451   0.12637   0.15458   0.00000  Uiso   1.00
O75    O     0.12940   0.20391   0.34968   0.00000  Uiso   1.00
O76    O     0.20824   0.17759   0.14606   0.00000  Uiso   1.00
O77    O     0.17451   0.15880   0.34968   0.00000  Uiso   1.00
O78    O     0.08750   0.23626   0.42239   0.00000  Uiso   1.00
O79    O     0.07677   0.25358   0.01334   0.00000  Uiso   1.00
O80    O     0.15118   0.09692   0.39182   0.00000  Uiso   1.00
O81    O     0.02345   0.20330   0.20607   0.00000  Uiso   1.00
O82    O     0.17930   0.08019   0.28213   0.00000  Uiso   1.00
O83    O     0.14632   0.26085   0.27013   0.00000  Uiso   1.00
O84    O     0.07412   0.13291   0.23413   0.00000  Uiso   1.00
O85    O     0.26693   0.19272   0.21360   0.00000  Uiso   1.00
O86    O     0.07071   0.18878   0.28213   0.00000  Uiso   1.00
O87    O     0.25491   0.15226   0.27013   0.00000  Uiso   1.00
O88    O     0.13760   0.06944   0.23413   0.00000  Uiso   1.00
O89    O     0.20345   0.25620   0.21360   0.00000  Uiso   1.00
Zn90   Zn    0.19338   0.13994   0.28734   0.00000  Uiso   1.00
Zn91   Zn    0.13379   0.12458   0.21875   0.00000  Uiso   1.00
Zn92   Zn    0.21056   0.19775   0.20657   0.00000  Uiso   1.00
Zn93   Zn    0.12893   0.20439   0.28733   0.00000  Uiso   1.00
C94    C     0.38606   0.15928   0.26058   0.00000  Uiso   1.00
C95    C     0.50867   0.16395   0.05761   0.00000  Uiso   1.00
C96    C     0.54104   0.10277   0.06410   0.00000  Uiso   1.00
C97    C     0.61422   0.17457   0.24046   0.00000  Uiso   1.00
C98    C     0.46837   0.18476   0.42161   0.00000  Uiso   1.00
C99    C     0.66042   0.17941   0.23762   0.00000  Uiso   1.00
C100   C     0.34089   0.15724   0.26380   0.00000  Uiso   1.00
C101   C     0.51452   0.32289   0.23857   0.00000  Uiso   1.00
C102   C     0.48407   0.01220   0.26373   0.00000  Uiso   1.00
C103   C     0.48963   0.05610   0.26000   0.00000  Uiso   1.00
C104   C     0.50983   0.27794   0.24031   0.00000  Uiso   1.00
C105   C     0.43680   0.22424   0.49105   0.00000  Uiso   1.00
C106   C     0.51793   0.14906   0.12962   0.00000  Uiso   1.00
C107   C     0.47989   0.18224   0.37155   0.00000  Uiso   1.00
C108   C     0.53883   0.08802   0.02153   0.00000  Uiso   1.00
C109   C     0.52560   0.14025   0.08221   0.00000  Uiso   1.00
C110   C     0.44474   0.21771   0.44444   0.00000  Uiso   1.00
C111   C     0.43228   0.28003   0.42090   0.00000  Uiso   1.00
C112   C     0.39103   0.30127   0.43638   0.00000  Uiso   1.00
C113   C     0.40022   0.01551   0.43961   0.00000  Uiso   1.00
C114   C     0.43401   0.28554   0.03450   0.00000  Uiso   1.00
C115   C     0.40436   0.31742   0.05991   0.00000  Uiso   1.00
C116   C     0.45037   0.19697   0.01514   0.00000  Uiso   1.00
C117   C     0.42964   0.02179   0.07867   0.00000  Uiso   1.00
C118   C     0.50201   0.05882   0.37534   0.00000  Uiso   1.00
C119   C     0.55144   0.06516   0.35623   0.00000  Uiso   1.00
C120   C     0.56841   0.02387   0.33698   0.00000  Uiso   1.00
C121   C     0.34981   0.24587   0.21364   0.00000  Uiso   1.00
C122   C     0.39133   0.27298   0.19219   0.00000  Uiso   1.00
C123   C     0.38458   0.31903   0.19545   0.00000  Uiso   1.00
C124   C     0.47892   0.16804   0.49302   0.00000  Uiso   1.00
C125   C     0.48201   0.15666   0.44708   0.00000  Uiso   1.00
C126   C     0.50167   0.14769   0.01632   0.00000  Uiso   1.00
C127   C     0.51845   0.11020   0.49774   0.00000  Uiso   1.00
C128   C     0.51255   0.09410   0.45700   0.00000  Uiso   1.00
C129   C     0.49496   0.11609   0.43044   0.00000  Uiso   1.00
H130   H     0.55363   0.08432   0.08373   0.00000  Uiso   1.00
H131   H     0.36968   0.02915   0.45442   0.00000  Uiso   1.00
H132   H     0.41407   0.02712   0.40603   0.00000  Uiso   1.00
H133   H     0.46095   0.30182   0.00970   0.00000  Uiso   1.00
H134   H     0.44798   0.27289   0.05864   0.00000  Uiso   1.00
H135   H     0.38738   0.32843   0.03745   0.00000  Uiso   1.00
H136   H     0.37984   0.30224   0.08762   0.00000  Uiso   1.00
H137   H     0.44817   0.01163   0.10016   0.00000  Uiso   1.00
H138   H     0.40706   0.04330   0.09881   0.00000  Uiso   1.00
H139   H     0.45222   0.03898   0.05117   0.00000  Uiso   1.00
H140   H     0.48679   0.04503   0.34880   0.00000  Uiso   1.00
H141   H     0.65237   0.13678   0.28755   0.00000  Uiso   1.00
H142   H     0.49140   0.03431   0.39962   0.00000  Uiso   1.00
H143   H     0.56049   0.08789   0.33014   0.00000  Uiso   1.00
H144   H     0.56844   0.07841   0.38185   0.00000  Uiso   1.00
H145   H     0.56150   0.00150   0.36343   0.00000  Uiso   1.00
H146   H     0.60378   0.02934   0.32291   0.00000  Uiso   1.00
H147   H     0.55318   0.00998   0.31017   0.00000  Uiso   1.00
H148   H     0.34053   0.25572   0.24984   0.00000  Uiso   1.00
H149   H     0.65760   0.25154   0.19799   0.00000  Uiso   1.00
H150   H     0.41674   0.26940   0.20899   0.00000  Uiso   1.00
H151   H     0.40253   0.26247   0.15657   0.00000  Uiso   1.00
H152   H     0.52183   0.06357   0.44665   0.00000  Uiso   1.00
H153   H     0.36210   0.32365   0.17545   0.00000  Uiso   1.00
H154   H     0.41587   0.00482   0.18252   0.00000  Uiso   1.00
H155   H     0.37115   0.33000   0.23052   0.00000  Uiso   1.00
H156   H     0.49937   0.19410   0.07192   0.00000  Uiso   1.00
H157   H     0.44791   0.28707   0.38585   0.00000  Uiso   1.00
H158   H     0.45582   0.29324   0.44030   0.00000  Uiso   1.00
H159   H     0.37059   0.29165   0.41273   0.00000  Uiso   1.00
H160   H     0.37235   0.29080   0.46941   0.00000  Uiso   1.00
H161   H     0.42270   0.02600   0.46099   0.00000  Uiso   1.00
I162   I     0.57242   0.01805   0.19599   0.00000  Uiso   1.00
I163   I     0.42157   0.32404   0.30378   0.00000  Uiso   1.00
I164   I     0.56474   0.03056   0.49803   0.00000  Uiso   1.00
I165   I     0.41016   0.18688   0.08092   0.00000  Uiso   1.00
O166   O     0.50000   0.16667   0.25000   0.00000  Uiso   1.00
O167   O     0.48784   0.12637   0.15458   0.00000  Uiso   1.00
O168   O     0.46274   0.20391   0.34968   0.00000  Uiso   1.00
O169   O     0.54157   0.17759   0.14606   0.00000  Uiso   1.00
O170   O     0.50785   0.15880   0.34968   0.00000  Uiso   1.00
O171   O     0.42083   0.23626   0.42239   0.00000  Uiso   1.00
O172   O     0.41011   0.25358   0.01334   0.00000  Uiso   1.00
O173   O     0.48451   0.09692   0.39182   0.00000  Uiso   1.00
O174   O     0.35678   0.20330   0.20607   0.00000  Uiso   1.00
O175   O     0.51264   0.08019   0.28213   0.00000  Uiso   1.00
O176   O     0.47965   0.26085   0.27013   0.00000  Uiso   1.00
O177   O     0.40745   0.13291   0.23413   0.00000  Uiso   1.00
O178   O     0.60026   0.19272   0.21360   0.00000  Uiso   1.00
O179   O     0.40405   0.18878   0.28213   0.00000  Uiso   1.00
O180   O     0.58824   0.15226   0.27013   0.00000  Uiso   1.00
O181   O     0.47093   0.06944   0.23413   0.00000  Uiso   1.00
O182   O     0.53678   0.25620   0.21360   0.00000  Uiso   1.00
Zn183  Zn    0.52672   0.13994   0.28734   0.00000  Uiso   1.00
Zn184  Zn    0.46713   0.12458   0.21875   0.00000  Uiso   1.00
Zn185  Zn    0.54389   0.19775   0.20657   0.00000  Uiso   1.00
Zn186  Zn    0.46226   0.20439   0.28733   0.00000  Uiso   1.00
C187   C     0.71940   0.15928   0.26058   0.00000  Uiso   1.00
C188   C     0.84201   0.16395   0.05761   0.00000  Uiso   1.00
C189   C     0.87437   0.10277   0.06410   0.00000  Uiso   1.00
C190   C     0.94755   0.17457   0.24046   0.00000  Uiso   1.00
C191   C     0.80171   0.18476   0.42161   0.00000  Uiso   1.00
C192   C     0.99376   0.17941   0.23762   0.00000  Uiso   1.00
C193   C     0.67422   0.15724   0.26380   0.00000  Uiso   1.00
C194   C     0.84785   0.32289   0.23857   0.00000  Uiso   1.00
C195   C     0.81741   0.01220   0.26373   0.00000  Uiso   1.00
C196   C     0.82297   0.05610   0.26000   0.00000  Uiso   1.00
C197   C     0.84316   0.27794   0.24031   0.00000  Uiso   1.00
C198   C     0.77013   0.22424   0.49105   0.00000  Uiso   1.00
C199   C     0.85126   0.14906   0.12962   0.00000  Uiso   1.00
C200   C     0.81323   0.18224   0.37155   0.00000  Uiso   1.00
C201   C     0.87217   0.08802   0.02153   0.00000  Uiso   1.00
C202   C     0.85893   0.14025   0.08221   0.00000  Uiso   1.00
C203   C     0.77807   0.21771   0.44444   0.00000  Uiso   1.00
C204   C     0.76561   0.28003   0.42090   0.00000  Uiso   1.00
C205   C     0.72436   0.30127   0.43638   0.00000  Uiso   1.00
C206   C     0.73355   0.01551   0.43961   0.00000  Uiso   1.00
C207   C     0.76734   0.28554   0.03450   0.00000  Uiso   1.00
C208   C     0.73770   0.31742   0.05991   0.00000  Uiso   1.00
C209   C     0.78371   0.19697   0.01514   0.00000  Uiso   1.00
C210   C     0.76297   0.02179   0.07867   0.00000  Uiso   1.00
C211   C     0.83534   0.05882   0.37534   0.00000  Uiso   1.00
C212   C     0.88477   0.06516   0.35623   0.00000  Uiso   1.00
C213   C     0.90175   0.02387   0.33698   0.00000  Uiso   1.00
C214   C     0.68315   0.24587   0.21364   0.00000  Uiso   1.00
C215   C     0.72466   0.27298   0.19219   0.00000  Uiso   1.00
C216   C     0.71791   0.31903   0.19545   0.00000  Uiso   1.00
C217   C     0.81225   0.16804   0.49302   0.00000  Uiso   1.00
C218   C     0.81535   0.15666   0.44708   0.00000  Uiso   1.00
C219   C     0.83500   0.14769   0.01632   0.00000  Uiso   1.00
C220   C     0.85178   0.11020   0.49774   0.00000  Uiso   1.00
C221   C     0.84588   0.09410   0.45700   0.00000  Uiso   1.00
C222   C     0.82829   0.11609   0.43044   0.00000  Uiso   1.00
H223   H     0.88696   0.08432   0.08373   0.00000  Uiso   1.00
H224   H     0.70301   0.02915   0.45442   0.00000  Uiso   1.00
H225   H     0.74740   0.02712   0.40603   0.00000  Uiso   1.00
H226   H     0.79428   0.30182   0.00970   0.00000  Uiso   1.00
H227   H     0.78131   0.27289   0.05864   0.00000  Uiso   1.00
H228   H     0.72071   0.32843   0.03745   0.00000  Uiso   1.00
H229   H     0.71318   0.30224   0.08762   0.00000  Uiso   1.00
H230   H     0.78150   0.01163   0.10016   0.00000  Uiso   1.00
H231   H     0.74039   0.04330   0.09881   0.00000  Uiso   1.00
H232   H     0.78555   0.03898   0.05117   0.00000  Uiso   1.00
H233   H     0.82012   0.04503   0.34880   0.00000  Uiso   1.00
H234   H     0.98570   0.13678   0.28755   0.00000  Uiso   1.00
H235   H     0.82473   0.03431   0.39962   0.00000  Uiso   1.00
H236   H     0.89382   0.08789   0.33014   0.00000  Uiso   1.00
H237   H     0.90177   0.07841   0.38185   0.00000  Uiso   1.00
H238   H     0.89483   0.00150   0.36343   0.00000  Uiso   1.00
H239   H     0.93712   0.02934   0.32291   0.00000  Uiso   1.00
H240   H     0.88652   0.00998   0.31017   0.00000  Uiso   1.00
H241   H     0.67386   0.25572   0.24984   0.00000  Uiso   1.00
H242   H     0.99093   0.25154   0.19799   0.00000  Uiso   1.00
H243   H     0.75007   0.26940   0.20899   0.00000  Uiso   1.00
H244   H     0.73586   0.26247   0.15657   0.00000  Uiso   1.00
H245   H     0.85517   0.06357   0.44665   0.00000  Uiso   1.00
H246   H     0.69543   0.32365   0.17545   0.00000  Uiso   1.00
H247   H     0.74920   0.00482   0.18252   0.00000  Uiso   1.00
H248   H     0.70448   0.33000   0.23052   0.00000  Uiso   1.00
H249   H     0.83270   0.19410   0.07192   0.00000  Uiso   1.00
H250   H     0.78124   0.28707   0.38585   0.00000  Uiso   1.00
H251   H     0.78916   0.29324   0.44030   0.00000  Uiso   1.00
H252   H     0.70393   0.29165   0.41273   0.00000  Uiso   1.00
H253   H     0.70568   0.29080   0.46941   0.00000  Uiso   1.00
H254   H     0.75603   0.02600   0.46099   0.00000  Uiso   1.00
I255   I     0.90575   0.01805   0.19599   0.00000  Uiso   1.00
I256   I     0.75490   0.32404   0.30378   0.00000  Uiso   1.00
I257   I     0.89807   0.03056   0.49803   0.00000  Uiso   1.00
I258   I     0.74349   0.18688   0.08092   0.00000  Uiso   1.00
O259   O     0.83333   0.16667   0.25000   0.00000  Uiso   1.00
O260   O     0.82118   0.12637   0.15458   0.00000  Uiso   1.00
O261   O     0.79607   0.20391   0.34968   0.00000  Uiso   1.00
O262   O     0.87491   0.17759   0.14606   0.00000  Uiso   1.00
O263   O     0.84118   0.15880   0.34968   0.00000  Uiso   1.00
O264   O     0.75417   0.23626   0.42239   0.00000  Uiso   1.00
O265   O     0.74344   0.25358   0.01334   0.00000  Uiso   1.00
O266   O     0.81785   0.09692   0.39182   0.00000  Uiso   1.00
O267   O     0.69011   0.20330   0.20607   0.00000  Uiso   1.00
O268   O     0.84597   0.08019   0.28213   0.00000  Uiso   1.00
O269   O     0.81298   0.26085   0.27013   0.00000  Uiso   1.00
O270   O     0.74078   0.13291   0.23413   0.00000  Uiso   1.00
O271   O     0.93360   0.19272   0.21360   0.00000  Uiso   1.00
O272   O     0.73738   0.18878   0.28213   0.00000  Uiso   1.00
O273   O     0.92158   0.15226   0.27013   0.00000  Uiso   1.00
O274   O     0.80426   0.06944   0.23413   0.00000  Uiso   1.00
O275   O     0.87012   0.25620   0.21360   0.00000  Uiso   1.00
Zn276  Zn    0.86005   0.13994   0.28734   0.00000  Uiso   1.00
Zn277  Zn    0.80046   0.12458   0.21875   0.00000  Uiso   1.00
Zn278  Zn    0.87723   0.19775   0.20657   0.00000  Uiso   1.00
Zn279  Zn    0.79560   0.20439   0.28733   0.00000  Uiso   1.00
C280   C     0.05273   0.49261   0.26058   0.00000  Uiso   1.00
C281   C     0.17534   0.49728   0.05761   0.00000  Uiso   1.00
C282   C     0.20770   0.43611   0.06410   0.00000  Uiso   1.00
C283   C     0.28089   0.50791   0.24046   0.00000  Uiso   1.00
C284   C     0.13504   0.51809   0.42161   0.00000  Uiso   1.00
C285   C     0.32709   0.51274   0.23762   0.00000  Uiso   1.00
C286   C     0.00755   0.49057   0.26380   0.00000  Uiso   1.00
C287   C     0.18118   0.65622   0.23857   0.00000  Uiso   1.00
C288   C     0.15074   0.34554   0.26373   0.00000  Uiso   1.00
C289   C     0.15630   0.38943   0.26000   0.00000  Uiso   1.00
C290   C     0.17650   0.61127   0.24031   0.00000  Uiso   1.00
C291   C     0.10347   0.55757   0.49105   0.00000  Uiso   1.00
C292   C     0.18459   0.48240   0.12962   0.00000  Uiso   1.00
C293   C     0.14656   0.51557   0.37155   0.00000  Uiso   1.00
C294   C     0.20550   0.42135   0.02153   0.00000  Uiso   1.00
C295   C     0.19226   0.47359   0.08221   0.00000  Uiso   1.00
C296   C     0.11140   0.55105   0.44444   0.00000  Uiso   1.00
C297   C     0.09895   0.61336   0.42090   0.00000  Uiso   1.00
C298   C     0.05769   0.63461   0.43638   0.00000  Uiso   1.00
C299   C     0.06688   0.34884   0.43961   0.00000  Uiso   1.00
C300   C     0.10067   0.61888   0.03450   0.00000  Uiso   1.00
C301   C     0.07103   0.65075   0.05991   0.00000  Uiso   1.00
C302   C     0.11704   0.53030   0.01514   0.00000  Uiso   1.00
C303   C     0.09631   0.35512   0.07867   0.00000  Uiso   1.00
C304   C     0.16868   0.39216   0.37534   0.00000  Uiso   1.00
C305   C     0.21810   0.39849   0.35623   0.00000  Uiso   1.00
C306   C     0.23508   0.35720   0.33698   0.00000  Uiso   1.00
C307   C     0.01648   0.57921   0.21364   0.00000  Uiso   1.00
C308   C     0.05799   0.60631   0.19219   0.00000  Uiso   1.00
C309   C     0.05124   0.65236   0.19545   0.00000  Uiso   1.00
C310   C     0.14559   0.50137   0.49302   0.00000  Uiso   1.00
C311   C     0.14868   0.48999   0.44708   0.00000  Uiso   1.00
C312   C     0.16833   0.48102   0.01632   0.00000  Uiso   1.00
C313   C     0.18512   0.44353   0.49774   0.00000  Uiso   1.00
C314   C     0.17921   0.42743   0.45700   0.00000  Uiso   1.00
C315   C     0.16163   0.44942   0.43044   0.00000  Uiso   1.00
H316   H     0.22030   0.41765   0.08373   0.00000  Uiso   1.00
H317   H     0.03634   0.36248   0.45442   0.00000  Uiso   1.00
H318   H     0.08074   0.36045   0.40603   0.00000  Uiso   1.00
H319   H     0.12761   0.63516   0.00970   0.00000  Uiso   1.00
H320   H     0.11465   0.60623   0.05864   0.00000  Uiso   1.00
H321   H     0.05404   0.66176   0.03745   0.00000  Uiso   1.00
H322   H     0.04651   0.63557   0.08762   0.00000  Uiso   1.00
H323   H     0.11483   0.34496   0.10016   0.00000  Uiso   1.00
H324   H     0.07372   0.37664   0.09881   0.00000  Uiso   1.00
H325   H     0.11889   0.37231   0.05117   0.00000  Uiso   1.00
H326   H     0.15346   0.37836   0.34880   0.00000  Uiso   1.00
H327   H     0.31903   0.47011   0.28755   0.00000  Uiso   1.00
H328   H     0.15806   0.36764   0.39962   0.00000  Uiso   1.00
H329   H     0.22716   0.42122   0.33014   0.00000  Uiso   1.00
H330   H     0.23511   0.41174   0.38185   0.00000  Uiso   1.00
H331   H     0.22817   0.33483   0.36343   0.00000  Uiso   1.00
H332   H     0.27045   0.36268   0.32291   0.00000  Uiso   1.00
H333   H     0.21985   0.34331   0.31017   0.00000  Uiso   1.00
H334   H     0.00719   0.58905   0.24984   0.00000  Uiso   1.00
H335   H     0.32427   0.58488   0.19799   0.00000  Uiso   1.00
H336   H     0.08341   0.60273   0.20899   0.00000  Uiso   1.00
H337   H     0.06919   0.59580   0.15657   0.00000  Uiso   1.00
H338   H     0.18850   0.39690   0.44665   0.00000  Uiso   1.00
H339   H     0.02877   0.65698   0.17545   0.00000  Uiso   1.00
H340   H     0.08254   0.33815   0.18252   0.00000  Uiso   1.00
H341   H     0.03781   0.66334   0.23052   0.00000  Uiso   1.00
H342   H     0.16603   0.52744   0.07192   0.00000  Uiso   1.00
H343   H     0.11457   0.62041   0.38585   0.00000  Uiso   1.00
H344   H     0.12249   0.62658   0.44030   0.00000  Uiso   1.00
H345   H     0.03726   0.62499   0.41273   0.00000  Uiso   1.00
H346   H     0.03902   0.62413   0.46941   0.00000  Uiso   1.00
H347   H     0.08937   0.35933   0.46099   0.00000  Uiso   1.00
I348   I     0.23909   0.35139   0.19599   0.00000  Uiso   1.00
I349   I     0.08824   0.65737   0.30378   0.00000  Uiso   1.00
I350   I     0.23141   0.36390   0.49803   0.00000  Uiso   1.00
I351   I     0.07682   0.52021   0.08092   0.00000  Uiso   1.00
O352   O     0.16667   0.50000   0.25000   0.00000  Uiso   1.00
O353   O     0.15451   0.45970   0.15458   0.00000  Uiso   1.00
O354   O     0.12940   0.53724   0.34968   0.00000  Uiso   1.00
O355   O     0.20824   0.51092   0.14606   0.00000  Uiso   1.00
O356   O     0.17451   0.49213   0.34968   0.00000  Uiso   1.00
O357   O     0.08750   0.56959   0.42239   0.00000  Uiso   1.00
O358   O     0.07677   0.58691   0.01334   0.00000  Uiso   1.00
O359   O     0.15118   0.43026   0.39182   0.00000  Uiso   1.00
O360   O     0.02345   0.53664   0.20607   0.00000  Uiso   1.00
O361   O     0.17930   0.41352   0.28213   0.00000  Uiso   1.00
O362   O     0.14632   0.59418   0.27013   0.00000  Uiso   1.00
O363   O     0.07412   0.46625   0.23413   0.00000  Uiso   1.00
O364   O     0.26693   0.52605   0.21360   0.00000  Uiso   1.00
O365   O     0.07071   0.52211   0.28213   0.00000  Uiso   1.00
O366   O     0.25491   0.48559   0.27013   0.00000  Uiso   1.00
O367   O     0.13760   0.40277   0.23413   0.00000  Uiso   1.00
O368   O     0.20345   0.58953   0.21360   0.00000  Uiso   1.00
Zn369  Zn    0.19338   0.47327   0.28734   0.00000  Uiso   1.00
Zn370  Zn    0.13379   0.45791   0.21875   0.00000  Uiso   1.00
Zn371  Zn    0.21056   0.53109   0.20657   0.00000  Uiso   1.00
Zn372  Zn    0.12893   0.53773   0.28733   0.00000  Uiso   1.00
C373   C     0.38606   0.49261   0.26058   0.00000  Uiso   1.00
C374   C     0.50867   0.49728   0.05761   0.00000  Uiso   1.00
C375   C     0.54104   0.43611   0.06410   0.00000  Uiso   1.00
C376   C     0.61422   0.50791   0.24046   0.00000  Uiso   1.00
C377   C     0.46837   0.51809   0.42161   0.00000  Uiso   1.00
C378   C     0.66042   0.51274   0.23762   0.00000  Uiso   1.00
C379   C     0.34089   0.49057   0.26380   0.00000  Uiso   1.00
C380   C     0.51452   0.65622   0.23857   0.00000  Uiso   1.00
C381   C     0.48407   0.34554   0.26373   0.00000  Uiso   1.00
C382   C     0.48963   0.38943   0.26000   0.00000  Uiso   1.00
C383   C     0.50983   0.61127   0.24031   0.00000  Uiso   1.00
C384   C     0.43680   0.55757   0.49105   0.00000  Uiso   1.00
C385   C     0.51793   0.48240   0.12962   0.00000  Uiso   1.00
C386   C     0.47989   0.51557   0.37155   0.00000  Uiso   1.00
C387   C     0.53883   0.42135   0.02153   0.00000  Uiso   1.00
C388   C     0.52560   0.47359   0.08221   0.00000  Uiso   1.00
C389   C     0.44474   0.55105   0.44444   0.00000  Uiso   1.00
C390   C     0.43228   0.61336   0.42090   0.00000  Uiso   1.00
C391   C     0.39103   0.63461   0.43638   0.00000  Uiso   1.00
C392   C     0.40022   0.34884   0.43961   0.00000  Uiso   1.00
C393   C     0.43401   0.61888   0.03450   0.00000  Uiso   1.00
C394   C     0.40436   0.65075   0.05991   0.00000  Uiso   1.00
C395   C     0.45037   0.53030   0.01514   0.00000  Uiso   1.00
C396   C     0.42964   0.35512   0.07867   0.00000  Uiso   1.00
C397   C     0.50201   0.39216   0.37534   0.00000  Uiso   1.00
C398   C     0.55144   0.39849   0.35623   0.00000  Uiso   1.00
C399   C     0.56841   0.35720   0.33698   0.00000  Uiso   1.00
C400   C     0.34981   0.57921   0.21364   0.00000  Uiso   1.00
C401   C     0.39133   0.60631   0.19219   0.00000  Uiso   1.00
C402   C     0.38458   0.65236   0.19545   0.00000  Uiso   1.00
C403   C     0.47892   0.50137   0.49302   0.00000  Uiso   1.00
C404   C     0.48201   0.48999   0.44708   0.00000  Uiso   1.00
C405   C     0.50167   0.48102   0.01632   0.00000  Uiso   1.00
C406   C     0.51845   0.44353   0.49774   0.00000  Uiso   1.00
C407   C     0.51255   0.42743   0.45700   0.00000  Uiso   1.00
C408   C     0.49496   0.44942   0.43044   0.00000  Uiso   1.00
H409   H     0.55363   0.41765   0.08373   0.00000  Uiso   1.00
H410   H     0.36968   0.36248   0.45442   0.00000  Uiso   1.00
H411   H     0.41407   0.36045   0.40603   0.00000  Uiso   1.00
H412   H     0.46095   0.63516   0.00970   0.00000  Uiso   1.00
H413   H     0.44798   0.60623   0.05864   0.00000  Uiso   1.00
H414   H     0.38738   0.66176   0.03745   0.00000  Uiso   1.00
H415   H     0.37984   0.63557   0.08762   0.00000  Uiso   1.00
H416   H     0.44817   0.34496   0.10016   0.00000  Uiso   1.00
H417   H     0.40706   0.37664   0.09881   0.00000  Uiso   1.00
H418   H     0.45222   0.37231   0.05117   0.00000  Uiso   1.00
H419   H     0.48679   0.37836   0.34880   0.00000  Uiso   1.00
H420   H     0.65237   0.47011   0.28755   0.00000  Uiso   1.00
H421   H     0.49140   0.36764   0.39962   0.00000  Uiso   1.00
H422   H     0.56049   0.42122   0.33014   0.00000  Uiso   1.00
H423   H     0.56844   0.41174   0.38185   0.00000  Uiso   1.00
H424   H     0.56150   0.33483   0.36343   0.00000  Uiso   1.00
H425   H     0.60378   0.36268   0.32291   0.00000  Uiso   1.00
H426   H     0.55318   0.34331   0.31017   0.00000  Uiso   1.00
H427   H     0.34053   0.58905   0.24984   0.00000  Uiso   1.00
H428   H     0.65760   0.58488   0.19799   0.00000  Uiso   1.00
H429   H     0.41674   0.60273   0.20899   0.00000  Uiso   1.00
H430   H     0.40253   0.59580   0.15657   0.00000  Uiso   1.00
H431   H     0.52183   0.39690   0.44665   0.00000  Uiso   1.00
H432   H     0.36210   0.65698   0.17545   0.00000  Uiso   1.00
H433   H     0.41587   0.33815   0.18252   0.00000  Uiso   1.00
H434   H     0.37115   0.66334   0.23052   0.00000  Uiso   1.00
H435   H     0.49937   0.52744   0.07192   0.00000  Uiso   1.00
H436   H     0.44791   0.62041   0.38585   0.00000  Uiso   1.00
H437   H     0.45582   0.62658   0.44030   0.00000  Uiso   1.00
H438   H     0.37059   0.62499   0.41273   0.00000  Uiso   1.00
H439   H     0.37235   0.62413   0.46941   0.00000  Uiso   1.00
H440   H     0.42270   0.35933   0.46099   0.00000  Uiso   1.00
I441   I     0.57242   0.35139   0.19599   0.00000  Uiso   1.00
I442   I     0.42157   0.65737   0.30378   0.00000  Uiso   1.00
I443   I     0.56474   0.36390   0.49803   0.00000  Uiso   1.00
I444   I     0.41016   0.52021   0.08092   0.00000  Uiso   1.00
O445   O     0.50000   0.50000   0.25000   0.00000  Uiso   1.00
O446   O     0.48784   0.45970   0.15458   0.00000  Uiso   1.00
O447   O     0.46274   0.53724   0.34968   0.00000  Uiso   1.00
O448   O     0.54157   0.51092   0.14606   0.00000  Uiso   1.00
O449   O     0.50785   0.49213   0.34968   0.00000  Uiso   1.00
O450   O     0.42083   0.56959   0.42239   0.00000  Uiso   1.00
O451   O     0.41011   0.58691   0.01334   0.00000  Uiso   1.00
O452   O     0.48451   0.43026   0.39182   0.00000  Uiso   1.00
O453   O     0.35678   0.53664   0.20607   0.00000  Uiso   1.00
O454   O     0.51264   0.41352   0.28213   0.00000  Uiso   1.00
O455   O     0.47965   0.59418   0.27013   0.00000  Uiso   1.00
O456   O     0.40745   0.46625   0.23413   0.00000  Uiso   1.00
O457   O     0.60026   0.52605   0.21360   0.00000  Uiso   1.00
O458   O     0.40405   0.52211   0.28213   0.00000  Uiso   1.00
O459   O     0.58824   0.48559   0.27013   0.00000  Uiso   1.00
O460   O     0.47093   0.40277   0.23413   0.00000  Uiso   1.00
O461   O     0.53678   0.58953   0.21360   0.00000  Uiso   1.00
Zn462  Zn    0.52672   0.47327   0.28734   0.00000  Uiso   1.00
Zn463  Zn    0.46713   0.45791   0.21875   0.00000  Uiso   1.00
Zn464  Zn    0.54389   0.53109   0.20657   0.00000  Uiso   1.00
Zn465  Zn    0.46226   0.53773   0.28733   0.00000  Uiso   1.00
C466   C     0.71940   0.49261   0.26058   0.00000  Uiso   1.00
C467   C     0.84201   0.49728   0.05761   0.00000  Uiso   1.00
C468   C     0.87437   0.43611   0.06410   0.00000  Uiso   1.00
C469   C     0.94755   0.50791   0.24046   0.00000  Uiso   1.00
C470   C     0.80171   0.51809   0.42161   0.00000  Uiso   1.00
C471   C     0.99376   0.51274   0.23762   0.00000  Uiso   1.00
C472   C     0.67422   0.49057   0.26380   0.00000  Uiso   1.00
C473   C     0.84785   0.65622   0.23857   0.00000  Uiso   1.00
C474   C     0.81741   0.34554   0.26373   0.00000  Uiso   1.00
C475   C     0.82297   0.38943   0.26000   0.00000  Uiso   1.00
C476   C     0.84316   0.61127   0.24031   0.00000  Uiso   1.00
C477   C     0.77013   0.55757   0.49105   0.00000  Uiso   1.00
C478   C     0.85126   0.48240   0.12962   0.00000  Uiso   1.00
C479   C     0.81323   0.51557   0.37155   0.00000  Uiso   1.00
C480   C     0.87217   0.42135   0.02153   0.00000  Uiso   1.00
C481   C     0.85893   0.47359   0.08221   0.00000  Uiso   1.00
C482   C     0.77807   0.55105   0.44444   0.00000  Uiso   1.00
C483   C     0.76561   0.61336   0.42090   0.00000  Uiso   1.00
C484   C     0.72436   0.63461   0.43638   0.00000  Uiso   1.00
C485   C     0.73355   0.34884   0.43961   0.00000  Uiso   1.00
C486   C     0.76734   0.61888   0.03450   0.00000  Uiso   1.00
C487   C     0.73770   0.65075   0.05991   0.00000  Uiso   1.00
C488   C     0.78371   0.53030   0.01514   0.00000  Uiso   1.00
C489   C     0.76297   0.35512   0.07867   0.00000  Uiso   1.00
C490   C     0.83534   0.39216   0.37534   0.00000  Uiso   1.00
C491   C     0.88477   0.39849   0.35623   0.00000  Uiso   1.00
C492   C     0.90175   0.35720   0.33698   0.00000  Uiso   1.00
C493   C     0.68315   0.57921   0.21364   0.00000  Uiso   1.00
C494   C     0.72466   0.60631   0.19219   0.00000  Uiso   1.00
C495   C     0.71791   0.65236   0.19545   0.00000  Uiso   1.00
C496   C     0.81225   0.50137   0.49302   0.00000  Uiso   1.00
C497   C     0.81535   0.48999   0.44708   0.00000  Uiso   1.00
C498   C     0.83500   0.48102   0.01632   0.00000  Uiso   1.00
C499   C     0.85178   0.44353   0.49774   0.00000  Uiso   1.00
C500   C     0.84588   0.42743   0.45700   0.00000  Uiso   1.00
C501   C     0.82829   0.44942   0.43044   0.00000  Uiso   1.00
H502   H     0.88696   0.41765   0.08373   0.00000  Uiso   1.00
H503   H     0.70301   0.36248   0.45442   0.00000  Uiso   1.00
H504   H     0.74740   0.36045   0.40603   0.00000  Uiso   1.00
H505   H     0.79428   0.63516   0.00970   0.00000  Uiso   1.00
H506   H     0.78131   0.60623   0.05864   0.00000  Uiso   1.00
H507   H     0.72071   0.66176   0.03745   0.00000  Uiso   1.00
H508   H     0.71318   0.63557   0.08762   0.00000  Uiso   1.00
H509   H     0.78150   0.34496   0.10016   0.00000  Uiso   1.00
H510   H     0.74039   0.37664   0.09881   0.00000  Uiso   1.00
H511   H     0.78555   0.37231   0.05117   0.00000  Uiso   1.00
H512   H     0.82012   0.37836   0.34880   0.00000  Uiso   1.00
H513   H     0.98570   0.47011   0.28755   0.00000  Uiso   1.00
H514   H     0.82473   0.36764   0.39962   0.00000  Uiso   1.00
H515   H     0.89382   0.42122   0.33014   0.00000  Uiso   1.00
H516   H     0.90177   0.41174   0.38185   0.00000  Uiso   1.00
H517   H     0.89483   0.33483   0.36343   0.00000  Uiso   1.00
H518   H     0.93712   0.36268   0.32291   0.00000  Uiso   1.00
H519   H     0.88652   0.34331   0.31017   0.00000  Uiso   1.00
H520   H     0.67386   0.58905   0.24984   0.00000  Uiso   1.00
H521   H     0.99093   0.58488   0.19799   0.00000  Uiso   1.00
H522   H     0.75007   0.60273   0.20899   0.00000  Uiso   1.00
H523   H     0.73586   0.59580   0.15657   0.00000  Uiso   1.00
H524   H     0.85517   0.39690   0.44665   0.00000  Uiso   1.00
H525   H     0.69543   0.65698   0.17545   0.00000  Uiso   1.00
H526   H     0.74920   0.33815   0.18252   0.00000  Uiso   1.00
H527   H     0.70448   0.66334   0.23052   0.00000  Uiso   1.00
H528   H     0.83270   0.52744   0.07192   0.00000  Uiso   1.00
H529   H     0.78124   0.62041   0.38585   0.00000  Uiso   1.00
H530   H     0.78916   0.62658   0.44030   0.00000  Uiso   1.00
H531   H     0.70393   0.62499   0.41273   0.00000  Uiso   1.00
H532   H     0.70568   0.62413   0.46941   0.00000  Uiso   1.00
H533   H     0.75603   0.35933   0.46099   0.00000  Uiso   1.00
I534   I     0.90575   0.35139   0.19599   0.00000  Uiso   1.00
I535   I     0.75490   0.65737   0.30378   0.00000  Uiso   1.00
I536   I     0.89807   0.36390   0.49803   0.00000  Uiso   1.00
I537   I     0.74349   0.52021   0.08092   0.00000  Uiso   1.00
O538   O     0.83333   0.50000   0.25000   0.00000  Uiso   1.00
O539   O     0.82118   0.45970   0.15458   0.00000  Uiso   1.00
O540   O     0.79607   0.53724   0.34968   0.00000  Uiso   1.00
O541   O     0.87491   0.51092   0.14606   0.00000  Uiso   1.00
O542   O     0.84118   0.49213   0.34968   0.00000  Uiso   1.00
O543   O     0.75417   0.56959   0.42239   0.00000  Uiso   1.00
O544   O     0.74344   0.58691   0.01334   0.00000  Uiso   1.00
O545   O     0.81785   0.43026   0.39182   0.00000  Uiso   1.00
O546   O     0.69011   0.53664   0.20607   0.00000  Uiso   1.00
O547   O     0.84597   0.41352   0.28213   0.00000  Uiso   1.00
O548   O     0.81298   0.59418   0.27013   0.00000  Uiso   1.00
O549   O     0.74078   0.46625   0.23413   0.00000  Uiso   1.00
O550   O     0.93360   0.52605   0.21360   0.00000  Uiso   1.00
O551   O     0.73738   0.52211   0.28213   0.00000  Uiso   1.00
O552   O     0.92158   0.48559   0.27013   0.00000  Uiso   1.00
O553   O     0.80426   0.40277   0.23413   0.00000  Uiso   1.00
O554   O     0.87012   0.58953   0.21360   0.00000  Uiso   1.00
Zn555  Zn    0.86005   0.47327   0.28734   0.00000  Uiso   1.00
Zn556  Zn    0.80046   0.45791   0.21875   0.00000  Uiso   1.00
Zn557  Zn    0.87723   0.53109   0.20657   0.00000  Uiso   1.00
Zn558  Zn    0.79560   0.53773   0.28733   0.00000  Uiso   1.00
C559   C     0.05273   0.82594   0.26058   0.00000  Uiso   1.00
C560   C     0.17534   0.83062   0.05761   0.00000  Uiso   1.00
C561   C     0.20770   0.76944   0.06410   0.00000  Uiso   1.00
C562   C     0.28089   0.84124   0.24046   0.00000  Uiso   1.00
C563   C     0.13504   0.85142   0.42161   0.00000  Uiso   1.00
C564   C     0.32709   0.84607   0.23762   0.00000  Uiso   1.00
C565   C     0.00755   0.82391   0.26380   0.00000  Uiso   1.00
C566   C     0.18118   0.98955   0.23857   0.00000  Uiso   1.00
C567   C     0.15074   0.67887   0.26373   0.00000  Uiso   1.00
C568   C     0.15630   0.72276   0.26000   0.00000  Uiso   1.00
C569   C     0.17650   0.94461   0.24031   0.00000  Uiso   1.00
C570   C     0.10347   0.89090   0.49105   0.00000  Uiso   1.00
C571   C     0.18459   0.81573   0.12962   0.00000  Uiso   1.00
C572   C     0.14656   0.84890   0.37155   0.00000  Uiso   1.00
C573   C     0.20550   0.75469   0.02153   0.00000  Uiso   1.00
C574   C     0.19226   0.80692   0.08221   0.00000  Uiso   1.00
C575   C     0.11140   0.88438   0.44444   0.00000  Uiso   1.00
C576   C     0.09895   0.94669   0.42090   0.00000  Uiso   1.00
C577   C     0.05769   0.96794   0.43638   0.00000  Uiso   1.00
C578   C     0.06688   0.68217   0.43961   0.00000  Uiso   1.00
C579   C     0.10067   0.95221   0.03450   0.00000  Uiso   1.00
C580   C     0.07103   0.98408   0.05991   0.00000  Uiso   1.00
C581   C     0.11704   0.86363   0.01514   0.00000  Uiso   1.00
C582   C     0.09631   0.68845   0.07867   0.00000  Uiso   1.00
C583   C     0.16868   0.72549   0.37534   0.00000  Uiso   1.00
C584   C     0.21810   0.73183   0.35623   0.00000  Uiso   1.00
C585   C     0.23508   0.69053   0.33698   0.00000  Uiso   1.00
C586   C     0.01648   0.91254   0.21364   0.00000  Uiso   1.00
C587   C     0.05799   0.93964   0.19219   0.00000  Uiso   1.00
C588   C     0.05124   0.98570   0.19545   0.00000  Uiso   1.00
C589   C     0.14559   0.83470   0.49302   0.00000  Uiso   1.00
C590   C     0.14868   0.82332   0.44708   0.00000  Uiso   1.00
C591   C     0.16833   0.81436   0.01632   0.00000  Uiso   1.00
C592   C     0.18512   0.77686   0.49774   0.00000  Uiso   1.00
C593   C     0.17921   0.76076   0.45700   0.00000  Uiso   1.00
C594   C     0.16163   0.78276   0.43044   0.00000  Uiso   1.00
H595   H     0.22030   0.75099   0.08373   0.00000  Uiso   1.00
H596   H     0.03634   0.69581   0.45442   0.00000  Uiso   1.00
H597   H     0.08074   0.69379   0.40603   0.00000  Uiso   1.00
H598   H     0.12761   0.96849   0.00970   0.00000  Uiso   1.00
H599   H     0.11465   0.93956   0.05864   0.00000  Uiso   1.00
H600   H     0.05404   0.99509   0.03745   0.00000  Uiso   1.00
H601   H     0.04651   0.96891   0.08762   0.00000  Uiso   1.00
H602   H     0.11483   0.67829   0.10016   0.00000  Uiso   1.00
H603   H     0.07372   0.70997   0.09881   0.00000  Uiso   1.00
H604   H     0.11889   0.70564   0.05117   0.00000  Uiso   1.00
H605   H     0.15346   0.71170   0.34880   0.00000  Uiso   1.00
H606   H     0.31903   0.80344   0.28755   0.00000  Uiso   1.00
H607   H     0.15806   0.70098   0.39962   0.00000  Uiso   1.00
H608   H     0.22716   0.75455   0.33014   0.00000  Uiso   1.00
H609   H     0.23511   0.74507   0.38185   0.00000  Uiso   1.00
H610   H     0.22817   0.66816   0.36343   0.00000  Uiso   1.00
H611   H     0.27045   0.69601   0.32291   0.00000  Uiso   1.00
H612   H     0.21985   0.67665   0.31017   0.00000  Uiso   1.00
H613   H     0.00719   0.92238   0.24984   0.00000  Uiso   1.00
H614   H     0.32427   0.91821   0.19799   0.00000  Uiso   1.00
H615   H     0.08341   0.93607   0.20899   0.00000  Uiso   1.00
H616   H     0.06919   0.92913   0.15657   0.00000  Uiso   1.00
H617   H     0.18850   0.73023   0.44665   0.00000  Uiso   1.00
H618   H     0.02877   0.99031   0.17545   0.00000  Uiso   1.00
H619   H     0.08254   0.67149   0.18252   0.00000  Uiso   1.00
H620   H     0.03781   0.99667   0.23052   0.00000  Uiso   1.00
H621   H     0.16603   0.86077   0.07192   0.00000  Uiso   1.00
H622   H     0.11457   0.95374   0.38585   0.00000  Uiso   1.00
H623   H     0.12249   0.95991   0.44030   0.00000  Uiso   1.00
H624   H     0.03726   0.95832   0.41273   0.00000  Uiso   1.00
H625   H     0.03902   0.95747   0.46941   0.00000  Uiso   1.00
H626   H     0.08937   0.69267   0.46099   0.00000  Uiso   1.00
I627   I     0.23909   0.68472   0.19599   0.00000  Uiso   1.00
I628   I     0.08824   0.99070   0.30378   0.00000  Uiso   1.00
I629   I     0.23141   0.69723   0.49803   0.00000  Uiso   1.00
I630   I     0.07682   0.85355   0.08092   0.00000  Uiso   1.00
O631   O     0.16667   0.83333   0.25000   0.00000  Uiso   1.00
O632   O     0.15451   0.79304   0.15458   0.00000  Uiso   1.00
O633   O     0.12940   0.87058   0.34968   0.00000  Uiso   1.00
O634   O     0.20824   0.84425   0.14606   0.00000  Uiso   1.00
O635   O     0.17451   0.82546   0.34968   0.00000  Uiso   1.00
O636   O     0.08750   0.90292   0.42239   0.00000  Uiso   1.00
O637   O     0.07677   0.92025   0.01334   0.00000  Uiso   1.00
O638   O     0.15118   0.76359   0.39182   0.00000  Uiso   1.00
O639   O     0.02345   0.86997   0.20607   0.00000  Uiso   1.00
O640   O     0.17930   0.74686   0.28213   0.00000  Uiso   1.00
O641   O     0.14632   0.92751   0.27013   0.00000  Uiso   1.00
O642   O     0.07412   0.79958   0.23413   0.00000  Uiso   1.00
O643   O     0.26693   0.85939   0.21360   0.00000  Uiso   1.00
O644   O     0.07071   0.85544   0.28213   0.00000  Uiso   1.00
O645   O     0.25491   0.81892   0.27013   0.00000  Uiso   1.00
O646   O     0.13760   0.73610   0.23413   0.00000  Uiso   1.00
O647   O     0.20345   0.92286   0.21360   0.00000  Uiso   1.00
Zn648  Zn    0.19338   0.80661   0.28734   0.00000  Uiso   1.00
Zn649  Zn    0.13379   0.79124   0.21875   0.00000  Uiso   1.00
Zn650  Zn    0.21056   0.86442   0.20657   0.00000  Uiso   1.00
Zn651  Zn    0.12893   0.87106   0.28733   0.00000  Uiso   1.00
C652   C     0.38606   0.82594   0.26058   0.00000  Uiso   1.00
C653   C     0.50867   0.83062   0.05761   0.00000  Uiso   1.00
C654   C     0.54104   0.76944   0.06410   0.00000  Uiso   1.00
C655   C     0.61422   0.84124   0.24046   0.00000  Uiso   1.00
C656   C     0.46837   0.85142   0.42161   0.00000  Uiso   1.00
C657   C     0.66042   0.84607   0.23762   0.00000  Uiso   1.00
C658   C     0.34089   0.82391   0.26380   0.00000  Uiso   1.00
C659   C     0.51452   0.98955   0.23857   0.00000  Uiso   1.00
C660   C     0.48407   0.67887   0.26373   0.00000  Uiso   1.00
C661   C     0.48963   0.72276   0.26000   0.00000  Uiso   1.00
C662   C     0.50983   0.94461   0.24031   0.00000  Uiso   1.00
C663   C     0.43680   0.89090   0.49105   0.00000  Uiso   1.00
C664   C     0.51793   0.81573   0.12962   0.00000  Uiso   1.00
C665   C     0.47989   0.84890   0.37155   0.00000  Uiso   1.00
C666   C     0.53883   0.75469   0.02153   0.00000  Uiso   1.00
C667   C     0.52560   0.80692   0.08221   0.00000  Uiso   1.00
C668   C     0.44474   0.88438   0.44444   0.00000  Uiso   1.00
C669   C     0.43228   0.94669   0.42090   0.00000  Uiso   1.00
C670   C     0.39103   0.96794   0.43638   0.00000  Uiso   1.00
C671   C     0.40022   0.68217   0.43961   0.00000  Uiso   1.00
C672   C     0.43401   0.95221   0.03450   0.00000  Uiso   1.00
C673   C     0.40436   0.98408   0.05991   0.00000  Uiso   1.00
C674   C     0.45037   0.86363   0.01514   0.00000  Uiso   1.00
C675   C     0.42964   0.68845   0.07867   0.00000  Uiso   1.00
C676   C     0.50201   0.72549   0.37534   0.00000  Uiso   1.00
C677   C     0.55144   0.73183   0.35623   0.00000  Uiso   1.00
C678   C     0.56841   0.69053   0.33698   0.00000  Uiso   1.00
C679   C     0.34981   0.91254   0.21364   0.00000  Uiso   1.00
C680   C     0.39133   0.93964   0.19219   0.00000  Uiso   1.00
C681   C     0.38458   0.98570   0.19545   0.00000  Uiso   1.00
C682   C     0.47892   0.83470   0.49302   0.00000  Uiso   1.00
C683   C     0.48201   0.82332   0.44708   0.00000  Uiso   1.00
C684   C     0.50167   0.81436   0.01632   0.00000  Uiso   1.00
C685   C     0.51845   0.77686   0.49774   0.00000  Uiso   1.00
C686   C     0.51255   0.76076   0.45700   0.00000  Uiso   1.00
C687   C     0.49496   0.78276   0.43044   0.00000  Uiso   1.00
H688   H     0.55363   0.75099   0.08373   0.00000  Uiso   1.00
H689   H     0.36968   0.69581   0.45442   0.00000  Uiso   1.00
H690   H     0.41407   0.69379   0.40603   0.00000  Uiso   1.00
H691   H     0.46095   0.96849   0.00970   0.00000  Uiso   1.00
H692   H     0.44798   0.93956   0.05864   0.00000  Uiso   1.00
H693   H     0.38738   0.99509   0.03745   0.00000  Uiso   1.00
H694   H     0.37984   0.96891   0.08762   0.00000  Uiso   1.00
H695   H     0.44817   0.67829   0.10016   0.00000  Uiso   1.00
H696   H     0.40706   0.70997   0.09881   0.00000  Uiso   1.00
H697   H     0.45222   0.70564   0.05117   0.00000  Uiso   1.00
H698   H     0.48679   0.71170   0.34880   0.00000  Uiso   1.00
H699   H     0.65237   0.80344   0.28755   0.00000  Uiso   1.00
H700   H     0.49140   0.70098   0.39962   0.00000  Uiso   1.00
H701   H     0.56049   0.75455   0.33014   0.00000  Uiso   1.00
H702   H     0.56844   0.74507   0.38185   0.00000  Uiso   1.00
H703   H     0.56150   0.66816   0.36343   0.00000  Uiso   1.00
H704   H     0.60378   0.69601   0.32291   0.00000  Uiso   1.00
H705   H     0.55318   0.67665   0.31017   0.00000  Uiso   1.00
H706   H     0.34053   0.92238   0.24984   0.00000  Uiso   1.00
H707   H     0.65760   0.91821   0.19799   0.00000  Uiso   1.00
H708   H     0.41674   0.93607   0.20899   0.00000  Uiso   1.00
H709   H     0.40253   0.92913   0.15657   0.00000  Uiso   1.00
H710   H     0.52183   0.73023   0.44665   0.00000  Uiso   1.00
H711   H     0.36210   0.99031   0.17545   0.00000  Uiso   1.00
H712   H     0.41587   0.67149   0.18252   0.00000  Uiso   1.00
H713   H     0.37115   0.99667   0.23052   0.00000  Uiso   1.00
H714   H     0.49937   0.86077   0.07192   0.00000  Uiso   1.00
H715   H     0.44791   0.95374   0.38585   0.00000  Uiso   1.00
H716   H     0.45582   0.95991   0.44030   0.00000  Uiso   1.00
H717   H     0.37059   0.95832   0.41273   0.00000  Uiso   1.00
H718   H     0.37235   0.95747   0.46941   0.00000  Uiso   1.00
H719   H     0.42270   0.69267   0.46099   0.00000  Uiso   1.00
I720   I     0.57242   0.68472   0.19599   0.00000  Uiso   1.00
I721   I     0.42157   0.99070   0.30378   0.00000  Uiso   1.00
I722   I     0.56474   0.69723   0.49803   0.00000  Uiso   1.00
I723   I     0.41016   0.85355   0.08092   0.00000  Uiso   1.00
O724   O     0.50000   0.83333   0.25000   0.00000  Uiso   1.00
O725   O     0.48784   0.79304   0.15458   0.00000  Uiso   1.00
O726   O     0.46274   0.87058   0.34968   0.00000  Uiso   1.00
O727   O     0.54157   0.84425   0.14606   0.00000  Uiso   1.00
O728   O     0.50785   0.82546   0.34968   0.00000  Uiso   1.00
O729   O     0.42083   0.90292   0.42239   0.00000  Uiso   1.00
O730   O     0.41011   0.92025   0.01334   0.00000  Uiso   1.00
O731   O     0.48451   0.76359   0.39182   0.00000  Uiso   1.00
O732   O     0.35678   0.86997   0.20607   0.00000  Uiso   1.00
O733   O     0.51264   0.74686   0.28213   0.00000  Uiso   1.00
O734   O     0.47965   0.92751   0.27013   0.00000  Uiso   1.00
O735   O     0.40745   0.79958   0.23413   0.00000  Uiso   1.00
O736   O     0.60026   0.85939   0.21360   0.00000  Uiso   1.00
O737   O     0.40405   0.85544   0.28213   0.00000  Uiso   1.00
O738   O     0.58824   0.81892   0.27013   0.00000  Uiso   1.00
O739   O     0.47093   0.73610   0.23413   0.00000  Uiso   1.00
O740   O     0.53678   0.92286   0.21360   0.00000  Uiso   1.00
Zn741  Zn    0.52672   0.80661   0.28734   0.00000  Uiso   1.00
Zn742  Zn    0.46713   0.79124   0.21875   0.00000  Uiso   1.00
Zn743  Zn    0.54389   0.86442   0.20657   0.00000  Uiso   1.00
Zn744  Zn    0.46226   0.87106   0.28733   0.00000  Uiso   1.00
C745   C     0.71940   0.82594   0.26058   0.00000  Uiso   1.00
C746   C     0.84201   0.83062   0.05761   0.00000  Uiso   1.00
C747   C     0.87437   0.76944   0.06410   0.00000  Uiso   1.00
C748   C     0.94755   0.84124   0.24046   0.00000  Uiso   1.00
C749   C     0.80171   0.85142   0.42161   0.00000  Uiso   1.00
C750   C     0.99376   0.84607   0.23762   0.00000  Uiso   1.00
C751   C     0.67422   0.82391   0.26380   0.00000  Uiso   1.00
C752   C     0.84785   0.98955   0.23857   0.00000  Uiso   1.00
C753   C     0.81741   0.67887   0.26373   0.00000  Uiso   1.00
C754   C     0.82297   0.72276   0.26000   0.00000  Uiso   1.00
C755   C     0.84316   0.94461   0.24031   0.00000  Uiso   1.00
C756   C     0.77013   0.89090   0.49105   0.00000  Uiso   1.00
C757   C     0.85126   0.81573   0.12962   0.00000  Uiso   1.00
C758   C     0.81323   0.84890   0.37155   0.00000  Uiso   1.00
C759   C     0.87217   0.75469   0.02153   0.00000  Uiso   1.00
C760   C     0.85893   0.80692   0.08221   0.00000  Uiso   1.00
C761   C     0.77807   0.88438   0.44444   0.00000  Uiso   1.00
C762   C     0.76561   0.94669   0.42090   0.00000  Uiso   1.00
C763   C     0.72436   0.96794   0.43638   0.00000  Uiso   1.00
C764   C     0.73355   0.68217   0.43961   0.00000  Uiso   1.00
C765   C     0.76734   0.95221   0.03450   0.00000  Uiso   1.00
C766   C     0.73770   0.98408   0.05991   0.00000  Uiso   1.00
C767   C     0.78371   0.86363   0.01514   0.00000  Uiso   1.00
C768   C     0.76297   0.68845   0.07867   0.00000  Uiso   1.00
C769   C     0.83534   0.72549   0.37534   0.00000  Uiso   1.00
C770   C     0.88477   0.73183   0.35623   0.00000  Uiso   1.00
C771   C     0.90175   0.69053   0.33698   0.00000  Uiso   1.00
C772   C     0.68315   0.91254   0.21364   0.00000  Uiso   1.00
C773   C     0.72466   0.93964   0.19219   0.00000  Uiso   1.00
C774   C     0.71791   0.98570   0.19545   0.00000  Uiso   1.00
C775   C     0.81225   0.83470   0.49302   0.00000  Uiso   1.00
C776   C     0.81535   0.82332   0.44708   0.00000  Uiso   1.00
C777   C     0.83500   0.81436   0.01632   0.00000  Uiso   1.00
C778   C     0.85178   0.77686   0.49774   0.00000  Uiso   1.00
C779   C     0.84588   0.76076   0.45700   0.00000  Uiso   1.00
C780   C     0.82829   0.78276   0.43044   0.00000  Uiso   1.00
H781   H     0.88696   0.75099   0.08373   0.00000  Uiso   1.00
H782   H     0.70301   0.69581   0.45442   0.00000  Uiso   1.00
H783   H     0.74740   0.69379   0.40603   0.00000  Uiso   1.00
H784   H     0.79428   0.96849   0.00970   0.00000  Uiso   1.00
H785   H     0.78131   0.93956   0.05864   0.00000  Uiso   1.00
H786   H     0.72071   0.99509   0.03745   0.00000  Uiso   1.00
H787   H     0.71318   0.96891   0.08762   0.00000  Uiso   1.00
H788   H     0.78150   0.67829   0.10016   0.00000  Uiso   1.00
H789   H     0.74039   0.70997   0.09881   0.00000  Uiso   1.00
H790   H     0.78555   0.70564   0.05117   0.00000  Uiso   1.00
H791   H     0.82012   0.71170   0.34880   0.00000  Uiso   1.00
H792   H     0.98570   0.80344   0.28755   0.00000  Uiso   1.00
H793   H     0.82473   0.70098   0.39962   0.00000  Uiso   1.00
H794   H     0.89382   0.75455   0.33014   0.00000  Uiso   1.00
H795   H     0.90177   0.74507   0.38185   0.00000  Uiso   1.00
H796   H     0.89483   0.66816   0.36343   0.00000  Uiso   1.00
H797   H     0.93712   0.69601   0.32291   0.00000  Uiso   1.00
H798   H     0.88652   0.67665   0.31017   0.00000  Uiso   1.00
H799   H     0.67386   0.92238   0.24984   0.00000  Uiso   1.00
H800   H     0.99093   0.91821   0.19799   0.00000  Uiso   1.00
H801   H     0.75007   0.93607   0.20899   0.00000  Uiso   1.00
H802   H     0.73586   0.92913   0.15657   0.00000  Uiso   1.00
H803   H     0.85517   0.73023   0.44665   0.00000  Uiso   1.00
H804   H     0.69543   0.99031   0.17545   0.00000  Uiso   1.00
H805   H     0.74920   0.67149   0.18252   0.00000  Uiso   1.00
H806   H     0.70448   0.99667   0.23052   0.00000  Uiso   1.00
H807   H     0.83270   0.86077   0.07192   0.00000  Uiso   1.00
H808   H     0.78124   0.95374   0.38585   0.00000  Uiso   1.00
H809   H     0.78916   0.95991   0.44030   0.00000  Uiso   1.00
H810   H     0.70393   0.95832   0.41273   0.00000  Uiso   1.00
H811   H     0.70568   0.95747   0.46941   0.00000  Uiso   1.00
H812   H     0.75603   0.69267   0.46099   0.00000  Uiso   1.00
I813   I     0.90575   0.68472   0.19599   0.00000  Uiso   1.00
I814   I     0.75490   0.99070   0.30378   0.00000  Uiso   1.00
I815   I     0.89807   0.69723   0.49803   0.00000  Uiso   1.00
I816   I     0.74349   0.85355   0.08092   0.00000  Uiso   1.00
O817   O     0.83333   0.83333   0.25000   0.00000  Uiso   1.00
O818   O     0.82118   0.79304   0.15458   0.00000  Uiso   1.00
O819   O     0.79607   0.87058   0.34968   0.00000  Uiso   1.00
O820   O     0.87491   0.84425   0.14606   0.00000  Uiso   1.00
O821   O     0.84118   0.82546   0.34968   0.00000  Uiso   1.00
O822   O     0.75417   0.90292   0.42239   0.00000  Uiso   1.00
O823   O     0.74344   0.92025   0.01334   0.00000  Uiso   1.00
O824   O     0.81785   0.76359   0.39182   0.00000  Uiso   1.00
O825   O     0.69011   0.86997   0.20607   0.00000  Uiso   1.00
O826   O     0.84597   0.74686   0.28213   0.00000  Uiso   1.00
O827   O     0.81298   0.92751   0.27013   0.00000  Uiso   1.00
O828   O     0.74078   0.79958   0.23413   0.00000  Uiso   1.00
O829   O     0.93360   0.85939   0.21360   0.00000  Uiso   1.00
O830   O     0.73738   0.85544   0.28213   0.00000  Uiso   1.00
O831   O     0.92158   0.81892   0.27013   0.00000  Uiso   1.00
O832   O     0.80426   0.73610   0.23413   0.00000  Uiso   1.00
O833   O     0.87012   0.92286   0.21360   0.00000  Uiso   1.00
Zn834  Zn    0.86005   0.80661   0.28734   0.00000  Uiso   1.00
Zn835  Zn    0.80046   0.79124   0.21875   0.00000  Uiso   1.00
Zn836  Zn    0.87723   0.86442   0.20657   0.00000  Uiso   1.00
Zn837  Zn    0.79560   0.87106   0.28733   0.00000  Uiso   1.00
C838   C     0.05273   0.15928   0.76058   0.00000  Uiso   1.00
C839   C     0.17534   0.16395   0.55761   0.00000  Uiso   1.00
C840   C     0.20770   0.10277   0.56410   0.00000  Uiso   1.00
C841   C     0.28089   0.17457   0.74046   0.00000  Uiso   1.00
C842   C     0.13504   0.18476   0.92161   0.00000  Uiso   1.00
C843   C     0.32709   0.17941   0.73762   0.00000  Uiso   1.00
C844   C     0.00755   0.15724   0.76380   0.00000  Uiso   1.00
C845   C     0.18118   0.32289   0.73857   0.00000  Uiso   1.00
C846   C     0.15074   0.01220   0.76373   0.00000  Uiso   1.00
C847   C     0.15630   0.05610   0.76000   0.00000  Uiso   1.00
C848   C     0.17650   0.27794   0.74031   0.00000  Uiso   1.00
C849   C     0.10347   0.22424   0.99105   0.00000  Uiso   1.00
C850   C     0.18459   0.14906   0.62962   0.00000  Uiso   1.00
C851   C     0.14656   0.18224   0.87155   0.00000  Uiso   1.00
C852   C     0.20550   0.08802   0.52153   0.00000  Uiso   1.00
C853   C     0.19226   0.14025   0.58221   0.00000  Uiso   1.00
C854   C     0.11140   0.21771   0.94444   0.00000  Uiso   1.00
C855   C     0.09895   0.28003   0.92090   0.00000  Uiso   1.00
C856   C     0.05769   0.30127   0.93638   0.00000  Uiso   1.00
C857   C     0.06688   0.01551   0.93961   0.00000  Uiso   1.00
C858   C     0.10067   0.28554   0.53450   0.00000  Uiso   1.00
C859   C     0.07103   0.31742   0.55991   0.00000  Uiso   1.00
C860   C     0.11704   0.19697   0.51514   0.00000  Uiso   1.00
C861   C     0.09631   0.02179   0.57867   0.00000  Uiso   1.00
C862   C     0.16868   0.05882   0.87534   0.00000  Uiso   1.00
C863   C     0.21810   0.06516   0.85623   0.00000  Uiso   1.00
C864   C     0.23508   0.02387   0.83698   0.00000  Uiso   1.00
C865   C     0.01648   0.24587   0.71364   0.00000  Uiso   1.00
C866   C     0.05799   0.27298   0.69219   0.00000  Uiso   1.00
C867   C     0.05124   0.31903   0.69545   0.00000  Uiso   1.00
C868   C     0.14559   0.16804   0.99302   0.00000  Uiso   1.00
C869   C     0.14868   0.15666   0.94708   0.00000  Uiso   1.00
C870   C     0.16833   0.14769   0.51632   0.00000  Uiso   1.00
C871   C     0.18512   0.11020   0.99774   0.00000  Uiso   1.00
C872   C     0.17921   0.09410   0.95700   0.00000  Uiso   1.00
C873   C     0.16163   0.11609   0.93044   0.00000  Uiso   1.00
H874   H     0.22030   0.08432   0.58373   0.00000  Uiso   1.00
H875   H     0.03634   0.02915   0.95442   0.00000  Uiso   1.00
H876   H     0.08074   0.02712   0.90603   0.00000  Uiso   1.00
H877   H     0.12761   0.30182   0.50970   0.00000  Uiso   1.00
H878   H     0.11465   0.27289   0.55864   0.00000  Uiso   1.00
H879   H     0.05404   0.32843   0.53745   0.00000  Uiso   1.00
H880   H     0.04651   0.30224   0.58762   0.00000  Uiso   1.00
H881   H     0.11483   0.01163   0.60016   0.00000  Uiso   1.00
H882   H     0.07372   0.04330   0.59881   0.00000  Uiso   1.00
H883   H     0.11889   0.03898   0.55117   0.00000  Uiso   1.00
H884   H     0.15346   0.04503   0.84880   0.00000  Uiso   1.00
H885   H     0.31903   0.13678   0.78755   0.00000  Uiso   1.00
H886   H     0.15806   0.03431   0.89962   0.00000  Uiso   1.00
H887   H     0.22716   0.08789   0.83014   0.00000  Uiso   1.00
H888   H     0.23511   0.07841   0.88185   0.00000  Uiso   1.00
H889   H     0.22817   0.00150   0.86343   0.00000  Uiso   1.00
H890   H     0.27045   0.02934   0.82291   0.00000  Uiso   1.00
H891   H     0.21985   0.00998   0.81017   0.00000  Uiso   1.00
H892   H     0.00719   0.25572   0.74984   0.00000  Uiso   1.00
H893   H     0.32427   0.25154   0.69799   0.00000  Uiso   1.00
H894   H     0.08341   0.26940   0.70899   0.00000  Uiso   1.00
H895   H     0.06919   0.26247   0.65657   0.00000  Uiso   1.00
H896   H     0.18850   0.06357   0.94665   0.00000  Uiso   1.00
H897   H     0.02877   0.32365   0.67545   0.00000  Uiso   1.00
H898   H     0.08254   0.00482   0.68252   0.00000  Uiso   1.00
H899   H     0.03781   0.33000   0.73052   0.00000  Uiso   1.00
H900   H     0.16603   0.19410   0.57192   0.00000  Uiso   1.00
H901   H     0.11457   0.28707   0.88585   0.00000  Uiso   1.00
H902   H     0.12249   0.29324   0.94030   0.00000  Uiso   1.00
H903   H     0.03726   0.29165   0.91273   0.00000  Uiso   1.00
H904   H     0.03902   0.29080   0.96941   0.00000  Uiso   1.00
H905   H     0.08937   0.02600   0.96099   0.00000  Uiso   1.00
I906   I     0.23909   0.01805   0.69599   0.00000  Uiso   1.00
I907   I     0.08824   0.32404   0.80378   0.00000  Uiso   1.00
I908   I     0.23141   0.03056   0.99803   0.00000  Uiso   1.00
I909   I     0.07682   0.18688   0.58092   0.00000  Uiso   1.00
O910   O     0.16667   0.16667   0.75000   0.00000  Uiso   1.00
O911   O     0.15451   0.12637   0.65458   0.00000  Uiso   1.00
O912   O     0.12940   0.20391   0.84968   0.00000  Uiso   1.00
O913   O     0.20824   0.17759   0.64606   0.00000  Uiso   1.00
O914   O     0.17451   0.15880   0.84968   0.00000  Uiso   1.00
O915   O     0.08750   0.23626   0.92239   0.00000  Uiso   1.00
O916   O     0.07677   0.25358   0.51334   0.00000  Uiso   1.00
O917   O     0.15118   0.09692   0.89182   0.00000  Uiso   1.00
O918   O     0.02345   0.20330   0.70607   0.00000  Uiso   1.00
O919   O     0.17930   0.08019   0.78213   0.00000  Uiso   1.00
O920   O     0.14632   0.26085   0.77013   0.00000  Uiso   1.00
O921   O     0.07412   0.13291   0.73413   0.00000  Uiso   1.00
O922   O     0.26693   0.19272   0.71360   0.00000  Uiso   1.00
O923   O     0.07071   0.18878   0.78213   0.00000  Uiso   1.00
O924   O     0.25491   0.15226   0.77013   0.00000  Uiso   1.00
O925   O     0.13760   0.06944   0.73413   0.00000  Uiso   1.00
O926   O     0.20345   0.25620   0.71360   0.00000  Uiso   1.00
Zn927  Zn    0.19338   0.13994   0.78734   0.00000  Uiso   1.00
Zn928  Zn    0.13379   0.12458   0.71875   0.00000  Uiso   1.00
Zn929  Zn    0.21056   0.19775   0.70657   0.00000  Uiso   1.00
Zn930  Zn    0.12893   0.20439   0.78733   0.00000  Uiso   1.00
C931   C     0.38606   0.15928   0.76058   0.00000  Uiso   1.00
C932   C     0.50867   0.16395   0.55761   0.00000  Uiso   1.00
C933   C     0.54104   0.10277   0.56410   0.00000  Uiso   1.00
C934   C     0.61422   0.17457   0.74046   0.00000  Uiso   1.00
C935   C     0.46837   0.18476   0.92161   0.00000  Uiso   1.00
C936   C     0.66042   0.17941   0.73762   0.00000  Uiso   1.00
C937   C     0.34089   0.15724   0.76380   0.00000  Uiso   1.00
C938   C     0.51452   0.32289   0.73857   0.00000  Uiso   1.00
C939   C     0.48407   0.01220   0.76373   0.00000  Uiso   1.00
C940   C     0.48963   0.05610   0.76000   0.00000  Uiso   1.00
C941   C     0.50983   0.27794   0.74031   0.00000  Uiso   1.00
C942   C     0.43680   0.22424   0.99105   0.00000  Uiso   1.00
C943   C     0.51793   0.14906   0.62962   0.00000  Uiso   1.00
C944   C     0.47989   0.18224   0.87155   0.00000  Uiso   1.00
C945   C     0.53883   0.08802   0.52153   0.00000  Uiso   1.00
C946   C     0.52560   0.14025   0.58221   0.00000  Uiso   1.00
C947   C     0.44474   0.21771   0.94444   0.00000  Uiso   1.00
C948   C     0.43228   0.28003   0.92090   0.00000  Uiso   1.00
C949   C     0.39103   0.30127   0.93638   0.00000  Uiso   1.00
C950   C     0.40022   0.01551   0.93961   0.00000  Uiso   1.00
C951   C     0.43401   0.28554   0.53450   0.00000  Uiso   1.00
C952   C     0.40436   0.31742   0.55991   0.00000  Uiso   1.00
C953   C     0.45037   0.19697   0.51514   0.00000  Uiso   1.00
C954   C     0.42964   0.02179   0.57867   0.00000  Uiso   1.00
C955   C     0.50201   0.05882   0.87534   0.00000  Uiso   1.00
C956   C     0.55144   0.06516   0.85623   0.00000  Uiso   1.00
C957   C     0.56841   0.02387   0.83698   0.00000  Uiso   1.00
C958   C     0.34981   0.24587   0.71364   0.00000  Uiso   1.00
C959   C     0.39133   0.27298   0.69219   0.00000  Uiso   1.00
C960   C     0.38458   0.31903   0.69545   0.00000  Uiso   1.00
C961   C     0.47892   0.16804   0.99302   0.00000  Uiso   1.00
C962   C     0.48201   0.15666   0.94708   0.00000  Uiso   1.00
C963   C     0.50167   0.14769   0.51632   0.00000  Uiso   1.00
C964   C     0.51845   0.11020   0.99774   0.00000  Uiso   1.00
C965   C     0.51255   0.09410   0.95700   0.00000  Uiso   1.00
C966   C     0.49496   0.11609   0.93044   0.00000  Uiso   1.00
H967   H     0.55363   0.08432   0.58373   0.00000  Uiso   1.00
H968   H     0.36968   0.02915   0.95442   0.00000  Uiso   1.00
H969   H     0.41407   0.02712   0.90603   0.00000  Uiso   1.00
H970   H     0.46095   0.30182   0.50970   0.00000  Uiso   1.00
H971   H     0.44798   0.27289   0.55864   0.00000  Uiso   1.00
H972   H     0.38738   0.32843   0.53745   0.00000  Uiso   1.00
H973   H     0.37984   0.30224   0.58762   0.00000  Uiso   1.00
H974   H     0.44817   0.01163   0.60016   0.00000  Uiso   1.00
H975   H     0.40706   0.04330   0.59881   0.00000  Uiso   1.00
H976   H     0.45222   0.03898   0.55117   0.00000  Uiso   1.00
H977   H     0.48679   0.04503   0.84880   0.00000  Uiso   1.00
H978   H     0.65237   0.13678   0.78755   0.00000  Uiso   1.00
H979   H     0.49140   0.03431   0.89962   0.00000  Uiso   1.00
H980   H     0.56049   0.08789   0.83014   0.00000  Uiso   1.00
H981   H     0.56844   0.07841   0.88185   0.00000  Uiso   1.00
H982   H     0.56150   0.00150   0.86343   0.00000  Uiso   1.00
H983   H     0.60378   0.02934   0.82291   0.00000  Uiso   1.00
H984   H     0.55318   0.00998   0.81017   0.00000  Uiso   1.00
H985   H     0.34053   0.25572   0.74984   0.00000  Uiso   1.00
H986   H     0.65760   0.25154   0.69799   0.00000  Uiso   1.00
H987   H     0.41674   0.26940   0.70899   0.00000  Uiso   1.00
H988   H     0.40253   0.26247   0.65657   0.00000  Uiso   1.00
H989   H     0.52183   0.06357   0.94665   0.00000  Uiso   1.00
H990   H     0.36210   0.32365   0.67545   0.00000  Uiso   1.00
H991   H     0.41587   0.00482   0.68252   0.00000  Uiso   1.00
H992   H     0.37115   0.33000   0.73052   0.00000  Uiso   1.00
H993   H     0.49937   0.19410   0.57192   0.00000  Uiso   1.00
H994   H     0.44791   0.28707   0.88585   0.00000  Uiso   1.00
H995   H     0.45582   0.29324   0.94030   0.00000  Uiso   1.00
H996   H     0.37059   0.29165   0.91273   0.00000  Uiso   1.00
H997   H     0.37235   0.29080   0.96941   0.00000  Uiso   1.00
H998   H     0.42270   0.02600   0.96099   0.00000  Uiso   1.00
I999   I     0.57242   0.01805   0.69599   0.00000  Uiso   1.00
I1000  I     0.42157   0.32404   0.80378   0.00000  Uiso   1.00
I1001  I     0.56474   0.03056   0.99803   0.00000  Uiso   1.00
I1002  I     0.41016   0.18688   0.58092   0.00000  Uiso   1.00
O1003  O     0.50000   0.16667   0.75000   0.00000  Uiso   1.00
O1004  O     0.48784   0.12637   0.65458   0.00000  Uiso   1.00
O1005  O     0.46274   0.20391   0.84968   0.00000  Uiso   1.00
O1006  O     0.54157   0.17759   0.64606   0.00000  Uiso   1.00
O1007  O     0.50785   0.15880   0.84968   0.00000  Uiso   1.00
O1008  O     0.42083   0.23626   0.92239   0.00000  Uiso   1.00
O1009  O     0.41011   0.25358   0.51334   0.00000  Uiso   1.00
O1010  O     0.48451   0.09692   0.89182   0.00000  Uiso   1.00
O1011  O     0.35678   0.20330   0.70607   0.00000  Uiso   1.00
O1012  O     0.51264   0.08019   0.78213   0.00000  Uiso   1.00
O1013  O     0.47965   0.26085   0.77013   0.00000  Uiso   1.00
O1014  O     0.40745   0.13291   0.73413   0.00000  Uiso   1.00
O1015  O     0.60026   0.19272   0.71360   0.00000  Uiso   1.00
O1016  O     0.40405   0.18878   0.78213   0.00000  Uiso   1.00
O1017  O     0.58824   0.15226   0.77013   0.00000  Uiso   1.00
O1018  O     0.47093   0.06944   0.73413   0.00000  Uiso   1.00
O1019  O     0.53678   0.25620   0.71360   0.00000  Uiso   1.00
Zn1020 Zn    0.52672   0.13994   0.78734   0.00000  Uiso   1.00
Zn1021 Zn    0.46713   0.12458   0.71875   0.00000  Uiso   1.00
Zn1022 Zn    0.54389   0.19775   0.70657   0.00000  Uiso   1.00
Zn1023 Zn    0.46226   0.20439   0.78733   0.00000  Uiso   1.00
C1024  C     0.71940   0.15928   0.76058   0.00000  Uiso   1.00
C1025  C     0.84201   0.16395   0.55761   0.00000  Uiso   1.00
C1026  C     0.87437   0.10277   0.56410   0.00000  Uiso   1.00
C1027  C     0.94755   0.17457   0.74046   0.00000  Uiso   1.00
C1028  C     0.80171   0.18476   0.92161   0.00000  Uiso   1.00
C1029  C     0.99376   0.17941   0.73762   0.00000  Uiso   1.00
C1030  C     0.67422   0.15724   0.76380   0.00000  Uiso   1.00
C1031  C     0.84785   0.32289   0.73857   0.00000  Uiso   1.00
C1032  C     0.81741   0.01220   0.76373   0.00000  Uiso   1.00
C1033  C     0.82297   0.05610   0.76000   0.00000  Uiso   1.00
C1034  C     0.84316   0.27794   0.74031   0.00000  Uiso   1.00
C1035  C     0.77013   0.22424   0.99105   0.00000  Uiso   1.00
C1036  C     0.85126   0.14906   0.62962   0.00000  Uiso   1.00
C1037  C     0.81323   0.18224   0.87155   0.00000  Uiso   1.00
C1038  C     0.87217   0.08802   0.52153   0.00000  Uiso   1.00
C1039  C     0.85893   0.14025   0.58221   0.00000  Uiso   1.00
C1040  C     0.77807   0.21771   0.94444   0.00000  Uiso   1.00
C1041  C     0.76561   0.28003   0.92090   0.00000  Uiso   1.00
C1042  C     0.72436   0.30127   0.93638   0.00000  Uiso   1.00
C1043  C     0.73355   0.01551   0.93961   0.00000  Uiso   1.00
C1044  C     0.76734   0.28554   0.53450   0.00000  Uiso   1.00
C1045  C     0.73770   0.31742   0.55991   0.00000  Uiso   1.00
C1046  C     0.78371   0.19697   0.51514   0.00000  Uiso   1.00
C1047  C     0.76297   0.02179   0.57867   0.00000  Uiso   1.00
C1048  C     0.83534   0.05882   0.87534   0.00000  Uiso   1.00
C1049  C     0.88477   0.06516   0.85623   0.00000  Uiso   1.00
C1050  C     0.90175   0.02387   0.83698   0.00000  Uiso   1.00
C1051  C     0.68315   0.24587   0.71364   0.00000  Uiso   1.00
C1052  C     0.72466   0.27298   0.69219   0.00000  Uiso   1.00
C1053  C     0.71791   0.31903   0.69545   0.00000  Uiso   1.00
C1054  C     0.81225   0.16804   0.99302   0.00000  Uiso   1.00
C1055  C     0.81535   0.15666   0.94708   0.00000  Uiso   1.00
C1056  C     0.83500   0.14769   0.51632   0.00000  Uiso   1.00
C1057  C     0.85178   0.11020   0.99774   0.00000  Uiso   1.00
C1058  C     0.84588   0.09410   0.95700   0.00000  Uiso   1.00
C1059  C     0.82829   0.11609   0.93044   0.00000  Uiso   1.00
H1060  H     0.88696   0.08432   0.58373   0.00000  Uiso   1.00
H1061  H     0.70301   0.02915   0.95442   0.00000  Uiso   1.00
H1062  H     0.74740   0.02712   0.90603   0.00000  Uiso   1.00
H1063  H     0.79428   0.30182   0.50970   0.00000  Uiso   1.00
H1064  H     0.78131   0.27289   0.55864   0.00000  Uiso   1.00
H1065  H     0.72071   0.32843   0.53745   0.00000  Uiso   1.00
H1066  H     0.71318   0.30224   0.58762   0.00000  Uiso   1.00
H1067  H     0.78150   0.01163   0.60016   0.00000  Uiso   1.00
H1068  H     0.74039   0.04330   0.59881   0.00000  Uiso   1.00
H1069  H     0.78555   0.03898   0.55117   0.00000  Uiso   1.00
H1070  H     0.82012   0.04503   0.84880   0.00000  Uiso   1.00
H1071  H     0.98570   0.13678   0.78755   0.00000  Uiso   1.00
H1072  H     0.82473   0.03431   0.89962   0.00000  Uiso   1.00
H1073  H     0.89382   0.08789   0.83014   0.00000  Uiso   1.00
H1074  H     0.90177   0.07841   0.88185   0.00000  Uiso   1.00
H1075  H     0.89483   0.00150   0.86343   0.00000  Uiso   1.00
H1076  H     0.93712   0.02934   0.82291   0.00000  Uiso   1.00
H1077  H     0.88652   0.00998   0.81017   0.00000  Uiso   1.00
H1078  H     0.67386   0.25572   0.74984   0.00000  Uiso   1.00
H1079  H     0.99093   0.25154   0.69799   0.00000  Uiso   1.00
H1080  H     0.75007   0.26940   0.70899   0.00000  Uiso   1.00
H1081  H     0.73586   0.26247   0.65657   0.00000  Uiso   1.00
H1082  H     0.85517   0.06357   0.94665   0.00000  Uiso   1.00
H1083  H     0.69543   0.32365   0.67545   0.00000  Uiso   1.00
H1084  H     0.74920   0.00482   0.68252   0.00000  Uiso   1.00
H1085  H     0.70448   0.33000   0.73052   0.00000  Uiso   1.00
H1086  H     0.83270   0.19410   0.57192   0.00000  Uiso   1.00
H1087  H     0.78124   0.28707   0.88585   0.00000  Uiso   1.00
H1088  H     0.78916   0.29324   0.94030   0.00000  Uiso   1.00
H1089  H     0.70393   0.29165   0.91273   0.00000  Uiso   1.00
H1090  H     0.70568   0.29080   0.96941   0.00000  Uiso   1.00
H1091  H     0.75603   0.02600   0.96099   0.00000  Uiso   1.00
I1092  I     0.90575   0.01805   0.69599   0.00000  Uiso   1.00
I1093  I     0.75490   0.32404   0.80378   0.00000  Uiso   1.00
I1094  I     0.89807   0.03056   0.99803   0.00000  Uiso   1.00
I1095  I     0.74349   0.18688   0.58092   0.00000  Uiso   1.00
O1096  O     0.83333   0.16667   0.75000   0.00000  Uiso   1.00
O1097  O     0.82118   0.12637   0.65458   0.00000  Uiso   1.00
O1098  O     0.79607   0.20391   0.84968   0.00000  Uiso   1.00
O1099  O     0.87491   0.17759   0.64606   0.00000  Uiso   1.00
O1100  O     0.84118   0.15880   0.84968   0.00000  Uiso   1.00
O1101  O     0.75417   0.23626   0.92239   0.00000  Uiso   1.00
O1102  O     0.74344   0.25358   0.51334   0.00000  Uiso   1.00
O1103  O     0.81785   0.09692   0.89182   0.00000  Uiso   1.00
O1104  O     0.69011   0.20330   0.70607   0.00000  Uiso   1.00
O1105  O     0.84597   0.08019   0.78213   0.00000  Uiso   1.00
O1106  O     0.81298   0.26085   0.77013   0.00000  Uiso   1.00
O1107  O     0.74078   0.13291   0.73413   0.00000  Uiso   1.00
O1108  O     0.93360   0.19272   0.71360   0.00000  Uiso   1.00
O1109  O     0.73738   0.18878   0.78213   0.00000  Uiso   1.00
O1110  O     0.92158   0.15226   0.77013   0.00000  Uiso   1.00
O1111  O     0.80426   0.06944   0.73413   0.00000  Uiso   1.00
O1112  O     0.87012   0.25620   0.71360   0.00000  Uiso   1.00
Zn1113 Zn    0.86005   0.13994   0.78734   0.00000  Uiso   1.00
Zn1114 Zn    0.80046   0.12458   0.71875   0.00000  Uiso   1.00
Zn1115 Zn    0.87723   0.19775   0.70657   0.00000  Uiso   1.00
Zn1116 Zn    0.79560   0.20439   0.78733   0.00000  Uiso   1.00
C1117  C     0.05273   0.49261   0.76058   0.00000  Uiso   1.00
C1118  C     0.17534   0.49728   0.55761   0.00000  Uiso   1.00
C1119  C     0.20770   0.43611   0.56410   0.00000  Uiso   1.00
C1120  C     0.28089   0.50791   0.74046   0.00000  Uiso   1.00
C1121  C     0.13504   0.51809   0.92161   0.00000  Uiso   1.00
C1122  C     0.32709   0.51274   0.73762   0.00000  Uiso   1.00
C1123  C     0.00755   0.49057   0.76380   0.00000  Uiso   1.00
C1124  C     0.18118   0.65622   0.73857   0.00000  Uiso   1.00
C1125  C     0.15074   0.34554   0.76373   0.00000  Uiso   1.00
C1126  C     0.15630   0.38943   0.76000   0.00000  Uiso   1.00
C1127  C     0.17650   0.61127   0.74031   0.00000  Uiso   1.00
C1128  C     0.10347   0.55757   0.99105   0.00000  Uiso   1.00
C1129  C     0.18459   0.48240   0.62962   0.00000  Uiso   1.00
C1130  C     0.14656   0.51557   0.87155   0.00000  Uiso   1.00
C1131  C     0.20550   0.42135   0.52153   0.00000  Uiso   1.00
C1132  C     0.19226   0.47359   0.58221   0.00000  Uiso   1.00
C1133  C     0.11140   0.55105   0.94444   0.00000  Uiso   1.00
C1134  C     0.09895   0.61336   0.92090   0.00000  Uiso   1.00
C1135  C     0.05769   0.63461   0.93638   0.00000  Uiso   1.00
C1136  C     0.06688   0.34884   0.93961   0.00000  Uiso   1.00
C1137  C     0.10067   0.61888   0.53450   0.00000  Uiso   1.00
C1138  C     0.07103   0.65075   0.55991   0.00000  Uiso   1.00
C1139  C     0.11704   0.53030   0.51514   0.00000  Uiso   1.00
C1140  C     0.09631   0.35512   0.57867   0.00000  Uiso   1.00
C1141  C     0.16868   0.39216   0.87534   0.00000  Uiso   1.00
C1142  C     0.21810   0.39849   0.85623   0.00000  Uiso   1.00
C1143  C     0.23508   0.35720   0.83698   0.00000  Uiso   1.00
C1144  C     0.01648   0.57921   0.71364   0.00000  Uiso   1.00
C1145  C     0.05799   0.60631   0.69219   0.00000  Uiso   1.00
C1146  C     0.05124   0.65236   0.69545   0.00000  Uiso   1.00
C1147  C     0.14559   0.50137   0.99302   0.00000  Uiso   1.00
C1148  C     0.14868   0.48999   0.94708   0.00000  Uiso   1.00
C1149  C     0.16833   0.48102   0.51632   0.00000  Uiso   1.00
C1150  C     0.18512   0.44353   0.99774   0.00000  Uiso   1.00
C1151  C     0.17921   0.42743   0.95700   0.00000  Uiso   1.00
C1152  C     0.16163   0.44942   0.93044   0.00000  Uiso   1.00
H1153  H     0.22030   0.41765   0.58373   0.00000  Uiso   1.00
H1154  H     0.03634   0.36248   0.95442   0.00000  Uiso   1.00
H1155  H     0.08074   0.36045   0.90603   0.00000  Uiso   1.00
H1156  H     0.12761   0.63516   0.50970   0.00000  Uiso   1.00
H1157  H     0.11465   0.60623   0.55864   0.00000  Uiso   1.00
H1158  H     0.05404   0.66176   0.53745   0.00000  Uiso   1.00
H1159  H     0.04651   0.63557   0.58762   0.00000  Uiso   1.00
H1160  H     0.11483   0.34496   0.60016   0.00000  Uiso   1.00
H1161  H     0.07372   0.37664   0.59881   0.00000  Uiso   1.00
H1162  H     0.11889   0.37231   0.55117   0.00000  Uiso   1.00
H1163  H     0.15346   0.37836   0.84880   0.00000  Uiso   1.00
H1164  H     0.31903   0.47011   0.78755   0.00000  Uiso   1.00
H1165  H     0.15806   0.36764   0.89962   0.00000  Uiso   1.00
H1166  H     0.22716   0.42122   0.83014   0.00000  Uiso   1.00
H1167  H     0.23511   0.41174   0.88185   0.00000  Uiso   1.00
H1168  H     0.22817   0.33483   0.86343   0.00000  Uiso   1.00
H1169  H     0.27045   0.36268   0.82291   0.00000  Uiso   1.00
H1170  H     0.21985   0.34331   0.81017   0.00000  Uiso   1.00
H1171  H     0.00719   0.58905   0.74984   0.00000  Uiso   1.00
H1172  H     0.32427   0.58488   0.69799   0.00000  Uiso   1.00
H1173  H     0.08341   0.60273   0.70899   0.00000  Uiso   1.00
H1174  H     0.06919   0.59580   0.65657   0.00000  Uiso   1.00
H1175  H     0.18850   0.39690   0.94665   0.00000  Uiso   1.00
H1176  H     0.02877   0.65698   0.67545   0.00000  Uiso   1.00
H1177  H     0.08254   0.33815   0.68252   0.00000  Uiso   1.00
H1178  H     0.03781   0.66334   0.73052   0.00000  Uiso   1.00
H1179  H     0.16603   0.52744   0.57192   0.00000  Uiso   1.00
H1180  H     0.11457   0.62041   0.88585   0.00000  Uiso   1.00
H1181  H     0.12249   0.62658   0.94030   0.00000  Uiso   1.00
H1182  H     0.03726   0.62499   0.91273   0.00000  Uiso   1.00
H1183  H     0.03902   0.62413   0.96941   0.00000  Uiso   1.00
H1184  H     0.08937   0.35933   0.96099   0.00000  Uiso   1.00
I1185  I     0.23909   0.35139   0.69599   0.00000  Uiso   1.00
I1186  I     0.08824   0.65737   0.80378   0.00000  Uiso   1.00
I1187  I     0.23141   0.36390   0.99803   0.00000  Uiso   1.00
I1188  I     0.07682   0.52021   0.58092   0.00000  Uiso   1.00
O1189  O     0.16667   0.50000   0.75000   0.00000  Uiso   1.00
O1190  O     0.15451   0.45970   0.65458   0.00000  Uiso   1.00
O1191  O     0.12940   0.53724   0.84968   0.00000  Uiso   1.00
O1192  O     0.20824   0.51092   0.64606   0.00000  Uiso   1.00
O1193  O     0.17451   0.49213   0.84968   0.00000  Uiso   1.00
O1194  O     0.08750   0.56959   0.92239   0.00000  Uiso   1.00
O1195  O     0.07677   0.58691   0.51334   0.00000  Uiso   1.00
O1196  O     0.15118   0.43026   0.89182   0.00000  Uiso   1.00
O1197  O     0.02345   0.53664   0.70607   0.00000  Uiso   1.00
O1198  O     0.17930   0.41352   0.78213   0.00000  Uiso   1.00
O1199  O     0.14632   0.59418   0.77013   0.00000  Uiso   1.00
O1200  O     0.07412   0.46625   0.73413   0.00000  Uiso   1.00
O1201  O     0.26693   0.52605   0.71360   0.00000  Uiso   1.00
O1202  O     0.07071   0.52211   0.78213   0.00000  Uiso   1.00
O1203  O     0.25491   0.48559   0.77013   0.00000  Uiso   1.00
O1204  O     0.13760   0.40277   0.73413   0.00000  Uiso   1.00
O1205  O     0.20345   0.58953   0.71360   0.00000  Uiso   1.00
Zn1206 Zn    0.19338   0.47327   0.78734   0.00000  Uiso   1.00
Zn1207 Zn    0.13379   0.45791   0.71875   0.00000  Uiso   1.00
Zn1208 Zn    0.21056   0.53109   0.70657   0.00000  Uiso   1.00
Zn1209 Zn    0.12893   0.53773   0.78733   0.00000  Uiso   1.00
C1210  C     0.38606   0.49261   0.76058   0.00000  Uiso   1.00
C1211  C     0.50867   0.49728   0.55761   0.00000  Uiso   1.00
C1212  C     0.54104   0.43611   0.56410   0.00000  Uiso   1.00
C1213  C     0.61422   0.50791   0.74046   0.00000  Uiso   1.00
C1214  C     0.46837   0.51809   0.92161   0.00000  Uiso   1.00
C1215  C     0.66042   0.51274   0.73762   0.00000  Uiso   1.00
C1216  C     0.34089   0.49057   0.76380   0.00000  Uiso   1.00
C1217  C     0.51452   0.65622   0.73857   0.00000  Uiso   1.00
C1218  C     0.48407   0.34554   0.76373   0.00000  Uiso   1.00
C1219  C     0.48963   0.38943   0.76000   0.00000  Uiso   1.00
C1220  C     0.50983   0.61127   0.74031   0.00000  Uiso   1.00
C1221  C     0.43680   0.55757   0.99105   0.00000  Uiso   1.00
C1222  C     0.51793   0.48240   0.62962   0.00000  Uiso   1.00
C1223  C     0.47989   0.51557   0.87155   0.00000  Uiso   1.00
C1224  C     0.53883   0.42135   0.52153   0.00000  Uiso   1.00
C1225  C     0.52560   0.47359   0.58221   0.00000  Uiso   1.00
C1226  C     0.44474   0.55105   0.94444   0.00000  Uiso   1.00
C1227  C     0.43228   0.61336   0.92090   0.00000  Uiso   1.00
C1228  C     0.39103   0.63461   0.93638   0.00000  Uiso   1.00
C1229  C     0.40022   0.34884   0.93961   0.00000  Uiso   1.00
C1230  C     0.43401   0.61888   0.53450   0.00000  Uiso   1.00
C1231  C     0.40436   0.65075   0.55991   0.00000  Uiso   1.00
C1232  C     0.45037   0.53030   0.51514   0.00000  Uiso   1.00
C1233  C     0.42964   0.35512   0.57867   0.00000  Uiso   1.00
C1234  C     0.50201   0.39216   0.87534   0.00000  Uiso   1.00
C1235  C     0.55144   0.39849   0.85623   0.00000  Uiso   1.00
C1236  C     0.56841   0.35720   0.83698   0.00000  Uiso   1.00
C1237  C     0.34981   0.57921   0.71364   0.00000  Uiso   1.00
C1238  C     0.39133   0.60631   0.69219   0.00000  Uiso   1.00
C1239  C     0.38458   0.65236   0.69545   0.00000  Uiso   1.00
C1240  C     0.47892   0.50137   0.99302   0.00000  Uiso   1.00
C1241  C     0.48201   0.48999   0.94708   0.00000  Uiso   1.00
C1242  C     0.50167   0.48102   0.51632   0.00000  Uiso   1.00
C1243  C     0.51845   0.44353   0.99774   0.00000  Uiso   1.00
C1244  C     0.51255   0.42743   0.95700   0.00000  Uiso   1.00
C1245  C     0.49496   0.44942   0.93044   0.00000  Uiso   1.00
H1246  H     0.55363   0.41765   0.58373   0.00000  Uiso   1.00
H1247  H     0.36968   0.36248   0.95442   0.00000  Uiso   1.00
H1248  H     0.41407   0.36045   0.90603   0.00000  Uiso   1.00
H1249  H     0.46095   0.63516   0.50970   0.00000  Uiso   1.00
H1250  H     0.44798   0.60623   0.55864   0.00000  Uiso   1.00
H1251  H     0.38738   0.66176   0.53745   0.00000  Uiso   1.00
H1252  H     0.37984   0.63557   0.58762   0.00000  Uiso   1.00
H1253  H     0.44817   0.34496   0.60016   0.00000  Uiso   1.00
H1254  H     0.40706   0.37664   0.59881   0.00000  Uiso   1.00
H1255  H     0.45222   0.37231   0.55117   0.00000  Uiso   1.00
H1256  H     0.48679   0.37836   0.84880   0.00000  Uiso   1.00
H1257  H     0.65237   0.47011   0.78755   0.00000  Uiso   1.00
H1258  H     0.49140   0.36764   0.89962   0.00000  Uiso   1.00
H1259  H     0.56049   0.42122   0.83014   0.00000  Uiso   1.00
H1260  H     0.56844   0.41174   0.88185   0.00000  Uiso   1.00
H1261  H     0.56150   0.33483   0.86343   0.00000  Uiso   1.00
H1262  H     0.60378   0.36268   0.82291   0.00000  Uiso   1.00
H1263  H     0.55318   0.34331   0.81017   0.00000  Uiso   1.00
H1264  H     0.34053   0.58905   0.74984   0.00000  Uiso   1.00
H1265  H     0.65760   0.58488   0.69799   0.00000  Uiso   1.00
H1266  H     0.41674   0.60273   0.70899   0.00000  Uiso   1.00
H1267  H     0.40253   0.59580   0.65657   0.00000  Uiso   1.00
H1268  H     0.52183   0.39690   0.94665   0.00000  Uiso   1.00
H1269  H     0.36210   0.65698   0.67545   0.00000  Uiso   1.00
H1270  H     0.41587   0.33815   0.68252   0.00000  Uiso   1.00
H1271  H     0.37115   0.66334   0.73052   0.00000  Uiso   1.00
H1272  H     0.49937   0.52744   0.57192   0.00000  Uiso   1.00
H1273  H     0.44791   0.62041   0.88585   0.00000  Uiso   1.00
H1274  H     0.45582   0.62658   0.94030   0.00000  Uiso   1.00
H1275  H     0.37059   0.62499   0.91273   0.00000  Uiso   1.00
H1276  H     0.37235   0.62413   0.96941   0.00000  Uiso   1.00
H1277  H     0.42270   0.35933   0.96099   0.00000  Uiso   1.00
I1278  I     0.57242   0.35139   0.69599   0.00000  Uiso   1.00
I1279  I     0.42157   0.65737   0.80378   0.00000  Uiso   1.00
I1280  I     0.56474   0.36390   0.99803   0.00000  Uiso   1.00
I1281  I     0.41016   0.52021   0.58092   0.00000  Uiso   1.00
O1282  O     0.50000   0.50000   0.75000   0.00000  Uiso   1.00
O1283  O     0.48784   0.45970   0.65458   0.00000  Uiso   1.00
O1284  O     0.46274   0.53724   0.84968   0.00000  Uiso   1.00
O1285  O     0.54157   0.51092   0.64606   0.00000  Uiso   1.00
O1286  O     0.50785   0.49213   0.84968   0.00000  Uiso   1.00
O1287  O     0.42083   0.56959   0.92239   0.00000  Uiso   1.00
O1288  O     0.41011   0.58691   0.51334   0.00000  Uiso   1.00
O1289  O     0.48451   0.43026   0.89182   0.00000  Uiso   1.00
O1290  O     0.35678   0.53664   0.70607   0.00000  Uiso   1.00
O1291  O     0.51264   0.41352   0.78213   0.00000  Uiso   1.00
O1292  O     0.47965   0.59418   0.77013   0.00000  Uiso   1.00
O1293  O     0.40745   0.46625   0.73413   0.00000  Uiso   1.00
O1294  O     0.60026   0.52605   0.71360   0.00000  Uiso   1.00
O1295  O     0.40405   0.52211   0.78213   0.00000  Uiso   1.00
O1296  O     0.58824   0.48559   0.77013   0.00000  Uiso   1.00
O1297  O     0.47093   0.40277   0.73413   0.00000  Uiso   1.00
O1298  O     0.53678   0.58953   0.71360   0.00000  Uiso   1.00
Zn1299 Zn    0.52672   0.47327   0.78734   0.00000  Uiso   1.00
Zn1300 Zn    0.46713   0.45791   0.71875   0.00000  Uiso   1.00
Zn1301 Zn    0.54389   0.53109   0.70657   0.00000  Uiso   1.00
Zn1302 Zn    0.46226   0.53773   0.78733   0.00000  Uiso   1.00
C1303  C     0.71940   0.49261   0.76058   0.00000  Uiso   1.00
C1304  C     0.84201   0.49728   0.55761   0.00000  Uiso   1.00
C1305  C     0.87437   0.43611   0.56410   0.00000  Uiso   1.00
C1306  C     0.94755   0.50791   0.74046   0.00000  Uiso   1.00
C1307  C     0.80171   0.51809   0.92161   0.00000  Uiso   1.00
C1308  C     0.99376   0.51274   0.73762   0.00000  Uiso   1.00
C1309  C     0.67422   0.49057   0.76380   0.00000  Uiso   1.00
C1310  C     0.84785   0.65622   0.73857   0.00000  Uiso   1.00
C1311  C     0.81741   0.34554   0.76373   0.00000  Uiso   1.00
C1312  C     0.82297   0.38943   0.76000   0.00000  Uiso   1.00
C1313  C     0.84316   0.61127   0.74031   0.00000  Uiso   1.00
C1314  C     0.77013   0.55757   0.99105   0.00000  Uiso   1.00
C1315  C     0.85126   0.48240   0.62962   0.00000  Uiso   1.00
C1316  C     0.81323   0.51557   0.87155   0.00000  Uiso   1.00
C1317  C     0.87217   0.42135   0.52153   0.00000  Uiso   1.00
C1318  C     0.85893   0.47359   0.58221   0.00000  Uiso   1.00
C1319  C     0.77807   0.55105   0.94444   0.00000  Uiso   1.00
C1320  C     0.76561   0.61336   0.92090   0.00000  Uiso   1.00
C1321  C     0.72436   0.63461   0.93638   0.00000  Uiso   1.00
C1322  C     0.73355   0.34884   0.93961   0.00000  Uiso   1.00
C1323  C     0.76734   0.61888   0.53450   0.00000  Uiso   1.00
C1324  C     0.73770   0.65075   0.55991   0.00000  Uiso   1.00
C1325  C     0.78371   0.53030   0.51514   0.00000  Uiso   1.00
C1326  C     0.76297   0.35512   0.57867   0.00000  Uiso   1.00
C1327  C     0.83534   0.39216   0.87534   0.00000  Uiso   1.00
C1328  C     0.88477   0.39849   0.85623   0.00000  Uiso   1.00
C1329  C     0.90175   0.35720   0.83698   0.00000  Uiso   1.00
C1330  C     0.68315   0.57921   0.71364   0.00000  Uiso   1.00
C1331  C     0.72466   0.60631   0.69219   0.00000  Uiso   1.00
C1332  C     0.71791   0.65236   0.69545   0.00000  Uiso   1.00
C1333  C     0.81225   0.50137   0.99302   0.00000  Uiso   1.00
C1334  C     0.81535   0.48999   0.94708   0.00000  Uiso   1.00
C1335  C     0.83500   0.48102   0.51632   0.00000  Uiso   1.00
C1336  C     0.85178   0.44353   0.99774   0.00000  Uiso   1.00
C1337  C     0.84588   0.42743   0.95700   0.00000  Uiso   1.00
C1338  C     0.82829   0.44942   0.93044   0.00000  Uiso   1.00
H1339  H     0.88696   0.41765   0.58373   0.00000  Uiso   1.00
H1340  H     0.70301   0.36248   0.95442   0.00000  Uiso   1.00
H1341  H     0.74740   0.36045   0.90603   0.00000  Uiso   1.00
H1342  H     0.79428   0.63516   0.50970   0.00000  Uiso   1.00
H1343  H     0.78131   0.60623   0.55864   0.00000  Uiso   1.00
H1344  H     0.72071   0.66176   0.53745   0.00000  Uiso   1.00
H1345  H     0.71318   0.63557   0.58762   0.00000  Uiso   1.00
H1346  H     0.78150   0.34496   0.60016   0.00000  Uiso   1.00
H1347  H     0.74039   0.37664   0.59881   0.00000  Uiso   1.00
H1348  H     0.78555   0.37231   0.55117   0.00000  Uiso   1.00
H1349  H     0.82012   0.37836   0.84880   0.00000  Uiso   1.00
H1350  H     0.98570   0.47011   0.78755   0.00000  Uiso   1.00
H1351  H     0.82473   0.36764   0.89962   0.00000  Uiso   1.00
H1352  H     0.89382   0.42122   0.83014   0.00000  Uiso   1.00
H1353  H     0.90177   0.41174   0.88185   0.00000  Uiso   1.00
H1354  H     0.89483   0.33483   0.86343   0.00000  Uiso   1.00
H1355  H     0.93712   0.36268   0.82291   0.00000  Uiso   1.00
H1356  H     0.88652   0.34331   0.81017   0.00000  Uiso   1.00
H1357  H     0.67386   0.58905   0.74984   0.00000  Uiso   1.00
H1358  H     0.99093   0.58488   0.69799   0.00000  Uiso   1.00
H1359  H     0.75007   0.60273   0.70899   0.00000  Uiso   1.00
H1360  H     0.73586   0.59580   0.65657   0.00000  Uiso   1.00
H1361  H     0.85517   0.39690   0.94665   0.00000  Uiso   1.00
H1362  H     0.69543   0.65698   0.67545   0.00000  Uiso   1.00
H1363  H     0.74920   0.33815   0.68252   0.00000  Uiso   1.00
H1364  H     0.70448   0.66334   0.73052   0.00000  Uiso   1.00
H1365  H     0.83270   0.52744   0.57192   0.00000  Uiso   1.00
H1366  H     0.78124   0.62041   0.88585   0.00000  Uiso   1.00
H1367  H     0.78916   0.62658   0.94030   0.00000  Uiso   1.00
H1368  H     0.70393   0.62499   0.91273   0.00000  Uiso   1.00
H1369  H     0.70568   0.62413   0.96941   0.00000  Uiso   1.00
H1370  H     0.75603   0.35933   0.96099   0.00000  Uiso   1.00
I1371  I     0.90575   0.35139   0.69599   0.00000  Uiso   1.00
I1372  I     0.75490   0.65737   0.80378   0.00000  Uiso   1.00
I1373  I     0.89807   0.36390   0.99803   0.00000  Uiso   1.00
I1374  I     0.74349   0.52021   0.58092   0.00000  Uiso   1.00
O1375  O     0.83333   0.50000   0.75000   0.00000  Uiso   1.00
O1376  O     0.82118   0.45970   0.65458   0.00000  Uiso   1.00
O1377  O     0.79607   0.53724   0.84968   0.00000  Uiso   1.00
O1378  O     0.87491   0.51092   0.64606   0.00000  Uiso   1.00
O1379  O     0.84118   0.49213   0.84968   0.00000  Uiso   1.00
O1380  O     0.75417   0.56959   0.92239   0.00000  Uiso   1.00
O1381  O     0.74344   0.58691   0.51334   0.00000  Uiso   1.00
O1382  O     0.81785   0.43026   0.89182   0.00000  Uiso   1.00
O1383  O     0.69011   0.53664   0.70607   0.00000  Uiso   1.00
O1384  O     0.84597   0.41352   0.78213   0.00000  Uiso   1.00
O1385  O     0.81298   0.59418   0.77013   0.00000  Uiso   1.00
O1386  O     0.74078   0.46625   0.73413   0.00000  Uiso   1.00
O1387  O     0.93360   0.52605   0.71360   0.00000  Uiso   1.00
O1388  O     0.73738   0.52211   0.78213   0.00000  Uiso   1.00
O1389  O     0.92158   0.48559   0.77013   0.00000  Uiso   1.00
O1390  O     0.80426   0.40277   0.73413   0.00000  Uiso   1.00
O1391  O     0.87012   0.58953   0.71360   0.00000  Uiso   1.00
Zn1392 Zn    0.86005   0.47327   0.78734   0.00000  Uiso   1.00
Zn1393 Zn    0.80046   0.45791   0.71875   0.00000  Uiso   1.00
Zn1394 Zn    0.87723   0.53109   0.70657   0.00000  Uiso   1.00
Zn1395 Zn    0.79560   0.53773   0.78733   0.00000  Uiso   1.00
C1396  C     0.05273   0.82594   0.76058   0.00000  Uiso   1.00
C1397  C     0.17534   0.83062   0.55761   0.00000  Uiso   1.00
C1398  C     0.20770   0.76944   0.56410   0.00000  Uiso   1.00
C1399  C     0.28089   0.84124   0.74046   0.00000  Uiso   1.00
C1400  C     0.13504   0.85142   0.92161   0.00000  Uiso   1.00
C1401  C     0.32709   0.84607   0.73762   0.00000  Uiso   1.00
C1402  C     0.00755   0.82391   0.76380   0.00000  Uiso   1.00
C1403  C     0.18118   0.98955   0.73857   0.00000  Uiso   1.00
C1404  C     0.15074   0.67887   0.76373   0.00000  Uiso   1.00
C1405  C     0.15630   0.72276   0.76000   0.00000  Uiso   1.00
C1406  C     0.17650   0.94461   0.74031   0.00000  Uiso   1.00
C1407  C     0.10347   0.89090   0.99105   0.00000  Uiso   1.00
C1408  C     0.18459   0.81573   0.62962   0.00000  Uiso   1.00
C1409  C     0.14656   0.84890   0.87155   0.00000  Uiso   1.00
C1410  C     0.20550   0.75469   0.52153   0.00000  Uiso   1.00
C1411  C     0.19226   0.80692   0.58221   0.00000  Uiso   1.00
C1412  C     0.11140   0.88438   0.94444   0.00000  Uiso   1.00
C1413  C     0.09895   0.94669   0.92090   0.00000  Uiso   1.00
C1414  C     0.05769   0.96794   0.93638   0.00000  Uiso   1.00
C1415  C     0.06688   0.68217   0.93961   0.00000  Uiso   1.00
C1416  C     0.10067   0.95221   0.53450   0.00000  Uiso   1.00
C1417  C     0.07103   0.98408   0.55991   0.00000  Uiso   1.00
C1418  C     0.11704   0.86363   0.51514   0.00000  Uiso   1.00
C1419  C     0.09631   0.68845   0.57867   0.00000  Uiso   1.00
C1420  C     0.16868   0.72549   0.87534   0.00000  Uiso   1.00
C1421  C     0.21810   0.73183   0.85623   0.00000  Uiso   1.00
C1422  C     0.23508   0.69053   0.83698   0.00000  Uiso   1.00
C1423  C     0.01648   0.91254   0.71364   0.00000  Uiso   1.00
C1424  C     0.05799   0.93964   0.69219   0.00000  Uiso   1.00
C1425  C     0.05124   0.98570   0.69545   0.00000  Uiso   1.00
C1426  C     0.14559   0.83470   0.99302   0.00000  Uiso   1.00
C1427  C     0.14868   0.82332   0.94708   0.00000  Uiso   1.00
C1428  C     0.16833   0.81436   0.51632   0.00000  Uiso   1.00
C1429  C     0.18512   0.77686   0.99774   0.00000  Uiso   1.00
C1430  C     0.17921   0.76076   0.95700   0.00000  Uiso   1.00
C1431  C     0.16163   0.78276   0.93044   0.00000  Uiso   1.00
H1432  H     0.22030   0.75099   0.58373   0.00000  Uiso   1.00
H1433  H     0.03634   0.69581   0.95442   0.00000  Uiso   1.00
H1434  H     0.08074   0.69379   0.90603   0.00000  Uiso   1.00
H1435  H     0.12761   0.96849   0.50970   0.00000  Uiso   1.00
H1436  H     0.11465   0.93956   0.55864   0.00000  Uiso   1.00
H1437  H     0.05404   0.99509   0.53745   0.00000  Uiso   1.00
H1438  H     0.04651   0.96891   0.58762   0.00000  Uiso   1.00
H1439  H     0.11483   0.67829   0.60016   0.00000  Uiso   1.00
H1440  H     0.07372   0.70997   0.59881   0.00000  Uiso   1.00
H1441  H     0.11889   0.70564   0.55117   0.00000  Uiso   1.00
H1442  H     0.15346   0.71170   0.84880   0.00000  Uiso   1.00
H1443  H     0.31903   0.80344   0.78755   0.00000  Uiso   1.00
H1444  H     0.15806   0.70098   0.89962   0.00000  Uiso   1.00
H1445  H     0.22716   0.75455   0.83014   0.00000  Uiso   1.00
H1446  H     0.23511   0.74507   0.88185   0.00000  Uiso   1.00
H1447  H     0.22817   0.66816   0.86343   0.00000  Uiso   1.00
H1448  H     0.27045   0.69601   0.82291   0.00000  Uiso   1.00
H1449  H     0.21985   0.67665   0.81017   0.00000  Uiso   1.00
H1450  H     0.00719   0.92238   0.74984   0.00000  Uiso   1.00
H1451  H     0.32427   0.91821   0.69799   0.00000  Uiso   1.00
H1452  H     0.08341   0.93607   0.70899   0.00000  Uiso   1.00
H1453  H     0.06919   0.92913   0.65657   0.00000  Uiso   1.00
H1454  H     0.18850   0.73023   0.94665   0.00000  Uiso   1.00
H1455  H     0.02877   0.99031   0.67545   0.00000  Uiso   1.00
H1456  H     0.08254   0.67149   0.68252   0.00000  Uiso   1.00
H1457  H     0.03781   0.99667   0.73052   0.00000  Uiso   1.00
H1458  H     0.16603   0.86077   0.57192   0.00000  Uiso   1.00
H1459  H     0.11457   0.95374   0.88585   0.00000  Uiso   1.00
H1460  H     0.12249   0.95991   0.94030   0.00000  Uiso   1.00
H1461  H     0.03726   0.95832   0.91273   0.00000  Uiso   1.00
H1462  H     0.03902   0.95747   0.96941   0.00000  Uiso   1.00
H1463  H     0.08937   0.69267   0.96099   0.00000  Uiso   1.00
I1464  I     0.23909   0.68472   0.69599   0.00000  Uiso   1.00
I1465  I     0.08824   0.99070   0.80378   0.00000  Uiso   1.00
I1466  I     0.23141   0.69723   0.99803   0.00000  Uiso   1.00
I1467  I     0.07682   0.85355   0.58092   0.00000  Uiso   1.00
O1468  O     0.16667   0.83333   0.75000   0.00000  Uiso   1.00
O1469  O     0.15451   0.79304   0.65458   0.00000  Uiso   1.00
O1470  O     0.12940   0.87058   0.84968   0.00000  Uiso   1.00
O1471  O     0.20824   0.84425   0.64606   0.00000  Uiso   1.00
O1472  O     0.17451   0.82546   0.84968   0.00000  Uiso   1.00
O1473  O     0.08750   0.90292   0.92239   0.00000  Uiso   1.00
O1474  O     0.07677   0.92025   0.51334   0.00000  Uiso   1.00
O1475  O     0.15118   0.76359   0.89182   0.00000  Uiso   1.00
O1476  O     0.02345   0.86997   0.70607   0.00000  Uiso   1.00
O1477  O     0.17930   0.74686   0.78213   0.00000  Uiso   1.00
O1478  O     0.14632   0.92751   0.77013   0.00000  Uiso   1.00
O1479  O     0.07412   0.79958   0.73413   0.00000  Uiso   1.00
O1480  O     0.26693   0.85939   0.71360   0.00000  Uiso   1.00
O1481  O     0.07071   0.85544   0.78213   0.00000  Uiso   1.00
O1482  O     0.25491   0.81892   0.77013   0.00000  Uiso   1.00
O1483  O     0.13760   0.73610   0.73413   0.00000  Uiso   1.00
O1484  O     0.20345   0.92286   0.71360   0.00000  Uiso   1.00
Zn1485 Zn    0.19338   0.80661   0.78734   0.00000  Uiso   1.00
Zn1486 Zn    0.13379   0.79124   0.71875   0.00000  Uiso   1.00
Zn1487 Zn    0.21056   0.86442   0.70657   0.00000  Uiso   1.00
Zn1488 Zn    0.12893   0.87106   0.78733   0.00000  Uiso   1.00
C1489  C     0.38606   0.82594   0.76058   0.00000  Uiso   1.00
C1490  C     0.50867   0.83062   0.55761   0.00000  Uiso   1.00
C1491  C     0.54104   0.76944   0.56410   0.00000  Uiso   1.00
C1492  C     0.61422   0.84124   0.74046   0.00000  Uiso   1.00
C1493  C     0.46837   0.85142   0.92161   0.00000  Uiso   1.00
C1494  C     0.66042   0.84607   0.73762   0.00000  Uiso   1.00
C1495  C     0.34089   0.82391   0.76380   0.00000  Uiso   1.00
C1496  C     0.51452   0.98955   0.73857   0.00000  Uiso   1.00
C1497  C     0.48407   0.67887   0.76373   0.00000  Uiso   1.00
C1498  C     0.48963   0.72276   0.76000   0.00000  Uiso   1.00
C1499  C     0.50983   0.94461   0.74031   0.00000  Uiso   1.00
C1500  C     0.43680   0.89090   0.99105   0.00000  Uiso   1.00
C1501  C     0.51793   0.81573   0.62962   0.00000  Uiso   1.00
C1502  C     0.47989   0.84890   0.87155   0.00000  Uiso   1.00
C1503  C     0.53883   0.75469   0.52153   0.00000  Uiso   1.00
C1504  C     0.52560   0.80692   0.58221   0.00000  Uiso   1.00
C1505  C     0.44474   0.88438   0.94444   0.00000  Uiso   1.00
C1506  C     0.43228   0.94669   0.92090   0.00000  Uiso   1.00
C1507  C     0.39103   0.96794   0.93638   0.00000  Uiso   1.00
C1508  C     0.40022   0.68217   0.93961   0.00000  Uiso   1.00
C1509  C     0.43401   0.95221   0.53450   0.00000  Uiso   1.00
C1510  C     0.40436   0.98408   0.55991   0.00000  Uiso   1.00
C1511  C     0.45037   0.86363   0.51514   0.00000  Uiso   1.00
C1512  C     0.42964   0.68845   0.57867   0.00000  Uiso   1.00
C1513  C     0.50201   0.72549   0.87534   0.00000  Uiso   1.00
C1514  C     0.55144   0.73183   0.85623   0.00000  Uiso   1.00
C1515  C     0.56841   0.69053   0.83698   0.00000  Uiso   1.00
C1516  C     0.34981   0.91254   0.71364   0.00000  Uiso   1.00
C1517  C     0.39133   0.93964   0.69219   0.00000  Uiso   1.00
C1518  C     0.38458   0.98570   0.69545   0.00000  Uiso   1.00
C1519  C     0.47892   0.83470   0.99302   0.00000  Uiso   1.00
C1520  C     0.48201   0.82332   0.94708   0.00000  Uiso   1.00
C1521  C     0.50167   0.81436   0.51632   0.00000  Uiso   1.00
C1522  C     0.51845   0.77686   0.99774   0.00000  Uiso   1.00
C1523  C     0.51255   0.76076   0.95700   0.00000  Uiso   1.00
C1524  C     0.49496   0.78276   0.93044   0.00000  Uiso   1.00
H1525  H     0.55363   0.75099   0.58373   0.00000  Uiso   1.00
H1526  H     0.36968   0.69581   0.95442   0.00000  Uiso   1.00
H1527  H     0.41407   0.69379   0.90603   0.00000  Uiso   1.00
H1528  H     0.46095   0.96849   0.50970   0.00000  Uiso   1.00
H1529  H     0.44798   0.93956   0.55864   0.00000  Uiso   1.00
H1530  H     0.38738   0.99509   0.53745   0.00000  Uiso   1.00
H1531  H     0.37984   0.96891   0.58762   0.00000  Uiso   1.00
H1532  H     0.44817   0.67829   0.60016   0.00000  Uiso   1.00
H1533  H     0.40706   0.70997   0.59881   0.00000  Uiso   1.00
H1534  H     0.45222   0.70564   0.55117   0.00000  Uiso   1.00
H1535  H     0.48679   0.71170   0.84880   0.00000  Uiso   1.00
H1536  H     0.65237   0.80344   0.78755   0.00000  Uiso   1.00
H1537  H     0.49140   0.70098   0.89962   0.00000  Uiso   1.00
H1538  H     0.56049   0.75455   0.83014   0.00000  Uiso   1.00
H1539  H     0.56844   0.74507   0.88185   0.00000  Uiso   1.00
H1540  H     0.56150   0.66816   0.86343   0.00000  Uiso   1.00
H1541  H     0.60378   0.69601   0.82291   0.00000  Uiso   1.00
H1542  H     0.55318   0.67665   0.81017   0.00000  Uiso   1.00
H1543  H     0.34053   0.92238   0.74984   0.00000  Uiso   1.00
H1544  H     0.65760   0.91821   0.69799   0.00000  Uiso   1.00
H1545  H     0.41674   0.93607   0.70899   0.00000  Uiso   1.00
H1546  H     0.40253   0.92913   0.65657   0.00000  Uiso   1.00
H1547  H     0.52183   0.73023   0.94665   0.00000  Uiso   1.00
H1548  H     0.36210   0.99031   0.67545   0.00000  Uiso   1.00
H1549  H     0.41587   0.67149   0.68252   0.00000  Uiso   1.00
H1550  H     0.37115   0.99667   0.73052   0.00000  Uiso   1.00
H1551  H     0.49937   0.86077   0.57192   0.00000  Uiso   1.00
H1552  H     0.44791   0.95374   0.88585   0.00000  Uiso   1.00
H1553  H     0.45582   0.95991   0.94030   0.00000  Uiso   1.00
H1554  H     0.37059   0.95832   0.91273   0.00000  Uiso   1.00
H1555  H     0.37235   0.95747   0.96941   0.00000  Uiso   1.00
H1556  H     0.42270   0.69267   0.96099   0.00000  Uiso   1.00
I1557  I     0.57242   0.68472   0.69599   0.00000  Uiso   1.00
I1558  I     0.42157   0.99070   0.80378   0.00000  Uiso   1.00
I1559  I     0.56474   0.69723   0.99803   0.00000  Uiso   1.00
I1560  I     0.41016   0.85355   0.58092   0.00000  Uiso   1.00
O1561  O     0.50000   0.83333   0.75000   0.00000  Uiso   1.00
O1562  O     0.48784   0.79304   0.65458   0.00000  Uiso   1.00
O1563  O     0.46274   0.87058   0.84968   0.00000  Uiso   1.00
O1564  O     0.54157   0.84425   0.64606   0.00000  Uiso   1.00
O1565  O     0.50785   0.82546   0.84968   0.00000  Uiso   1.00
O1566  O     0.42083   0.90292   0.92239   0.00000  Uiso   1.00
O1567  O     0.41011   0.92025   0.51334   0.00000  Uiso   1.00
O1568  O     0.48451   0.76359   0.89182   0.00000  Uiso   1.00
O1569  O     0.35678   0.86997   0.70607   0.00000  Uiso   1.00
O1570  O     0.51264   0.74686   0.78213   0.00000  Uiso   1.00
O1571  O     0.47965   0.92751   0.77013   0.00000  Uiso   1.00
O1572  O     0.40745   0.79958   0.73413   0.00000  Uiso   1.00
O1573  O     0.60026   0.85939   0.71360   0.00000  Uiso   1.00
O1574  O     0.40405   0.85544   0.78213   0.00000  Uiso   1.00
O1575  O     0.58824   0.81892   0.77013   0.00000  Uiso   1.00
O1576  O     0.47093   0.73610   0.73413   0.00000  Uiso   1.00
O1577  O     0.53678   0.92286   0.71360   0.00000  Uiso   1.00
Zn1578 Zn    0.52672   0.80661   0.78734   0.00000  Uiso   1.00
Zn1579 Zn    0.46713   0.79124   0.71875   0.00000  Uiso   1.00
Zn1580 Zn    0.54389   0.86442   0.70657   0.00000  Uiso   1.00
Zn1581 Zn    0.46226   0.87106   0.78733   0.00000  Uiso   1.00
C1582  C     0.71940   0.82594   0.76058   0.00000  Uiso   1.00
C1583  C     0.84201   0.83062   0.55761   0.00000  Uiso   1.00
C1584  C     0.87437   0.76944   0.56410   0.00000  Uiso   1.00
C1585  C     0.94755   0.84124   0.74046   0.00000  Uiso   1.00
C1586  C     0.80171   0.85142   0.92161   0.00000  Uiso   1.00
C1587  C     0.99376   0.84607   0.73762   0.00000  Uiso   1.00
C1588  C     0.67422   0.82391   0.76380   0.00000  Uiso   1.00
C1589  C     0.84785   0.98955   0.73857   0.00000  Uiso   1.00
C1590  C     0.81741   0.67887   0.76373   0.00000  Uiso   1.00
C1591  C     0.82297   0.72276   0.76000   0.00000  Uiso   1.00
C1592  C     0.84316   0.94461   0.74031   0.00000  Uiso   1.00
C1593  C     0.77013   0.89090   0.99105   0.00000  Uiso   1.00
C1594  C     0.85126   0.81573   0.62962   0.00000  Uiso   1.00
C1595  C     0.81323   0.84890   0.87155   0.00000  Uiso   1.00
C1596  C     0.87217   0.75469   0.52153   0.00000  Uiso   1.00
C1597  C     0.85893   0.80692   0.58221   0.00000  Uiso   1.00
C1598  C     0.77807   0.88438   0.94444   0.00000  Uiso   1.00
C1599  C     0.76561   0.94669   0.92090   0.00000  Uiso   1.00
C1600  C     0.72436   0.96794   0.93638   0.00000  Uiso   1.00
C1601  C     0.73355   0.68217   0.93961   0.00000  Uiso   1.00
C1602  C     0.76734   0.95221   0.53450   0.00000  Uiso   1.00
C1603  C     0.73770   0.98408   0.55991   0.00000  Uiso   1.00
C1604  C     0.78371   0.86363   0.51514   0.00000  Uiso   1.00
C1605  C     0.76297   0.68845   0.57867   0.00000  Uiso   1.00
C1606  C     0.83534   0.72549   0.87534   0.00000  Uiso   1.00
C1607  C     0.88477   0.73183   0.85623   0.00000  Uiso   1.00
C1608  C     0.90175   0.69053   0.83698   0.00000  Uiso   1.00
C1609  C     0.68315   0.91254   0.71364   0.00000  Uiso   1.00
C1610  C     0.72466   0.93964   0.69219   0.00000  Uiso   1.00
C1611  C     0.71791   0.98570   0.69545   0.00000  Uiso   1.00
C1612  C     0.81225   0.83470   0.99302   0.00000  Uiso   1.00
C1613  C     0.81535   0.82332   0.94708   0.00000  Uiso   1.00
C1614  C     0.83500   0.81436   0.51632   0.00000  Uiso   1.00
C1615  C     0.85178   0.77686   0.99774   0.00000  Uiso   1.00
C1616  C     0.84588   0.76076   0.95700   0.00000  Uiso   1.00
C1617  C     0.82829   0.78276   0.93044   0.00000  Uiso   1.00
H1618  H     0.88696   0.75099   0.58373   0.00000  Uiso   1.00
H1619  H     0.70301   0.69581   0.95442   0.00000  Uiso   1.00
H1620  H     0.74740   0.69379   0.90603   0.00000  Uiso   1.00
H1621  H     0.79428   0.96849   0.50970   0.00000  Uiso   1.00
H1622  H     0.78131   0.93956   0.55864   0.00000  Uiso   1.00
H1623  H     0.72071   0.99509   0.53745   0.00000  Uiso   1.00
H1624  H     0.71318   0.96891   0.58762   0.00000  Uiso   1.00
H1625  H     0.78150   0.67829   0.60016   0.00000  Uiso   1.00
H1626  H     0.74039   0.70997   0.59881   0.00000  Uiso   1.00
H1627  H     0.78555   0.70564   0.55117   0.00000  Uiso   1.00
H1628  H     0.82012   0.71170   0.84880   0.00000  Uiso   1.00
H1629  H     0.98570   0.80344   0.78755   0.00000  Uiso   1.00
H1630  H     0.82473   0.70098   0.89962   0.00000  Uiso   1.00
H1631  H     0.89382   0.75455   0.83014   0.00000  Uiso   1.00
H1632  H     0.90177   0.74507   0.88185   0.00000  Uiso   1.00
H1633  H     0.89483   0.66816   0.86343   0.00000  Uiso   1.00
H1634  H     0.93712   0.69601   0.82291   0.00000  Uiso   1.00
H1635  H     0.88652   0.67665   0.81017   0.00000  Uiso   1.00
H1636  H     0.67386   0.92238   0.74984   0.00000  Uiso   1.00
H1637  H     0.99093   0.91821   0.69799   0.00000  Uiso   1.00
H1638  H     0.75007   0.93607   0.70899   0.00000  Uiso   1.00
H1639  H     0.73586   0.92913   0.65657   0.00000  Uiso   1.00
H1640  H     0.85517   0.73023   0.94665   0.00000  Uiso   1.00
H1641  H     0.69543   0.99031   0.67545   0.00000  Uiso   1.00
H1642  H     0.74920   0.67149   0.68252   0.00000  Uiso   1.00
H1643  H     0.70448   0.99667   0.73052   0.00000  Uiso   1.00
H1644  H     0.83270   0.86077   0.57192   0.00000  Uiso   1.00
H1645  H     0.78124   0.95374   0.88585   0.00000  Uiso   1.00
H1646  H     0.78916   0.95991   0.94030   0.00000  Uiso   1.00
H1647  H     0.70393   0.95832   0.91273   0.00000  Uiso   1.00
H1648  H     0.70568   0.95747   0.96941   0.00000  Uiso   1.00
H1649  H     0.75603   0.69267   0.96099   0.00000  Uiso   1.00
I1650  I     0.90575   0.68472   0.69599   0.00000  Uiso   1.00
I1651  I     0.75490   0.99070   0.80378   0.00000  Uiso   1.00
I1652  I     0.89807   0.69723   0.99803   0.00000  Uiso   1.00
I1653  I     0.74349   0.85355   0.58092   0.00000  Uiso   1.00
O1654  O     0.83333   0.83333   0.75000   0.00000  Uiso   1.00
O1655  O     0.82118   0.79304   0.65458   0.00000  Uiso   1.00
O1656  O     0.79607   0.87058   0.84968   0.00000  Uiso   1.00
O1657  O     0.87491   0.84425   0.64606   0.00000  Uiso   1.00
O1658  O     0.84118   0.82546   0.84968   0.00000  Uiso   1.00
O1659  O     0.75417   0.90292   0.92239   0.00000  Uiso   1.00
O1660  O     0.74344   0.92025   0.51334   0.00000  Uiso   1.00
O1661  O     0.81785   0.76359   0.89182   0.00000  Uiso   1.00
O1662  O     0.69011   0.86997   0.70607   0.00000  Uiso   1.00
O1663  O     0.84597   0.74686   0.78213   0.00000  Uiso   1.00
O1664  O     0.81298   0.92751   0.77013   0.00000  Uiso   1.00
O1665  O     0.74078   0.79958   0.73413   0.00000  Uiso   1.00
O1666  O     0.93360   0.85939   0.71360   0.00000  Uiso   1.00
O1667  O     0.73738   0.85544   0.78213   0.00000  Uiso   1.00
O1668  O     0.92158   0.81892   0.77013   0.00000  Uiso   1.00
O1669  O     0.80426   0.73610   0.73413   0.00000  Uiso   1.00
O1670  O     0.87012   0.92286   0.71360   0.00000  Uiso   1.00
Zn1671 Zn    0.86005   0.80661   0.78734   0.00000  Uiso   1.00
Zn1672 Zn    0.80046   0.79124   0.71875   0.00000  Uiso   1.00
Zn1673 Zn    0.87723   0.86442   0.70657   0.00000  Uiso   1.00
Zn1674 Zn    0.79560   0.87106   0.78733   0.00000  Uiso   1.00
loop_
_geom_bond_atom_site_label_1
_geom_bond_atom_site_label_2
_geom_bond_distance
_geom_bond_site_symmetry_2
_ccdc_geom_bond_type
C1     O84     1.272   .     A
C1     O86     1.275   .     A
C1     C7      1.435   .     S
C2     H63     1.081   .     S
C2     C16     1.393   .     A
C2     C33     1.407   .     A
C3     C15     1.384   .     A
C3     H37     1.084   .     S
C3     C16     1.389   .     A
C4     O87     1.281   .     A
C4     C6      1.464   .     S
C4     O85     1.276   .     A
C5     C17     1.424   .     A
C5     C32     1.450   .     A
C5     C14     1.507   .     S
C6     C100    1.336   .     S
C6     O174    1.393   .     S
C7     C192    1.336   1_455 S
C7     H234    1.086   1_455 S
C8     C11     1.446   .     S
C8     C288    1.347   .     S
C8     I348    2.142   .     S
C9     C10     1.419   .     S
C9     C566    1.347   1_545 S
C9     I628    2.144   1_545 S
C10    O88     1.269   .     A
C10    O82     1.281   .     A
C11    O83     1.266   .     A
C11    O89     1.277   .     A
C12    C17     1.410   .     A
C12    C860    1.400   .     S
C12    O916    1.386   .     S
C13    O76     1.271   .     A
C13    C16     1.443   .     S
C13    O74     1.269   .     A
C14    O77     1.277   .     A
C14    O75     1.295   .     A
C15    C871    1.416   1_554 S
C15    I908    2.134   1_554 S
C17    O78     1.391   .     S
C18    C19     1.534   .     S
C18    H65     1.110   .     S
C18    O78     1.415   .     S
C18    H64     1.111   .     S
C19    H66     1.112   .     S
C19    H67     1.109   .     S
C19    C299    1.525   .     S
C20    H39     1.108   .     S
C20    H38     1.110   .     S
C20    H68     1.111   .     S
C20    C577    1.525   1_545 S
C21    C22     1.529   .     S
C21    O79     1.419   .     S
C21    H41     1.112   .     S
C21    H40     1.112   .     S
C22    H43     1.112   .     S
C22    H42     1.110   .     S
C22    C303    1.527   .     S
C23    I72     2.153   .     S
C23    C849    1.400   1_554 S
C23    C868    1.412   1_554 S
C24    H45     1.110   .     S
C24    H44     1.111   .     S
C24    H46     1.111   .     S
C24    C580    1.527   1_545 S
C25    O80     1.424   .     S
C25    H47     1.100   .     S
C25    C26     1.548   .     S
C25    H49     1.109   .     S
C26    C27     1.525   .     S
C26    H50     1.107   .     S
C26    H51     1.107   .     S
C27    H54     1.108   .     S
C27    H52     1.111   .     S
C27    H53     1.110   .     S
C28    C29     1.529   .     S
C28    H55     1.117   .     S
C28    O81     1.415   .     S
C28    H242    1.111   1_455 S
C29    C30     1.527   .     S
C29    H58     1.111   .     S
C29    H57     1.112   .     S
C30    H60     1.111   .     S
C30    H62     1.110   .     S
C30    H340    1.110   .     S
C31    C32     1.427   .     A
C31    C860    1.412   .     S
C31    C870    1.423   .     S
C32    C36     1.441   .     A
C33    C868    1.423   1_554 S
C33    C871    1.410   1_554 S
C34    C35     1.378   .     A
C34    C852    1.416   .     S
C34    C870    1.410   .     S
C35    C36     1.416   .     A
C35    H59     1.069   .     S
C36    O80     1.401   .     S
H48    C100    1.086   .     S
H56    C121    1.111   .     S
H61    C588    1.110   1_545 S
I69    C566    2.142   1_545 S
I70    C288    2.144   .     S
I71    C852    2.134   .     S
O73    Zn93    1.934   .     S
O73    Zn90    1.952   .     S
O73    Zn91    1.954   .     S
O73    Zn92    1.932   .     S
O74    Zn91    1.944   .     S
O75    Zn93    1.955   .     S
O76    Zn92    1.955   .     S
O77    Zn90    1.945   .     S
O79    C849    1.386   1_554 S
O81    C192    1.393   1_455 S
O82    Zn90    1.924   .     S
O83    Zn93    1.921   .     S
O84    Zn91    1.919   .     S
O85    Zn92    1.929   .     S
O86    Zn93    1.929   .     S
O87    Zn90    1.919   .     S
O88    Zn91    1.923   .     S
O89    Zn92    1.923   .     S
C94    O177    1.272   .     A
C94    O179    1.275   .     A
C94    C100    1.435   .     S
C95    H156    1.081   .     S
C95    C109    1.393   .     A
C95    C126    1.407   .     A
C96    C108    1.384   .     A
C96    H130    1.084   .     S
C96    C109    1.389   .     A
C97    O180    1.281   .     A
C97    C99     1.464   .     S
C97    O178    1.276   .     A
C98    C110    1.424   .     A
C98    C125    1.450   .     A
C98    C107    1.507   .     S
C99    C193    1.336   .     S
C99    O267    1.393   .     S
C101   C104    1.446   .     S
C101   C381    1.347   .     S
C101   I441    2.142   .     S
C102   C103    1.419   .     S
C102   C659    1.347   1_545 S
C102   I721    2.144   1_545 S
C103   O181    1.269   .     A
C103   O175    1.281   .     A
C104   O176    1.266   .     A
C104   O182    1.277   .     A
C105   C110    1.410   .     A
C105   C953    1.400   .     S
C105   O1009   1.386   .     S
C106   O169    1.271   .     A
C106   C109    1.443   .     S
C106   O167    1.269   .     A
C107   O170    1.277   .     A
C107   O168    1.295   .     A
C108   C964    1.416   1_554 S
C108   I1001   2.134   1_554 S
C110   O171    1.391   .     S
C111   C112    1.534   .     S
C111   H158    1.110   .     S
C111   O171    1.415   .     S
C111   H157    1.111   .     S
C112   H159    1.112   .     S
C112   H160    1.109   .     S
C112   C392    1.525   .     S
C113   H132    1.108   .     S
C113   H131    1.110   .     S
C113   H161    1.111   .     S
C113   C670    1.525   1_545 S
C114   C115    1.529   .     S
C114   O172    1.419   .     S
C114   H134    1.112   .     S
C114   H133    1.112   .     S
C115   H136    1.112   .     S
C115   H135    1.110   .     S
C115   C396    1.527   .     S
C116   I165    2.153   .     S
C116   C942    1.400   1_554 S
C116   C961    1.412   1_554 S
C117   H138    1.110   .     S
C117   H137    1.111   .     S
C117   H139    1.111   .     S
C117   C673    1.527   1_545 S
C118   O173    1.424   .     S
C118   H140    1.100   .     S
C118   C119    1.548   .     S
C118   H142    1.109   .     S
C119   C120    1.525   .     S
C119   H143    1.107   .     S
C119   H144    1.107   .     S
C120   H147    1.108   .     S
C120   H145    1.111   .     S
C120   H146    1.110   .     S
C121   C122    1.529   .     S
C121   H148    1.117   .     S
C121   O174    1.415   .     S
C122   C123    1.527   .     S
C122   H151    1.111   .     S
C122   H150    1.112   .     S
C123   H153    1.111   .     S
C123   H155    1.110   .     S
C123   H433    1.110   .     S
C124   C125    1.427   .     A
C124   C953    1.412   .     S
C124   C963    1.423   .     S
C125   C129    1.441   .     A
C126   C961    1.423   1_554 S
C126   C964    1.410   1_554 S
C127   C128    1.378   .     A
C127   C945    1.416   .     S
C127   C963    1.410   .     S
C128   C129    1.416   .     A
C128   H152    1.069   .     S
C129   O173    1.401   .     S
H141   C193    1.086   .     S
H149   C214    1.111   .     S
H154   C681    1.110   1_545 S
I162   C659    2.142   1_545 S
I163   C381    2.144   .     S
I164   C945    2.134   .     S
O166   Zn186   1.934   .     S
O166   Zn183   1.952   .     S
O166   Zn184   1.954   .     S
O166   Zn185   1.932   .     S
O167   Zn184   1.944   .     S
O168   Zn186   1.955   .     S
O169   Zn185   1.955   .     S
O170   Zn183   1.945   .     S
O172   C942    1.386   1_554 S
O175   Zn183   1.924   .     S
O176   Zn186   1.921   .     S
O177   Zn184   1.919   .     S
O178   Zn185   1.929   .     S
O179   Zn186   1.929   .     S
O180   Zn183   1.919   .     S
O181   Zn184   1.923   .     S
O182   Zn185   1.923   .     S
C187   O270    1.272   .     A
C187   O272    1.275   .     A
C187   C193    1.435   .     S
C188   H249    1.081   .     S
C188   C202    1.393   .     A
C188   C219    1.407   .     A
C189   C201    1.384   .     A
C189   H223    1.084   .     S
C189   C202    1.389   .     A
C190   O273    1.281   .     A
C190   C192    1.464   .     S
C190   O271    1.276   .     A
C191   C203    1.424   .     A
C191   C218    1.450   .     A
C191   C200    1.507   .     S
C192   C7      1.336   1_655 S
C192   O81     1.393   1_655 S
C194   C197    1.446   .     S
C194   C474    1.347   .     S
C194   I534    2.142   .     S
C195   C196    1.419   .     S
C195   C752    1.347   1_545 S
C195   I814    2.144   1_545 S
C196   O274    1.269   .     A
C196   O268    1.281   .     A
C197   O269    1.266   .     A
C197   O275    1.277   .     A
C198   C203    1.410   .     A
C198   C1046   1.400   .     S
C198   O1102   1.386   .     S
C199   O262    1.271   .     A
C199   C202    1.443   .     S
C199   O260    1.269   .     A
C200   O263    1.277   .     A
C200   O261    1.295   .     A
C201   C1057   1.416   1_554 S
C201   I1094   2.134   1_554 S
C203   O264    1.391   .     S
C204   C205    1.534   .     S
C204   H251    1.110   .     S
C204   O264    1.415   .     S
C204   H250    1.111   .     S
C205   H252    1.112   .     S
C205   H253    1.109   .     S
C205   C485    1.525   .     S
C206   H225    1.108   .     S
C206   H224    1.110   .     S
C206   H254    1.111   .     S
C206   C763    1.525   1_545 S
C207   C208    1.529   .     S
C207   O265    1.419   .     S
C207   H227    1.112   .     S
C207   H226    1.112   .     S
C208   H229    1.112   .     S
C208   H228    1.110   .     S
C208   C489    1.527   .     S
C209   I258    2.153   .     S
C209   C1035   1.400   1_554 S
C209   C1054   1.412   1_554 S
C210   H231    1.110   .     S
C210   H230    1.111   .     S
C210   H232    1.111   .     S
C210   C766    1.527   1_545 S
C211   O266    1.424   .     S
C211   H233    1.100   .     S
C211   C212    1.548   .     S
C211   H235    1.109   .     S
C212   C213    1.525   .     S
C212   H236    1.107   .     S
C212   H237    1.107   .     S
C213   H240    1.108   .     S
C213   H238    1.111   .     S
C213   H239    1.110   .     S
C214   C215    1.529   .     S
C214   H241    1.117   .     S
C214   O267    1.415   .     S
C215   C216    1.527   .     S
C215   H244    1.111   .     S
C215   H243    1.112   .     S
C216   H246    1.111   .     S
C216   H248    1.110   .     S
C216   H526    1.110   .     S
C217   C218    1.427   .     A
C217   C1046   1.412   .     S
C217   C1056   1.423   .     S
C218   C222    1.441   .     A
C219   C1054   1.423   1_554 S
C219   C1057   1.410   1_554 S
C220   C221    1.378   .     A
C220   C1038   1.416   .     S
C220   C1056   1.410   .     S
C221   C222    1.416   .     A
C221   H245    1.069   .     S
C222   O266    1.401   .     S
H234   C7      1.086   1_655 S
H242   C28     1.111   1_655 S
H247   C774    1.110   1_545 S
I255   C752    2.142   1_545 S
I256   C474    2.144   .     S
I257   C1038   2.134   .     S
O259   Zn279   1.934   .     S
O259   Zn276   1.952   .     S
O259   Zn277   1.954   .     S
O259   Zn278   1.932   .     S
O260   Zn277   1.944   .     S
O261   Zn279   1.955   .     S
O262   Zn278   1.955   .     S
O263   Zn276   1.945   .     S
O265   C1035   1.386   1_554 S
O268   Zn276   1.924   .     S
O269   Zn279   1.921   .     S
O270   Zn277   1.919   .     S
O271   Zn278   1.929   .     S
O272   Zn279   1.929   .     S
O273   Zn276   1.919   .     S
O274   Zn277   1.923   .     S
O275   Zn278   1.923   .     S
C280   O363    1.272   .     A
C280   O365    1.275   .     A
C280   C286    1.435   .     S
C281   H342    1.081   .     S
C281   C295    1.393   .     A
C281   C312    1.407   .     A
C282   C294    1.384   .     A
C282   H316    1.084   .     S
C282   C295    1.389   .     A
C283   O366    1.281   .     A
C283   C285    1.464   .     S
C283   O364    1.276   .     A
C284   C296    1.424   .     A
C284   C311    1.450   .     A
C284   C293    1.507   .     S
C285   C379    1.336   .     S
C285   O453    1.393   .     S
C286   C471    1.336   1_455 S
C286   H513    1.086   1_455 S
C287   C290    1.446   .     S
C287   C567    1.347   .     S
C287   I627    2.142   .     S
C288   C289    1.419   .     S
C289   O367    1.269   .     A
C289   O361    1.281   .     A
C290   O362    1.266   .     A
C290   O368    1.277   .     A
C291   C296    1.410   .     A
C291   C1139   1.400   .     S
C291   O1195   1.386   .     S
C292   O355    1.271   .     A
C292   C295    1.443   .     S
C292   O353    1.269   .     A
C293   O356    1.277   .     A
C293   O354    1.295   .     A
C294   C1150   1.416   1_554 S
C294   I1187   2.134   1_554 S
C296   O357    1.391   .     S
C297   C298    1.534   .     S
C297   H344    1.110   .     S
C297   O357    1.415   .     S
C297   H343    1.111   .     S
C298   H345    1.112   .     S
C298   H346    1.109   .     S
C298   C578    1.525   .     S
C299   H318    1.108   .     S
C299   H317    1.110   .     S
C299   H347    1.111   .     S
C300   C301    1.529   .     S
C300   O358    1.419   .     S
C300   H320    1.112   .     S
C300   H319    1.112   .     S
C301   H322    1.112   .     S
C301   H321    1.110   .     S
C301   C582    1.527   .     S
C302   I351    2.153   .     S
C302   C1128   1.400   1_554 S
C302   C1147   1.412   1_554 S
C303   H324    1.110   .     S
C303   H323    1.111   .     S
C303   H325    1.111   .     S
C304   O359    1.424   .     S
C304   H326    1.100   .     S
C304   C305    1.548   .     S
C304   H328    1.109   .     S
C305   C306    1.525   .     S
C305   H329    1.107   .     S
C305   H330    1.107   .     S
C306   H333    1.108   .     S
C306   H331    1.111   .     S
C306   H332    1.110   .     S
C307   C308    1.529   .     S
C307   H334    1.117   .     S
C307   O360    1.415   .     S
C307   H521    1.111   1_455 S
C308   C309    1.527   .     S
C308   H337    1.111   .     S
C308   H336    1.112   .     S
C309   H339    1.111   .     S
C309   H341    1.110   .     S
C309   H619    1.110   .     S
C310   C311    1.427   .     A
C310   C1139   1.412   .     S
C310   C1149   1.423   .     S
C311   C315    1.441   .     A
C312   C1147   1.423   1_554 S
C312   C1150   1.410   1_554 S
C313   C314    1.378   .     A
C313   C1131   1.416   .     S
C313   C1149   1.410   .     S
C314   C315    1.416   .     A
C314   H338    1.069   .     S
C315   O359    1.401   .     S
H327   C379    1.086   .     S
H335   C400    1.111   .     S
I349   C567    2.144   .     S
I350   C1131   2.134   .     S
O352   Zn372   1.934   .     S
O352   Zn369   1.952   .     S
O352   Zn370   1.954   .     S
O352   Zn371   1.932   .     S
O353   Zn370   1.944   .     S
O354   Zn372   1.955   .     S
O355   Zn371   1.955   .     S
O356   Zn369   1.945   .     S
O358   C1128   1.386   1_554 S
O360   C471    1.393   1_455 S
O361   Zn369   1.924   .     S
O362   Zn372   1.921   .     S
O363   Zn370   1.919   .     S
O364   Zn371   1.929   .     S
O365   Zn372   1.929   .     S
O366   Zn369   1.919   .     S
O367   Zn370   1.923   .     S
O368   Zn371   1.923   .     S
C373   O456    1.272   .     A
C373   O458    1.275   .     A
C373   C379    1.435   .     S
C374   H435    1.081   .     S
C374   C388    1.393   .     A
C374   C405    1.407   .     A
C375   C387    1.384   .     A
C375   H409    1.084   .     S
C375   C388    1.389   .     A
C376   O459    1.281   .     A
C376   C378    1.464   .     S
C376   O457    1.276   .     A
C377   C389    1.424   .     A
C377   C404    1.450   .     A
C377   C386    1.507   .     S
C378   C472    1.336   .     S
C378   O546    1.393   .     S
C380   C383    1.446   .     S
C380   C660    1.347   .     S
C380   I720    2.142   .     S
C381   C382    1.419   .     S
C382   O460    1.269   .     A
C382   O454    1.281   .     A
C383   O455    1.266   .     A
C383   O461    1.277   .     A
C384   C389    1.410   .     A
C384   C1232   1.400   .     S
C384   O1288   1.386   .     S
C385   O448    1.271   .     A
C385   C388    1.443   .     S
C385   O446    1.269   .     A
C386   O449    1.277   .     A
C386   O447    1.295   .     A
C387   C1243   1.416   1_554 S
C387   I1280   2.134   1_554 S
C389   O450    1.391   .     S
C390   C391    1.534   .     S
C390   H437    1.110   .     S
C390   O450    1.415   .     S
C390   H436    1.111   .     S
C391   H438    1.112   .     S
C391   H439    1.109   .     S
C391   C671    1.525   .     S
C392   H411    1.108   .     S
C392   H410    1.110   .     S
C392   H440    1.111   .     S
C393   C394    1.529   .     S
C393   O451    1.419   .     S
C393   H413    1.112   .     S
C393   H412    1.112   .     S
C394   H415    1.112   .     S
C394   H414    1.110   .     S
C394   C675    1.527   .     S
C395   I444    2.153   .     S
C395   C1221   1.400   1_554 S
C395   C1240   1.412   1_554 S
C396   H417    1.110   .     S
C396   H416    1.111   .     S
C396   H418    1.111   .     S
C397   O452    1.424   .     S
C397   H419    1.100   .     S
C397   C398    1.548   .     S
C397   H421    1.109   .     S
C398   C399    1.525   .     S
C398   H422    1.107   .     S
C398   H423    1.107   .     S
C399   H426    1.108   .     S
C399   H424    1.111   .     S
C399   H425    1.110   .     S
C400   C401    1.529   .     S
C400   H427    1.117   .     S
C400   O453    1.415   .     S
C401   C402    1.527   .     S
C401   H430    1.111   .     S
C401   H429    1.112   .     S
C402   H432    1.111   .     S
C402   H434    1.110   .     S
C402   H712    1.110   .     S
C403   C404    1.427   .     A
C403   C1232   1.412   .     S
C403   C1242   1.423   .     S
C404   C408    1.441   .     A
C405   C1240   1.423   1_554 S
C405   C1243   1.410   1_554 S
C406   C407    1.378   .     A
C406   C1224   1.416   .     S
C406   C1242   1.410   .     S
C407   C408    1.416   .     A
C407   H431    1.069   .     S
C408   O452    1.401   .     S
H420   C472    1.086   .     S
H428   C493    1.111   .     S
I442   C660    2.144   .     S
I443   C1224   2.134   .     S
O445   Zn465   1.934   .     S
O445   Zn462   1.952   .     S
O445   Zn463   1.954   .     S
O445   Zn464   1.932   .     S
O446   Zn463   1.944   .     S
O447   Zn465   1.955   .     S
O448   Zn464   1.955   .     S
O449   Zn462   1.945   .     S
O451   C1221   1.386   1_554 S
O454   Zn462   1.924   .     S
O455   Zn465   1.921   .     S
O456   Zn463   1.919   .     S
O457   Zn464   1.929   .     S
O458   Zn465   1.929   .     S
O459   Zn462   1.919   .     S
O460   Zn463   1.923   .     S
O461   Zn464   1.923   .     S
C466   O549    1.272   .     A
C466   O551    1.275   .     A
C466   C472    1.435   .     S
C467   H528    1.081   .     S
C467   C481    1.393   .     A
C467   C498    1.407   .     A
C468   C480    1.384   .     A
C468   H502    1.084   .     S
C468   C481    1.389   .     A
C469   O552    1.281   .     A
C469   C471    1.464   .     S
C469   O550    1.276   .     A
C470   C482    1.424   .     A
C470   C497    1.450   .     A
C470   C479    1.507   .     S
C471   C286    1.336   1_655 S
C471   O360    1.393   1_655 S
C473   C476    1.446   .     S
C473   C753    1.347   .     S
C473   I813    2.142   .     S
C474   C475    1.419   .     S
C475   O553    1.269   .     A
C475   O547    1.281   .     A
C476   O548    1.266   .     A
C476   O554    1.277   .     A
C477   C482    1.410   .     A
C477   C1325   1.400   .     S
C477   O1381   1.386   .     S
C478   O541    1.271   .     A
C478   C481    1.443   .     S
C478   O539    1.269   .     A
C479   O542    1.277   .     A
C479   O540    1.295   .     A
C480   C1336   1.416   1_554 S
C480   I1373   2.134   1_554 S
C482   O543    1.391   .     S
C483   C484    1.534   .     S
C483   H530    1.110   .     S
C483   O543    1.415   .     S
C483   H529    1.111   .     S
C484   H531    1.112   .     S
C484   H532    1.109   .     S
C484   C764    1.525   .     S
C485   H504    1.108   .     S
C485   H503    1.110   .     S
C485   H533    1.111   .     S
C486   C487    1.529   .     S
C486   O544    1.419   .     S
C486   H506    1.112   .     S
C486   H505    1.112   .     S
C487   H508    1.112   .     S
C487   H507    1.110   .     S
C487   C768    1.527   .     S
C488   I537    2.153   .     S
C488   C1314   1.400   1_554 S
C488   C1333   1.412   1_554 S
C489   H510    1.110   .     S
C489   H509    1.111   .     S
C489   H511    1.111   .     S
C490   O545    1.424   .     S
C490   H512    1.100   .     S
C490   C491    1.548   .     S
C490   H514    1.109   .     S
C491   C492    1.525   .     S
C491   H515    1.107   .     S
C491   H516    1.107   .     S
C492   H519    1.108   .     S
C492   H517    1.111   .     S
C492   H518    1.110   .     S
C493   C494    1.529   .     S
C493   H520    1.117   .     S
C493   O546    1.415   .     S
C494   C495    1.527   .     S
C494   H523    1.111   .     S
C494   H522    1.112   .     S
C495   H525    1.111   .     S
C495   H527    1.110   .     S
C495   H805    1.110   .     S
C496   C497    1.427   .     A
C496   C1325   1.412   .     S
C496   C1335   1.423   .     S
C497   C501    1.441   .     A
C498   C1333   1.423   1_554 S
C498   C1336   1.410   1_554 S
C499   C500    1.378   .     A
C499   C1317   1.416   .     S
C499   C1335   1.410   .     S
C500   C501    1.416   .     A
C500   H524    1.069   .     S
C501   O545    1.401   .     S
H513   C286    1.086   1_655 S
H521   C307    1.111   1_655 S
I535   C753    2.144   .     S
I536   C1317   2.134   .     S
O538   Zn558   1.934   .     S
O538   Zn555   1.952   .     S
O538   Zn556   1.954   .     S
O538   Zn557   1.932   .     S
O539   Zn556   1.944   .     S
O540   Zn558   1.955   .     S
O541   Zn557   1.955   .     S
O542   Zn555   1.945   .     S
O544   C1314   1.386   1_554 S
O547   Zn555   1.924   .     S
O548   Zn558   1.921   .     S
O549   Zn556   1.919   .     S
O550   Zn557   1.929   .     S
O551   Zn558   1.929   .     S
O552   Zn555   1.919   .     S
O553   Zn556   1.923   .     S
O554   Zn557   1.923   .     S
C559   O642    1.272   .     A
C559   O644    1.275   .     A
C559   C565    1.435   .     S
C560   H621    1.081   .     S
C560   C574    1.393   .     A
C560   C591    1.407   .     A
C561   C573    1.384   .     A
C561   H595    1.084   .     S
C561   C574    1.389   .     A
C562   O645    1.281   .     A
C562   C564    1.464   .     S
C562   O643    1.276   .     A
C563   C575    1.424   .     A
C563   C590    1.450   .     A
C563   C572    1.507   .     S
C564   C658    1.336   .     S
C564   O732    1.393   .     S
C565   C750    1.336   1_455 S
C565   H792    1.086   1_455 S
C566   C569    1.446   .     S
C566   C9      1.347   1_565 S
C566   I69     2.142   1_565 S
C567   C568    1.419   .     S
C568   O646    1.269   .     A
C568   O640    1.281   .     A
C569   O641    1.266   .     A
C569   O647    1.277   .     A
C570   C575    1.410   .     A
C570   C1418   1.400   .     S
C570   O1474   1.386   .     S
C571   O634    1.271   .     A
C571   C574    1.443   .     S
C571   O632    1.269   .     A
C572   O635    1.277   .     A
C572   O633    1.295   .     A
C573   C1429   1.416   1_554 S
C573   I1466   2.134   1_554 S
C575   O636    1.391   .     S
C576   C577    1.534   .     S
C576   H623    1.110   .     S
C576   O636    1.415   .     S
C576   H622    1.111   .     S
C577   H624    1.112   .     S
C577   H625    1.109   .     S
C577   C20     1.525   1_565 S
C578   H597    1.108   .     S
C578   H596    1.110   .     S
C578   H626    1.111   .     S
C579   C580    1.529   .     S
C579   O637    1.419   .     S
C579   H599    1.112   .     S
C579   H598    1.112   .     S
C580   H601    1.112   .     S
C580   H600    1.110   .     S
C580   C24     1.527   1_565 S
C581   I630    2.153   .     S
C581   C1407   1.400   1_554 S
C581   C1426   1.412   1_554 S
C582   H603    1.110   .     S
C582   H602    1.111   .     S
C582   H604    1.111   .     S
C583   O638    1.424   .     S
C583   H605    1.100   .     S
C583   C584    1.548   .     S
C583   H607    1.109   .     S
C584   C585    1.525   .     S
C584   H608    1.107   .     S
C584   H609    1.107   .     S
C585   H612    1.108   .     S
C585   H610    1.111   .     S
C585   H611    1.110   .     S
C586   C587    1.529   .     S
C586   H613    1.117   .     S
C586   O639    1.415   .     S
C586   H800    1.111   1_455 S
C587   C588    1.527   .     S
C587   H616    1.111   .     S
C587   H615    1.112   .     S
C588   H618    1.111   .     S
C588   H620    1.110   .     S
C588   H61     1.110   1_565 S
C589   C590    1.427   .     A
C589   C1418   1.412   .     S
C589   C1428   1.423   .     S
C590   C594    1.441   .     A
C591   C1426   1.423   1_554 S
C591   C1429   1.410   1_554 S
C592   C593    1.378   .     A
C592   C1410   1.416   .     S
C592   C1428   1.410   .     S
C593   C594    1.416   .     A
C593   H617    1.069   .     S
C594   O638    1.401   .     S
H606   C658    1.086   .     S
H614   C679    1.111   .     S
I628   C9      2.144   1_565 S
I629   C1410   2.134   .     S
O631   Zn651   1.934   .     S
O631   Zn648   1.952   .     S
O631   Zn649   1.954   .     S
O631   Zn650   1.932   .     S
O632   Zn649   1.944   .     S
O633   Zn651   1.955   .     S
O634   Zn650   1.955   .     S
O635   Zn648   1.945   .     S
O637   C1407   1.386   1_554 S
O639   C750    1.393   1_455 S
O640   Zn648   1.924   .     S
O641   Zn651   1.921   .     S
O642   Zn649   1.919   .     S
O643   Zn650   1.929   .     S
O644   Zn651   1.929   .     S
O645   Zn648   1.919   .     S
O646   Zn649   1.923   .     S
O647   Zn650   1.923   .     S
C652   O735    1.272   .     A
C652   O737    1.275   .     A
C652   C658    1.435   .     S
C653   H714    1.081   .     S
C653   C667    1.393   .     A
C653   C684    1.407   .     A
C654   C666    1.384   .     A
C654   H688    1.084   .     S
C654   C667    1.389   .     A
C655   O738    1.281   .     A
C655   C657    1.464   .     S
C655   O736    1.276   .     A
C656   C668    1.424   .     A
C656   C683    1.450   .     A
C656   C665    1.507   .     S
C657   C751    1.336   .     S
C657   O825    1.393   .     S
C659   C662    1.446   .     S
C659   C102    1.347   1_565 S
C659   I162    2.142   1_565 S
C660   C661    1.419   .     S
C661   O739    1.269   .     A
C661   O733    1.281   .     A
C662   O734    1.266   .     A
C662   O740    1.277   .     A
C663   C668    1.410   .     A
C663   C1511   1.400   .     S
C663   O1567   1.386   .     S
C664   O727    1.271   .     A
C664   C667    1.443   .     S
C664   O725    1.269   .     A
C665   O728    1.277   .     A
C665   O726    1.295   .     A
C666   C1522   1.416   1_554 S
C666   I1559   2.134   1_554 S
C668   O729    1.391   .     S
C669   C670    1.534   .     S
C669   H716    1.110   .     S
C669   O729    1.415   .     S
C669   H715    1.111   .     S
C670   H717    1.112   .     S
C670   H718    1.109   .     S
C670   C113    1.525   1_565 S
C671   H690    1.108   .     S
C671   H689    1.110   .     S
C671   H719    1.111   .     S
C672   C673    1.529   .     S
C672   O730    1.419   .     S
C672   H692    1.112   .     S
C672   H691    1.112   .     S
C673   H694    1.112   .     S
C673   H693    1.110   .     S
C673   C117    1.527   1_565 S
C674   I723    2.153   .     S
C674   C1500   1.400   1_554 S
C674   C1519   1.412   1_554 S
C675   H696    1.110   .     S
C675   H695    1.111   .     S
C675   H697    1.111   .     S
C676   O731    1.424   .     S
C676   H698    1.100   .     S
C676   C677    1.548   .     S
C676   H700    1.109   .     S
C677   C678    1.525   .     S
C677   H701    1.107   .     S
C677   H702    1.107   .     S
C678   H705    1.108   .     S
C678   H703    1.111   .     S
C678   H704    1.110   .     S
C679   C680    1.529   .     S
C679   H706    1.117   .     S
C679   O732    1.415   .     S
C680   C681    1.527   .     S
C680   H709    1.111   .     S
C680   H708    1.112   .     S
C681   H711    1.111   .     S
C681   H713    1.110   .     S
C681   H154    1.110   1_565 S
C682   C683    1.427   .     A
C682   C1511   1.412   .     S
C682   C1521   1.423   .     S
C683   C687    1.441   .     A
C684   C1519   1.423   1_554 S
C684   C1522   1.410   1_554 S
C685   C686    1.378   .     A
C685   C1503   1.416   .     S
C685   C1521   1.410   .     S
C686   C687    1.416   .     A
C686   H710    1.069   .     S
C687   O731    1.401   .     S
H699   C751    1.086   .     S
H707   C772    1.111   .     S
I721   C102    2.144   1_565 S
I722   C1503   2.134   .     S
O724   Zn744   1.934   .     S
O724   Zn741   1.952   .     S
O724   Zn742   1.954   .     S
O724   Zn743   1.932   .     S
O725   Zn742   1.944   .     S
O726   Zn744   1.955   .     S
O727   Zn743   1.955   .     S
O728   Zn741   1.945   .     S
O730   C1500   1.386   1_554 S
O733   Zn741   1.924   .     S
O734   Zn744   1.921   .     S
O735   Zn742   1.919   .     S
O736   Zn743   1.929   .     S
O737   Zn744   1.929   .     S
O738   Zn741   1.919   .     S
O739   Zn742   1.923   .     S
O740   Zn743   1.923   .     S
C745   O828    1.272   .     A
C745   O830    1.275   .     A
C745   C751    1.435   .     S
C746   H807    1.081   .     S
C746   C760    1.393   .     A
C746   C777    1.407   .     A
C747   C759    1.384   .     A
C747   H781    1.084   .     S
C747   C760    1.389   .     A
C748   O831    1.281   .     A
C748   C750    1.464   .     S
C748   O829    1.276   .     A
C749   C761    1.424   .     A
C749   C776    1.450   .     A
C749   C758    1.507   .     S
C750   C565    1.336   1_655 S
C750   O639    1.393   1_655 S
C752   C755    1.446   .     S
C752   C195    1.347   1_565 S
C752   I255    2.142   1_565 S
C753   C754    1.419   .     S
C754   O832    1.269   .     A
C754   O826    1.281   .     A
C755   O827    1.266   .     A
C755   O833    1.277   .     A
C756   C761    1.410   .     A
C756   C1604   1.400   .     S
C756   O1660   1.386   .     S
C757   O820    1.271   .     A
C757   C760    1.443   .     S
C757   O818    1.269   .     A
C758   O821    1.277   .     A
C758   O819    1.295   .     A
C759   C1615   1.416   1_554 S
C759   I1652   2.134   1_554 S
C761   O822    1.391   .     S
C762   C763    1.534   .     S
C762   H809    1.110   .     S
C762   O822    1.415   .     S
C762   H808    1.111   .     S
C763   H810    1.112   .     S
C763   H811    1.109   .     S
C763   C206    1.525   1_565 S
C764   H783    1.108   .     S
C764   H782    1.110   .     S
C764   H812    1.111   .     S
C765   C766    1.529   .     S
C765   O823    1.419   .     S
C765   H785    1.112   .     S
C765   H784    1.112   .     S
C766   H787    1.112   .     S
C766   H786    1.110   .     S
C766   C210    1.527   1_565 S
C767   I816    2.153   .     S
C767   C1593   1.400   1_554 S
C767   C1612   1.412   1_554 S
C768   H789    1.110   .     S
C768   H788    1.111   .     S
C768   H790    1.111   .     S
C769   O824    1.424   .     S
C769   H791    1.100   .     S
C769   C770    1.548   .     S
C769   H793    1.109   .     S
C770   C771    1.525   .     S
C770   H794    1.107   .     S
C770   H795    1.107   .     S
C771   H798    1.108   .     S
C771   H796    1.111   .     S
C771   H797    1.110   .     S
C772   C773    1.529   .     S
C772   H799    1.117   .     S
C772   O825    1.415   .     S
C773   C774    1.527   .     S
C773   H802    1.111   .     S
C773   H801    1.112   .     S
C774   H804    1.111   .     S
C774   H806    1.110   .     S
C774   H247    1.110   1_565 S
C775   C776    1.427   .     A
C775   C1604   1.412   .     S
C775   C1614   1.423   .     S
C776   C780    1.441   .     A
C777   C1612   1.423   1_554 S
C777   C1615   1.410   1_554 S
C778   C779    1.378   .     A
C778   C1596   1.416   .     S
C778   C1614   1.410   .     S
C779   C780    1.416   .     A
C779   H803    1.069   .     S
C780   O824    1.401   .     S
H792   C565    1.086   1_655 S
H800   C586    1.111   1_655 S
I814   C195    2.144   1_565 S
I815   C1596   2.134   .     S
O817   Zn837   1.934   .     S
O817   Zn834   1.952   .     S
O817   Zn835   1.954   .     S
O817   Zn836   1.932   .     S
O818   Zn835   1.944   .     S
O819   Zn837   1.955   .     S
O820   Zn836   1.955   .     S
O821   Zn834   1.945   .     S
O823   C1593   1.386   1_554 S
O826   Zn834   1.924   .     S
O827   Zn837   1.921   .     S
O828   Zn835   1.919   .     S
O829   Zn836   1.929   .     S
O830   Zn837   1.929   .     S
O831   Zn834   1.919   .     S
O832   Zn835   1.923   .     S
O833   Zn836   1.923   .     S
C838   O921    1.272   .     A
C838   O923    1.275   .     A
C838   C844    1.435   .     S
C839   H900    1.081   .     S
C839   C853    1.393   .     A
C839   C870    1.407   .     A
C840   C852    1.384   .     A
C840   H874    1.084   .     S
C840   C853    1.389   .     A
C841   O924    1.281   .     A
C841   C843    1.464   .     S
C841   O922    1.276   .     A
C842   C854    1.424   .     A
C842   C869    1.450   .     A
C842   C851    1.507   .     S
C843   C937    1.336   .     S
C843   O1011   1.393   .     S
C844   C1029   1.336   1_455 S
C844   H1071   1.086   1_455 S
C845   C848    1.446   .     S
C845   C1125   1.347   .     S
C845   I1185   2.142   .     S
C846   C847    1.419   .     S
C846   C1403   1.347   1_545 S
C846   I1465   2.144   1_545 S
C847   O925    1.269   .     A
C847   O919    1.281   .     A
C848   O920    1.266   .     A
C848   O926    1.277   .     A
C849   C854    1.410   .     A
C849   C23     1.400   1_556 S
C849   O79     1.386   1_556 S
C850   O913    1.271   .     A
C850   C853    1.443   .     S
C850   O911    1.269   .     A
C851   O914    1.277   .     A
C851   O912    1.295   .     A
C854   O915    1.391   .     S
C855   C856    1.534   .     S
C855   H902    1.110   .     S
C855   O915    1.415   .     S
C855   H901    1.111   .     S
C856   H903    1.112   .     S
C856   H904    1.109   .     S
C856   C1136   1.525   .     S
C857   H876    1.108   .     S
C857   H875    1.110   .     S
C857   H905    1.111   .     S
C857   C1414   1.525   1_545 S
C858   C859    1.529   .     S
C858   O916    1.419   .     S
C858   H878    1.112   .     S
C858   H877    1.112   .     S
C859   H880    1.112   .     S
C859   H879    1.110   .     S
C859   C1140   1.527   .     S
C860   I909    2.153   .     S
C861   H882    1.110   .     S
C861   H881    1.111   .     S
C861   H883    1.111   .     S
C861   C1417   1.527   1_545 S
C862   O917    1.424   .     S
C862   H884    1.100   .     S
C862   C863    1.548   .     S
C862   H886    1.109   .     S
C863   C864    1.525   .     S
C863   H887    1.107   .     S
C863   H888    1.107   .     S
C864   H891    1.108   .     S
C864   H889    1.111   .     S
C864   H890    1.110   .     S
C865   C866    1.529   .     S
C865   H892    1.117   .     S
C865   O918    1.415   .     S
C865   H1079   1.111   1_455 S
C866   C867    1.527   .     S
C866   H895    1.111   .     S
C866   H894    1.112   .     S
C867   H897    1.111   .     S
C867   H899    1.110   .     S
C867   H1177   1.110   .     S
C868   C869    1.427   .     A
C868   C23     1.412   1_556 S
C868   C33     1.423   1_556 S
C869   C873    1.441   .     A
C871   C872    1.378   .     A
C871   C15     1.416   1_556 S
C871   C33     1.410   1_556 S
C872   C873    1.416   .     A
C872   H896    1.069   .     S
C873   O917    1.401   .     S
H885   C937    1.086   .     S
H893   C958    1.111   .     S
H898   C1425   1.110   1_545 S
I906   C1403   2.142   1_545 S
I907   C1125   2.144   .     S
I908   C15     2.134   1_556 S
O910   Zn930   1.934   .     S
O910   Zn927   1.952   .     S
O910   Zn928   1.954   .     S
O910   Zn929   1.932   .     S
O911   Zn928   1.944   .     S
O912   Zn930   1.955   .     S
O913   Zn929   1.955   .     S
O914   Zn927   1.945   .     S
O918   C1029   1.393   1_455 S
O919   Zn927   1.924   .     S
O920   Zn930   1.921   .     S
O921   Zn928   1.919   .     S
O922   Zn929   1.929   .     S
O923   Zn930   1.929   .     S
O924   Zn927   1.919   .     S
O925   Zn928   1.923   .     S
O926   Zn929   1.923   .     S
C931   O1014   1.272   .     A
C931   O1016   1.275   .     A
C931   C937    1.435   .     S
C932   H993    1.081   .     S
C932   C946    1.393   .     A
C932   C963    1.407   .     A
C933   C945    1.384   .     A
C933   H967    1.084   .     S
C933   C946    1.389   .     A
C934   O1017   1.281   .     A
C934   C936    1.464   .     S
C934   O1015   1.276   .     A
C935   C947    1.424   .     A
C935   C962    1.450   .     A
C935   C944    1.507   .     S
C936   C1030   1.336   .     S
C936   O1104   1.393   .     S
C938   C941    1.446   .     S
C938   C1218   1.347   .     S
C938   I1278   2.142   .     S
C939   C940    1.419   .     S
C939   C1496   1.347   1_545 S
C939   I1558   2.144   1_545 S
C940   O1018   1.269   .     A
C940   O1012   1.281   .     A
C941   O1013   1.266   .     A
C941   O1019   1.277   .     A
C942   C947    1.410   .     A
C942   C116    1.400   1_556 S
C942   O172    1.386   1_556 S
C943   O1006   1.271   .     A
C943   C946    1.443   .     S
C943   O1004   1.269   .     A
C944   O1007   1.277   .     A
C944   O1005   1.295   .     A
C947   O1008   1.391   .     S
C948   C949    1.534   .     S
C948   H995    1.110   .     S
C948   O1008   1.415   .     S
C948   H994    1.111   .     S
C949   H996    1.112   .     S
C949   H997    1.109   .     S
C949   C1229   1.525   .     S
C950   H969    1.108   .     S
C950   H968    1.110   .     S
C950   H998    1.111   .     S
C950   C1507   1.525   1_545 S
C951   C952    1.529   .     S
C951   O1009   1.419   .     S
C951   H971    1.112   .     S
C951   H970    1.112   .     S
C952   H973    1.112   .     S
C952   H972    1.110   .     S
C952   C1233   1.527   .     S
C953   I1002   2.153   .     S
C954   H975    1.110   .     S
C954   H974    1.111   .     S
C954   H976    1.111   .     S
C954   C1510   1.527   1_545 S
C955   O1010   1.424   .     S
C955   H977    1.100   .     S
C955   C956    1.548   .     S
C955   H979    1.109   .     S
C956   C957    1.525   .     S
C956   H980    1.107   .     S
C956   H981    1.107   .     S
C957   H984    1.108   .     S
C957   H982    1.111   .     S
C957   H983    1.110   .     S
C958   C959    1.529   .     S
C958   H985    1.117   .     S
C958   O1011   1.415   .     S
C959   C960    1.527   .     S
C959   H988    1.111   .     S
C959   H987    1.112   .     S
C960   H990    1.111   .     S
C960   H992    1.110   .     S
C960   H1270   1.110   .     S
C961   C962    1.427   .     A
C961   C116    1.412   1_556 S
C961   C126    1.423   1_556 S
C962   C966    1.441   .     A
C964   C965    1.378   .     A
C964   C108    1.416   1_556 S
C964   C126    1.410   1_556 S
C965   C966    1.416   .     A
C965   H989    1.069   .     S
C966   O1010   1.401   .     S
H978   C1030   1.086   .     S
H986   C1051   1.111   .     S
H991   C1518   1.110   1_545 S
I999   C1496   2.142   1_545 S
I1000  C1218   2.144   .     S
I1001  C108    2.134   1_556 S
O1003  Zn1023  1.934   .     S
O1003  Zn1020  1.952   .     S
O1003  Zn1021  1.954   .     S
O1003  Zn1022  1.932   .     S
O1004  Zn1021  1.944   .     S
O1005  Zn1023  1.955   .     S
O1006  Zn1022  1.955   .     S
O1007  Zn1020  1.945   .     S
O1012  Zn1020  1.924   .     S
O1013  Zn1023  1.921   .     S
O1014  Zn1021  1.919   .     S
O1015  Zn1022  1.929   .     S
O1016  Zn1023  1.929   .     S
O1017  Zn1020  1.919   .     S
O1018  Zn1021  1.923   .     S
O1019  Zn1022  1.923   .     S
C1024  O1107   1.272   .     A
C1024  O1109   1.275   .     A
C1024  C1030   1.435   .     S
C1025  H1086   1.081   .     S
C1025  C1039   1.393   .     A
C1025  C1056   1.407   .     A
C1026  C1038   1.384   .     A
C1026  H1060   1.084   .     S
C1026  C1039   1.389   .     A
C1027  O1110   1.281   .     A
C1027  C1029   1.464   .     S
C1027  O1108   1.276   .     A
C1028  C1040   1.424   .     A
C1028  C1055   1.450   .     A
C1028  C1037   1.507   .     S
C1029  C844    1.336   1_655 S
C1029  O918    1.393   1_655 S
C1031  C1034   1.446   .     S
C1031  C1311   1.347   .     S
C1031  I1371   2.142   .     S
C1032  C1033   1.419   .     S
C1032  C1589   1.347   1_545 S
C1032  I1651   2.144   1_545 S
C1033  O1111   1.269   .     A
C1033  O1105   1.281   .     A
C1034  O1106   1.266   .     A
C1034  O1112   1.277   .     A
C1035  C1040   1.410   .     A
C1035  C209    1.400   1_556 S
C1035  O265    1.386   1_556 S
C1036  O1099   1.271   .     A
C1036  C1039   1.443   .     S
C1036  O1097   1.269   .     A
C1037  O1100   1.277   .     A
C1037  O1098   1.295   .     A
C1040  O1101   1.391   .     S
C1041  C1042   1.534   .     S
C1041  H1088   1.110   .     S
C1041  O1101   1.415   .     S
C1041  H1087   1.111   .     S
C1042  H1089   1.112   .     S
C1042  H1090   1.109   .     S
C1042  C1322   1.525   .     S
C1043  H1062   1.108   .     S
C1043  H1061   1.110   .     S
C1043  H1091   1.111   .     S
C1043  C1600   1.525   1_545 S
C1044  C1045   1.529   .     S
C1044  O1102   1.419   .     S
C1044  H1064   1.112   .     S
C1044  H1063   1.112   .     S
C1045  H1066   1.112   .     S
C1045  H1065   1.110   .     S
C1045  C1326   1.527   .     S
C1046  I1095   2.153   .     S
C1047  H1068   1.110   .     S
C1047  H1067   1.111   .     S
C1047  H1069   1.111   .     S
C1047  C1603   1.527   1_545 S
C1048  O1103   1.424   .     S
C1048  H1070   1.100   .     S
C1048  C1049   1.548   .     S
C1048  H1072   1.109   .     S
C1049  C1050   1.525   .     S
C1049  H1073   1.107   .     S
C1049  H1074   1.107   .     S
C1050  H1077   1.108   .     S
C1050  H1075   1.111   .     S
C1050  H1076   1.110   .     S
C1051  C1052   1.529   .     S
C1051  H1078   1.117   .     S
C1051  O1104   1.415   .     S
C1052  C1053   1.527   .     S
C1052  H1081   1.111   .     S
C1052  H1080   1.112   .     S
C1053  H1083   1.111   .     S
C1053  H1085   1.110   .     S
C1053  H1363   1.110   .     S
C1054  C1055   1.427   .     A
C1054  C209    1.412   1_556 S
C1054  C219    1.423   1_556 S
C1055  C1059   1.441   .     A
C1057  C1058   1.378   .     A
C1057  C201    1.416   1_556 S
C1057  C219    1.410   1_556 S
C1058  C1059   1.416   .     A
C1058  H1082   1.069   .     S
C1059  O1103   1.401   .     S
H1071  C844    1.086   1_655 S
H1079  C865    1.111   1_655 S
H1084  C1611   1.110   1_545 S
I1092  C1589   2.142   1_545 S
I1093  C1311   2.144   .     S
I1094  C201    2.134   1_556 S
O1096  Zn1116  1.934   .     S
O1096  Zn1113  1.952   .     S
O1096  Zn1114  1.954   .     S
O1096  Zn1115  1.932   .     S
O1097  Zn1114  1.944   .     S
O1098  Zn1116  1.955   .     S
O1099  Zn1115  1.955   .     S
O1100  Zn1113  1.945   .     S
O1105  Zn1113  1.924   .     S
O1106  Zn1116  1.921   .     S
O1107  Zn1114  1.919   .     S
O1108  Zn1115  1.929   .     S
O1109  Zn1116  1.929   .     S
O1110  Zn1113  1.919   .     S
O1111  Zn1114  1.923   .     S
O1112  Zn1115  1.923   .     S
C1117  O1200   1.272   .     A
C1117  O1202   1.275   .     A
C1117  C1123   1.435   .     S
C1118  H1179   1.081   .     S
C1118  C1132   1.393   .     A
C1118  C1149   1.407   .     A
C1119  C1131   1.384   .     A
C1119  H1153   1.084   .     S
C1119  C1132   1.389   .     A
C1120  O1203   1.281   .     A
C1120  C1122   1.464   .     S
C1120  O1201   1.276   .     A
C1121  C1133   1.424   .     A
C1121  C1148   1.450   .     A
C1121  C1130   1.507   .     S
C1122  C1216   1.336   .     S
C1122  O1290   1.393   .     S
C1123  C1308   1.336   1_455 S
C1123  H1350   1.086   1_455 S
C1124  C1127   1.446   .     S
C1124  C1404   1.347   .     S
C1124  I1464   2.142   .     S
C1125  C1126   1.419   .     S
C1126  O1204   1.269   .     A
C1126  O1198   1.281   .     A
C1127  O1199   1.266   .     A
C1127  O1205   1.277   .     A
C1128  C1133   1.410   .     A
C1128  C302    1.400   1_556 S
C1128  O358    1.386   1_556 S
C1129  O1192   1.271   .     A
C1129  C1132   1.443   .     S
C1129  O1190   1.269   .     A
C1130  O1193   1.277   .     A
C1130  O1191   1.295   .     A
C1133  O1194   1.391   .     S
C1134  C1135   1.534   .     S
C1134  H1181   1.110   .     S
C1134  O1194   1.415   .     S
C1134  H1180   1.111   .     S
C1135  H1182   1.112   .     S
C1135  H1183   1.109   .     S
C1135  C1415   1.525   .     S
C1136  H1155   1.108   .     S
C1136  H1154   1.110   .     S
C1136  H1184   1.111   .     S
C1137  C1138   1.529   .     S
C1137  O1195   1.419   .     S
C1137  H1157   1.112   .     S
C1137  H1156   1.112   .     S
C1138  H1159   1.112   .     S
C1138  H1158   1.110   .     S
C1138  C1419   1.527   .     S
C1139  I1188   2.153   .     S
C1140  H1161   1.110   .     S
C1140  H1160   1.111   .     S
C1140  H1162   1.111   .     S
C1141  O1196   1.424   .     S
C1141  H1163   1.100   .     S
C1141  C1142   1.548   .     S
C1141  H1165   1.109   .     S
C1142  C1143   1.525   .     S
C1142  H1166   1.107   .     S
C1142  H1167   1.107   .     S
C1143  H1170   1.108   .     S
C1143  H1168   1.111   .     S
C1143  H1169   1.110   .     S
C1144  C1145   1.529   .     S
C1144  H1171   1.117   .     S
C1144  O1197   1.415   .     S
C1144  H1358   1.111   1_455 S
C1145  C1146   1.527   .     S
C1145  H1174   1.111   .     S
C1145  H1173   1.112   .     S
C1146  H1176   1.111   .     S
C1146  H1178   1.110   .     S
C1146  H1456   1.110   .     S
C1147  C1148   1.427   .     A
C1147  C302    1.412   1_556 S
C1147  C312    1.423   1_556 S
C1148  C1152   1.441   .     A
C1150  C1151   1.378   .     A
C1150  C294    1.416   1_556 S
C1150  C312    1.410   1_556 S
C1151  C1152   1.416   .     A
C1151  H1175   1.069   .     S
C1152  O1196   1.401   .     S
H1164  C1216   1.086   .     S
H1172  C1237   1.111   .     S
I1186  C1404   2.144   .     S
I1187  C294    2.134   1_556 S
O1189  Zn1209  1.934   .     S
O1189  Zn1206  1.952   .     S
O1189  Zn1207  1.954   .     S
O1189  Zn1208  1.932   .     S
O1190  Zn1207  1.944   .     S
O1191  Zn1209  1.955   .     S
O1192  Zn1208  1.955   .     S
O1193  Zn1206  1.945   .     S
O1197  C1308   1.393   1_455 S
O1198  Zn1206  1.924   .     S
O1199  Zn1209  1.921   .     S
O1200  Zn1207  1.919   .     S
O1201  Zn1208  1.929   .     S
O1202  Zn1209  1.929   .     S
O1203  Zn1206  1.919   .     S
O1204  Zn1207  1.923   .     S
O1205  Zn1208  1.923   .     S
C1210  O1293   1.272   .     A
C1210  O1295   1.275   .     A
C1210  C1216   1.435   .     S
C1211  H1272   1.081   .     S
C1211  C1225   1.393   .     A
C1211  C1242   1.407   .     A
C1212  C1224   1.384   .     A
C1212  H1246   1.084   .     S
C1212  C1225   1.389   .     A
C1213  O1296   1.281   .     A
C1213  C1215   1.464   .     S
C1213  O1294   1.276   .     A
C1214  C1226   1.424   .     A
C1214  C1241   1.450   .     A
C1214  C1223   1.507   .     S
C1215  C1309   1.336   .     S
C1215  O1383   1.393   .     S
C1217  C1220   1.446   .     S
C1217  C1497   1.347   .     S
C1217  I1557   2.142   .     S
C1218  C1219   1.419   .     S
C1219  O1297   1.269   .     A
C1219  O1291   1.281   .     A
C1220  O1292   1.266   .     A
C1220  O1298   1.277   .     A
C1221  C1226   1.410   .     A
C1221  C395    1.400   1_556 S
C1221  O451    1.386   1_556 S
C1222  O1285   1.271   .     A
C1222  C1225   1.443   .     S
C1222  O1283   1.269   .     A
C1223  O1286   1.277   .     A
C1223  O1284   1.295   .     A
C1226  O1287   1.391   .     S
C1227  C1228   1.534   .     S
C1227  H1274   1.110   .     S
C1227  O1287   1.415   .     S
C1227  H1273   1.111   .     S
C1228  H1275   1.112   .     S
C1228  H1276   1.109   .     S
C1228  C1508   1.525   .     S
C1229  H1248   1.108   .     S
C1229  H1247   1.110   .     S
C1229  H1277   1.111   .     S
C1230  C1231   1.529   .     S
C1230  O1288   1.419   .     S
C1230  H1250   1.112   .     S
C1230  H1249   1.112   .     S
C1231  H1252   1.112   .     S
C1231  H1251   1.110   .     S
C1231  C1512   1.527   .     S
C1232  I1281   2.153   .     S
C1233  H1254   1.110   .     S
C1233  H1253   1.111   .     S
C1233  H1255   1.111   .     S
C1234  O1289   1.424   .     S
C1234  H1256   1.100   .     S
C1234  C1235   1.548   .     S
C1234  H1258   1.109   .     S
C1235  C1236   1.525   .     S
C1235  H1259   1.107   .     S
C1235  H1260   1.107   .     S
C1236  H1263   1.108   .     S
C1236  H1261   1.111   .     S
C1236  H1262   1.110   .     S
C1237  C1238   1.529   .     S
C1237  H1264   1.117   .     S
C1237  O1290   1.415   .     S
C1238  C1239   1.527   .     S
C1238  H1267   1.111   .     S
C1238  H1266   1.112   .     S
C1239  H1269   1.111   .     S
C1239  H1271   1.110   .     S
C1239  H1549   1.110   .     S
C1240  C1241   1.427   .     A
C1240  C395    1.412   1_556 S
C1240  C405    1.423   1_556 S
C1241  C1245   1.441   .     A
C1243  C1244   1.378   .     A
C1243  C387    1.416   1_556 S
C1243  C405    1.410   1_556 S
C1244  C1245   1.416   .     A
C1244  H1268   1.069   .     S
C1245  O1289   1.401   .     S
H1257  C1309   1.086   .     S
H1265  C1330   1.111   .     S
I1279  C1497   2.144   .     S
I1280  C387    2.134   1_556 S
O1282  Zn1302  1.934   .     S
O1282  Zn1299  1.952   .     S
O1282  Zn1300  1.954   .     S
O1282  Zn1301  1.932   .     S
O1283  Zn1300  1.944   .     S
O1284  Zn1302  1.955   .     S
O1285  Zn1301  1.955   .     S
O1286  Zn1299  1.945   .     S
O1291  Zn1299  1.924   .     S
O1292  Zn1302  1.921   .     S
O1293  Zn1300  1.919   .     S
O1294  Zn1301  1.929   .     S
O1295  Zn1302  1.929   .     S
O1296  Zn1299  1.919   .     S
O1297  Zn1300  1.923   .     S
O1298  Zn1301  1.923   .     S
C1303  O1386   1.272   .     A
C1303  O1388   1.275   .     A
C1303  C1309   1.435   .     S
C1304  H1365   1.081   .     S
C1304  C1318   1.393   .     A
C1304  C1335   1.407   .     A
C1305  C1317   1.384   .     A
C1305  H1339   1.084   .     S
C1305  C1318   1.389   .     A
C1306  O1389   1.281   .     A
C1306  C1308   1.464   .     S
C1306  O1387   1.276   .     A
C1307  C1319   1.424   .     A
C1307  C1334   1.450   .     A
C1307  C1316   1.507   .     S
C1308  C1123   1.336   1_655 S
C1308  O1197   1.393   1_655 S
C1310  C1313   1.446   .     S
C1310  C1590   1.347   .     S
C1310  I1650   2.142   .     S
C1311  C1312   1.419   .     S
C1312  O1390   1.269   .     A
C1312  O1384   1.281   .     A
C1313  O1385   1.266   .     A
C1313  O1391   1.277   .     A
C1314  C1319   1.410   .     A
C1314  C488    1.400   1_556 S
C1314  O544    1.386   1_556 S
C1315  O1378   1.271   .     A
C1315  C1318   1.443   .     S
C1315  O1376   1.269   .     A
C1316  O1379   1.277   .     A
C1316  O1377   1.295   .     A
C1319  O1380   1.391   .     S
C1320  C1321   1.534   .     S
C1320  H1367   1.110   .     S
C1320  O1380   1.415   .     S
C1320  H1366   1.111   .     S
C1321  H1368   1.112   .     S
C1321  H1369   1.109   .     S
C1321  C1601   1.525   .     S
C1322  H1341   1.108   .     S
C1322  H1340   1.110   .     S
C1322  H1370   1.111   .     S
C1323  C1324   1.529   .     S
C1323  O1381   1.419   .     S
C1323  H1343   1.112   .     S
C1323  H1342   1.112   .     S
C1324  H1345   1.112   .     S
C1324  H1344   1.110   .     S
C1324  C1605   1.527   .     S
C1325  I1374   2.153   .     S
C1326  H1347   1.110   .     S
C1326  H1346   1.111   .     S
C1326  H1348   1.111   .     S
C1327  O1382   1.424   .     S
C1327  H1349   1.100   .     S
C1327  C1328   1.548   .     S
C1327  H1351   1.109   .     S
C1328  C1329   1.525   .     S
C1328  H1352   1.107   .     S
C1328  H1353   1.107   .     S
C1329  H1356   1.108   .     S
C1329  H1354   1.111   .     S
C1329  H1355   1.110   .     S
C1330  C1331   1.529   .     S
C1330  H1357   1.117   .     S
C1330  O1383   1.415   .     S
C1331  C1332   1.527   .     S
C1331  H1360   1.111   .     S
C1331  H1359   1.112   .     S
C1332  H1362   1.111   .     S
C1332  H1364   1.110   .     S
C1332  H1642   1.110   .     S
C1333  C1334   1.427   .     A
C1333  C488    1.412   1_556 S
C1333  C498    1.423   1_556 S
C1334  C1338   1.441   .     A
C1336  C1337   1.378   .     A
C1336  C480    1.416   1_556 S
C1336  C498    1.410   1_556 S
C1337  C1338   1.416   .     A
C1337  H1361   1.069   .     S
C1338  O1382   1.401   .     S
H1350  C1123   1.086   1_655 S
H1358  C1144   1.111   1_655 S
I1372  C1590   2.144   .     S
I1373  C480    2.134   1_556 S
O1375  Zn1395  1.934   .     S
O1375  Zn1392  1.952   .     S
O1375  Zn1393  1.954   .     S
O1375  Zn1394  1.932   .     S
O1376  Zn1393  1.944   .     S
O1377  Zn1395  1.955   .     S
O1378  Zn1394  1.955   .     S
O1379  Zn1392  1.945   .     S
O1384  Zn1392  1.924   .     S
O1385  Zn1395  1.921   .     S
O1386  Zn1393  1.919   .     S
O1387  Zn1394  1.929   .     S
O1388  Zn1395  1.929   .     S
O1389  Zn1392  1.919   .     S
O1390  Zn1393  1.923   .     S
O1391  Zn1394  1.923   .     S
C1396  O1479   1.272   .     A
C1396  O1481   1.275   .     A
C1396  C1402   1.435   .     S
C1397  H1458   1.081   .     S
C1397  C1411   1.393   .     A
C1397  C1428   1.407   .     A
C1398  C1410   1.384   .     A
C1398  H1432   1.084   .     S
C1398  C1411   1.389   .     A
C1399  O1482   1.281   .     A
C1399  C1401   1.464   .     S
C1399  O1480   1.276   .     A
C1400  C1412   1.424   .     A
C1400  C1427   1.450   .     A
C1400  C1409   1.507   .     S
C1401  C1495   1.336   .     S
C1401  O1569   1.393   .     S
C1402  C1587   1.336   1_455 S
C1402  H1629   1.086   1_455 S
C1403  C1406   1.446   .     S
C1403  C846    1.347   1_565 S
C1403  I906    2.142   1_565 S
C1404  C1405   1.419   .     S
C1405  O1483   1.269   .     A
C1405  O1477   1.281   .     A
C1406  O1478   1.266   .     A
C1406  O1484   1.277   .     A
C1407  C1412   1.410   .     A
C1407  C581    1.400   1_556 S
C1407  O637    1.386   1_556 S
C1408  O1471   1.271   .     A
C1408  C1411   1.443   .     S
C1408  O1469   1.269   .     A
C1409  O1472   1.277   .     A
C1409  O1470   1.295   .     A
C1412  O1473   1.391   .     S
C1413  C1414   1.534   .     S
C1413  H1460   1.110   .     S
C1413  O1473   1.415   .     S
C1413  H1459   1.111   .     S
C1414  H1461   1.112   .     S
C1414  H1462   1.109   .     S
C1414  C857    1.525   1_565 S
C1415  H1434   1.108   .     S
C1415  H1433   1.110   .     S
C1415  H1463   1.111   .     S
C1416  C1417   1.529   .     S
C1416  O1474   1.419   .     S
C1416  H1436   1.112   .     S
C1416  H1435   1.112   .     S
C1417  H1438   1.112   .     S
C1417  H1437   1.110   .     S
C1417  C861    1.527   1_565 S
C1418  I1467   2.153   .     S
C1419  H1440   1.110   .     S
C1419  H1439   1.111   .     S
C1419  H1441   1.111   .     S
C1420  O1475   1.424   .     S
C1420  H1442   1.100   .     S
C1420  C1421   1.548   .     S
C1420  H1444   1.109   .     S
C1421  C1422   1.525   .     S
C1421  H1445   1.107   .     S
C1421  H1446   1.107   .     S
C1422  H1449   1.108   .     S
C1422  H1447   1.111   .     S
C1422  H1448   1.110   .     S
C1423  C1424   1.529   .     S
C1423  H1450   1.117   .     S
C1423  O1476   1.415   .     S
C1423  H1637   1.111   1_455 S
C1424  C1425   1.527   .     S
C1424  H1453   1.111   .     S
C1424  H1452   1.112   .     S
C1425  H1455   1.111   .     S
C1425  H1457   1.110   .     S
C1425  H898    1.110   1_565 S
C1426  C1427   1.427   .     A
C1426  C581    1.412   1_556 S
C1426  C591    1.423   1_556 S
C1427  C1431   1.441   .     A
C1429  C1430   1.378   .     A
C1429  C573    1.416   1_556 S
C1429  C591    1.410   1_556 S
C1430  C1431   1.416   .     A
C1430  H1454   1.069   .     S
C1431  O1475   1.401   .     S
H1443  C1495   1.086   .     S
H1451  C1516   1.111   .     S
I1465  C846    2.144   1_565 S
I1466  C573    2.134   1_556 S
O1468  Zn1488  1.934   .     S
O1468  Zn1485  1.952   .     S
O1468  Zn1486  1.954   .     S
O1468  Zn1487  1.932   .     S
O1469  Zn1486  1.944   .     S
O1470  Zn1488  1.955   .     S
O1471  Zn1487  1.955   .     S
O1472  Zn1485  1.945   .     S
O1476  C1587   1.393   1_455 S
O1477  Zn1485  1.924   .     S
O1478  Zn1488  1.921   .     S
O1479  Zn1486  1.919   .     S
O1480  Zn1487  1.929   .     S
O1481  Zn1488  1.929   .     S
O1482  Zn1485  1.919   .     S
O1483  Zn1486  1.923   .     S
O1484  Zn1487  1.923   .     S
C1489  O1572   1.272   .     A
C1489  O1574   1.275   .     A
C1489  C1495   1.435   .     S
C1490  H1551   1.081   .     S
C1490  C1504   1.393   .     A
C1490  C1521   1.407   .     A
C1491  C1503   1.384   .     A
C1491  H1525   1.084   .     S
C1491  C1504   1.389   .     A
C1492  O1575   1.281   .     A
C1492  C1494   1.464   .     S
C1492  O1573   1.276   .     A
C1493  C1505   1.424   .     A
C1493  C1520   1.450   .     A
C1493  C1502   1.507   .     S
C1494  C1588   1.336   .     S
C1494  O1662   1.393   .     S
C1496  C1499   1.446   .     S
C1496  C939    1.347   1_565 S
C1496  I999    2.142   1_565 S
C1497  C1498   1.419   .     S
C1498  O1576   1.269   .     A
C1498  O1570   1.281   .     A
C1499  O1571   1.266   .     A
C1499  O1577   1.277   .     A
C1500  C1505   1.410   .     A
C1500  C674    1.400   1_556 S
C1500  O730    1.386   1_556 S
C1501  O1564   1.271   .     A
C1501  C1504   1.443   .     S
C1501  O1562   1.269   .     A
C1502  O1565   1.277   .     A
C1502  O1563   1.295   .     A
C1505  O1566   1.391   .     S
C1506  C1507   1.534   .     S
C1506  H1553   1.110   .     S
C1506  O1566   1.415   .     S
C1506  H1552   1.111   .     S
C1507  H1554   1.112   .     S
C1507  H1555   1.109   .     S
C1507  C950    1.525   1_565 S
C1508  H1527   1.108   .     S
C1508  H1526   1.110   .     S
C1508  H1556   1.111   .     S
C1509  C1510   1.529   .     S
C1509  O1567   1.419   .     S
C1509  H1529   1.112   .     S
C1509  H1528   1.112   .     S
C1510  H1531   1.112   .     S
C1510  H1530   1.110   .     S
C1510  C954    1.527   1_565 S
C1511  I1560   2.153   .     S
C1512  H1533   1.110   .     S
C1512  H1532   1.111   .     S
C1512  H1534   1.111   .     S
C1513  O1568   1.424   .     S
C1513  H1535   1.100   .     S
C1513  C1514   1.548   .     S
C1513  H1537   1.109   .     S
C1514  C1515   1.525   .     S
C1514  H1538   1.107   .     S
C1514  H1539   1.107   .     S
C1515  H1542   1.108   .     S
C1515  H1540   1.111   .     S
C1515  H1541   1.110   .     S
C1516  C1517   1.529   .     S
C1516  H1543   1.117   .     S
C1516  O1569   1.415   .     S
C1517  C1518   1.527   .     S
C1517  H1546   1.111   .     S
C1517  H1545   1.112   .     S
C1518  H1548   1.111   .     S
C1518  H1550   1.110   .     S
C1518  H991    1.110   1_565 S
C1519  C1520   1.427   .     A
C1519  C674    1.412   1_556 S
C1519  C684    1.423   1_556 S
C1520  C1524   1.441   .     A
C1522  C1523   1.378   .     A
C1522  C666    1.416   1_556 S
C1522  C684    1.410   1_556 S
C1523  C1524   1.416   .     A
C1523  H1547   1.069   .     S
C1524  O1568   1.401   .     S
H1536  C1588   1.086   .     S
H1544  C1609   1.111   .     S
I1558  C939    2.144   1_565 S
I1559  C666    2.134   1_556 S
O1561  Zn1581  1.934   .     S
O1561  Zn1578  1.952   .     S
O1561  Zn1579  1.954   .     S
O1561  Zn1580  1.932   .     S
O1562  Zn1579  1.944   .     S
O1563  Zn1581  1.955   .     S
O1564  Zn1580  1.955   .     S
O1565  Zn1578  1.945   .     S
O1570  Zn1578  1.924   .     S
O1571  Zn1581  1.921   .     S
O1572  Zn1579  1.919   .     S
O1573  Zn1580  1.929   .     S
O1574  Zn1581  1.929   .     S
O1575  Zn1578  1.919   .     S
O1576  Zn1579  1.923   .     S
O1577  Zn1580  1.923   .     S
C1582  O1665   1.272   .     A
C1582  O1667   1.275   .     A
C1582  C1588   1.435   .     S
C1583  H1644   1.081   .     S
C1583  C1597   1.393   .     A
C1583  C1614   1.407   .     A
C1584  C1596   1.384   .     A
C1584  H1618   1.084   .     S
C1584  C1597   1.389   .     A
C1585  O1668   1.281   .     A
C1585  C1587   1.464   .     S
C1585  O1666   1.276   .     A
C1586  C1598   1.424   .     A
C1586  C1613   1.450   .     A
C1586  C1595   1.507   .     S
C1587  C1402   1.336   1_655 S
C1587  O1476   1.393   1_655 S
C1589  C1592   1.446   .     S
C1589  C1032   1.347   1_565 S
C1589  I1092   2.142   1_565 S
C1590  C1591   1.419   .     S
C1591  O1669   1.269   .     A
C1591  O1663   1.281   .     A
C1592  O1664   1.266   .     A
C1592  O1670   1.277   .     A
C1593  C1598   1.410   .     A
C1593  C767    1.400   1_556 S
C1593  O823    1.386   1_556 S
C1594  O1657   1.271   .     A
C1594  C1597   1.443   .     S
C1594  O1655   1.269   .     A
C1595  O1658   1.277   .     A
C1595  O1656   1.295   .     A
C1598  O1659   1.391   .     S
C1599  C1600   1.534   .     S
C1599  H1646   1.110   .     S
C1599  O1659   1.415   .     S
C1599  H1645   1.111   .     S
C1600  H1647   1.112   .     S
C1600  H1648   1.109   .     S
C1600  C1043   1.525   1_565 S
C1601  H1620   1.108   .     S
C1601  H1619   1.110   .     S
C1601  H1649   1.111   .     S
C1602  C1603   1.529   .     S
C1602  O1660   1.419   .     S
C1602  H1622   1.112   .     S
C1602  H1621   1.112   .     S
C1603  H1624   1.112   .     S
C1603  H1623   1.110   .     S
C1603  C1047   1.527   1_565 S
C1604  I1653   2.153   .     S
C1605  H1626   1.110   .     S
C1605  H1625   1.111   .     S
C1605  H1627   1.111   .     S
C1606  O1661   1.424   .     S
C1606  H1628   1.100   .     S
C1606  C1607   1.548   .     S
C1606  H1630   1.109   .     S
C1607  C1608   1.525   .     S
C1607  H1631   1.107   .     S
C1607  H1632   1.107   .     S
C1608  H1635   1.108   .     S
C1608  H1633   1.111   .     S
C1608  H1634   1.110   .     S
C1609  C1610   1.529   .     S
C1609  H1636   1.117   .     S
C1609  O1662   1.415   .     S
C1610  C1611   1.527   .     S
C1610  H1639   1.111   .     S
C1610  H1638   1.112   .     S
C1611  H1641   1.111   .     S
C1611  H1643   1.110   .     S
C1611  H1084   1.110   1_565 S
C1612  C1613   1.427   .     A
C1612  C767    1.412   1_556 S
C1612  C777    1.423   1_556 S
C1613  C1617   1.441   .     A
C1615  C1616   1.378   .     A
C1615  C759    1.416   1_556 S
C1615  C777    1.410   1_556 S
C1616  C1617   1.416   .     A
C1616  H1640   1.069   .     S
C1617  O1661   1.401   .     S
H1629  C1402   1.086   1_655 S
H1637  C1423   1.111   1_655 S
I1651  C1032   2.144   1_565 S
I1652  C759    2.134   1_556 S
O1654  Zn1674  1.934   .     S
O1654  Zn1671  1.952   .     S
O1654  Zn1672  1.954   .     S
O1654  Zn1673  1.932   .     S
O1655  Zn1672  1.944   .     S
O1656  Zn1674  1.955   .     S
O1657  Zn1673  1.955   .     S
O1658  Zn1671  1.945   .     S
O1663  Zn1671  1.924   .     S
O1664  Zn1674  1.921   .     S
O1665  Zn1672  1.919   .     S
O1666  Zn1673  1.929   .     S
O1667  Zn1674  1.929   .     S
O1668  Zn1671  1.919   .     S
O1669  Zn1672  1.923   .     S
O1670  Zn1673  1.923   .     S
