data_str_m3_o1_o10_pcu_sym.155
_audit_creation_date              2020-01-03
_audit_creation_method            'Materials Studio'
_symmetry_space_group_name_H-M    'P1'
_symmetry_Int_Tables_number       1
_symmetry_cell_setting            triclinic
loop_
_symmetry_equiv_pos_as_xyz
  x,y,z
_cell_length_a                    25.8409
_cell_length_b                    31.9975
_cell_length_c                    29.5961
_cell_angle_alpha                 89.6694
_cell_angle_beta                  98.0716
_cell_angle_gamma                 90.3175
loop_
_atom_site_label
_atom_site_type_symbol
_atom_site_fract_x
_atom_site_fract_y
_atom_site_fract_z
_atom_site_U_iso_or_equiv
_atom_site_adp_type
_atom_site_occupancy
C1     C     0.16659   0.08669   0.16673   0.00000  Uiso   1.00
C2     C     0.16674   0.24665   0.16660   0.00000  Uiso   1.00
C3     C     0.06730   0.16608   0.15500   0.00000  Uiso   1.00
C4     C     0.26604   0.16725   0.17833   0.00000  Uiso   1.00
C5     C     0.01303   0.15941   0.15010   0.00000  Uiso   1.00
C6     C     0.32031   0.17393   0.18323   0.00000  Uiso   1.00
C7     C     0.14341   0.02154   0.12782   0.00000  Uiso   1.00
C8     C     0.18993   0.31179   0.20551   0.00000  Uiso   1.00
C9     C     0.14350   0.31203   0.12774   0.00000  Uiso   1.00
C10    C     0.18984   0.02130   0.20560   0.00000  Uiso   1.00
C11    C     0.16682   0.29079   0.16655   0.00000  Uiso   1.00
C12    C     0.16652   0.04255   0.16678   0.00000  Uiso   1.00
C13    C     0.20313   0.18935   0.02820   0.00000  Uiso   1.00
C14    C     0.13021   0.14398   0.30514   0.00000  Uiso   1.00
C15    C     0.20321   0.18892   0.31352   0.00000  Uiso   1.00
C16    C     0.13012   0.14441   0.01981   0.00000  Uiso   1.00
H17    H     0.12488   0.03819   0.09791   0.00000  Uiso   1.00
H18    H     0.20845   0.29514   0.23543   0.00000  Uiso   1.00
H19    H     0.12484   0.29558   0.09786   0.00000  Uiso   1.00
H20    H     0.20849   0.03775   0.23548   0.00000  Uiso   1.00
H21    H     0.23238   0.20662   0.29855   0.00000  Uiso   1.00
H22    H     0.10095   0.12671   0.03478   0.00000  Uiso   1.00
N23    N     0.16665   0.16666   0.28573   0.00000  Uiso   1.00
N24    N     0.16668   0.16668   0.04760   0.00000  Uiso   1.00
O25    O     0.16666   0.10558   0.20487   0.00000  Uiso   1.00
O26    O     0.16667   0.22775   0.12846   0.00000  Uiso   1.00
O27    O     0.16666   0.10559   0.12843   0.00000  Uiso   1.00
O28    O     0.16667   0.22774   0.20490   0.00000  Uiso   1.00
O29    O     0.09058   0.16666   0.19595   0.00000  Uiso   1.00
O30    O     0.24275   0.16667   0.13739   0.00000  Uiso   1.00
O31    O     0.09058   0.16667   0.11950   0.00000  Uiso   1.00
O32    O     0.24275   0.16666   0.21383   0.00000  Uiso   1.00
Zn33   Zn    0.16667   0.16666   0.21771   0.00000  Uiso   1.00
Zn34   Zn    0.16667   0.16667   0.11563   0.00000  Uiso   1.00
N35    N     0.32327   0.13205   0.11461   0.00000  Uiso   1.00
H36    H     0.00467   0.13565   0.08418   0.00000  Uiso   1.00
C37    C     0.32120   0.08862   0.12822   0.00000  Uiso   1.00
H38    H     0.30042   0.07009   0.09957   0.00000  Uiso   1.00
H39    H     0.29961   0.08511   0.15795   0.00000  Uiso   1.00
H40    H     0.02808   0.07610   0.13719   0.00000  Uiso   1.00
N41    N     0.01006   0.20128   0.21872   0.00000  Uiso   1.00
H42    H     0.32867   0.19768   0.24916   0.00000  Uiso   1.00
C43    C     0.01213   0.24472   0.20512   0.00000  Uiso   1.00
H44    H     0.03291   0.26324   0.23377   0.00000  Uiso   1.00
H45    H     0.30526   0.25724   0.19615   0.00000  Uiso   1.00
H46    H     0.03373   0.24822   0.17538   0.00000  Uiso   1.00
N47    N     0.24143   0.21289   0.05640   0.00000  Uiso   1.00
H48    H     0.27900   0.20390   0.05319   0.00000  Uiso   1.00
C49    C     0.23511   0.25769   0.05216   0.00000  Uiso   1.00
H50    H     0.26203   0.27330   0.07955   0.00000  Uiso   1.00
H51    H     0.19444   0.26671   0.05562   0.00000  Uiso   1.00
H52    H     0.24446   0.26868   0.01853   0.00000  Uiso   1.00
N53    N     0.09190   0.12044   0.27694   0.00000  Uiso   1.00
H54    H     0.05433   0.12943   0.28014   0.00000  Uiso   1.00
C55    C     0.09822   0.07564   0.28118   0.00000  Uiso   1.00
H56    H     0.07131   0.06004   0.25378   0.00000  Uiso   1.00
H57    H     0.08887   0.06465   0.31480   0.00000  Uiso   1.00
H58    H     0.13890   0.06662   0.27771   0.00000  Uiso   1.00
C59    C     0.49992   0.08669   0.16673   0.00000  Uiso   1.00
C60    C     0.50008   0.24665   0.16660   0.00000  Uiso   1.00
C61    C     0.40063   0.16608   0.15500   0.00000  Uiso   1.00
C62    C     0.59937   0.16725   0.17833   0.00000  Uiso   1.00
C63    C     0.34636   0.15941   0.15010   0.00000  Uiso   1.00
C64    C     0.65364   0.17393   0.18323   0.00000  Uiso   1.00
C65    C     0.47674   0.02154   0.12782   0.00000  Uiso   1.00
C66    C     0.52326   0.31179   0.20551   0.00000  Uiso   1.00
C67    C     0.47683   0.31203   0.12774   0.00000  Uiso   1.00
C68    C     0.52317   0.02130   0.20560   0.00000  Uiso   1.00
C69    C     0.50015   0.29079   0.16655   0.00000  Uiso   1.00
C70    C     0.49985   0.04255   0.16678   0.00000  Uiso   1.00
C71    C     0.53646   0.18935   0.02820   0.00000  Uiso   1.00
C72    C     0.46354   0.14398   0.30514   0.00000  Uiso   1.00
C73    C     0.53655   0.18892   0.31352   0.00000  Uiso   1.00
C74    C     0.46345   0.14441   0.01981   0.00000  Uiso   1.00
H75    H     0.45821   0.03819   0.09791   0.00000  Uiso   1.00
H76    H     0.54179   0.29514   0.23543   0.00000  Uiso   1.00
H77    H     0.45818   0.29558   0.09786   0.00000  Uiso   1.00
H78    H     0.54182   0.03775   0.23548   0.00000  Uiso   1.00
H79    H     0.56571   0.20662   0.29855   0.00000  Uiso   1.00
H80    H     0.43429   0.12671   0.03478   0.00000  Uiso   1.00
N81    N     0.49999   0.16666   0.28573   0.00000  Uiso   1.00
N82    N     0.50001   0.16668   0.04760   0.00000  Uiso   1.00
O83    O     0.50000   0.10558   0.20487   0.00000  Uiso   1.00
O84    O     0.50000   0.22775   0.12846   0.00000  Uiso   1.00
O85    O     0.50000   0.10559   0.12843   0.00000  Uiso   1.00
O86    O     0.50000   0.22774   0.20490   0.00000  Uiso   1.00
O87    O     0.42392   0.16666   0.19595   0.00000  Uiso   1.00
O88    O     0.57608   0.16667   0.13739   0.00000  Uiso   1.00
O89    O     0.42392   0.16667   0.11950   0.00000  Uiso   1.00
O90    O     0.57608   0.16666   0.21383   0.00000  Uiso   1.00
Zn91   Zn    0.50000   0.16666   0.21771   0.00000  Uiso   1.00
Zn92   Zn    0.50000   0.16667   0.11563   0.00000  Uiso   1.00
N93    N     0.65661   0.13205   0.11461   0.00000  Uiso   1.00
H94    H     0.33800   0.13565   0.08418   0.00000  Uiso   1.00
C95    C     0.65453   0.08862   0.12822   0.00000  Uiso   1.00
H96    H     0.63375   0.07009   0.09957   0.00000  Uiso   1.00
H97    H     0.63294   0.08511   0.15795   0.00000  Uiso   1.00
H98    H     0.36141   0.07610   0.13719   0.00000  Uiso   1.00
N99    N     0.34339   0.20128   0.21872   0.00000  Uiso   1.00
H100   H     0.66200   0.19768   0.24916   0.00000  Uiso   1.00
C101   C     0.34547   0.24472   0.20512   0.00000  Uiso   1.00
H102   H     0.36625   0.26324   0.23377   0.00000  Uiso   1.00
H103   H     0.63859   0.25724   0.19615   0.00000  Uiso   1.00
H104   H     0.36706   0.24822   0.17538   0.00000  Uiso   1.00
N105   N     0.57476   0.21289   0.05640   0.00000  Uiso   1.00
H106   H     0.61234   0.20390   0.05319   0.00000  Uiso   1.00
C107   C     0.56845   0.25769   0.05216   0.00000  Uiso   1.00
H108   H     0.59536   0.27330   0.07955   0.00000  Uiso   1.00
H109   H     0.52777   0.26671   0.05562   0.00000  Uiso   1.00
H110   H     0.57779   0.26868   0.01853   0.00000  Uiso   1.00
N111   N     0.42524   0.12044   0.27694   0.00000  Uiso   1.00
H112   H     0.38766   0.12943   0.28014   0.00000  Uiso   1.00
C113   C     0.43156   0.07564   0.28118   0.00000  Uiso   1.00
H114   H     0.40464   0.06004   0.25378   0.00000  Uiso   1.00
H115   H     0.42220   0.06465   0.31480   0.00000  Uiso   1.00
H116   H     0.47223   0.06662   0.27771   0.00000  Uiso   1.00
C117   C     0.83326   0.08669   0.16673   0.00000  Uiso   1.00
C118   C     0.83341   0.24665   0.16660   0.00000  Uiso   1.00
C119   C     0.73396   0.16608   0.15500   0.00000  Uiso   1.00
C120   C     0.93270   0.16725   0.17833   0.00000  Uiso   1.00
C121   C     0.67969   0.15941   0.15010   0.00000  Uiso   1.00
C122   C     0.98697   0.17393   0.18323   0.00000  Uiso   1.00
C123   C     0.81007   0.02154   0.12782   0.00000  Uiso   1.00
C124   C     0.85659   0.31179   0.20551   0.00000  Uiso   1.00
C125   C     0.81016   0.31203   0.12774   0.00000  Uiso   1.00
C126   C     0.85650   0.02130   0.20560   0.00000  Uiso   1.00
C127   C     0.83348   0.29079   0.16655   0.00000  Uiso   1.00
C128   C     0.83318   0.04255   0.16678   0.00000  Uiso   1.00
C129   C     0.86980   0.18935   0.02820   0.00000  Uiso   1.00
C130   C     0.79687   0.14398   0.30514   0.00000  Uiso   1.00
C131   C     0.86988   0.18892   0.31352   0.00000  Uiso   1.00
C132   C     0.79679   0.14441   0.01981   0.00000  Uiso   1.00
H133   H     0.79155   0.03819   0.09791   0.00000  Uiso   1.00
H134   H     0.87512   0.29514   0.23543   0.00000  Uiso   1.00
H135   H     0.79151   0.29558   0.09786   0.00000  Uiso   1.00
H136   H     0.87516   0.03775   0.23548   0.00000  Uiso   1.00
H137   H     0.89905   0.20662   0.29855   0.00000  Uiso   1.00
H138   H     0.76762   0.12671   0.03478   0.00000  Uiso   1.00
N139   N     0.83332   0.16666   0.28573   0.00000  Uiso   1.00
N140   N     0.83335   0.16668   0.04760   0.00000  Uiso   1.00
O141   O     0.83333   0.10558   0.20487   0.00000  Uiso   1.00
O142   O     0.83334   0.22775   0.12846   0.00000  Uiso   1.00
O143   O     0.83333   0.10559   0.12843   0.00000  Uiso   1.00
O144   O     0.83334   0.22774   0.20490   0.00000  Uiso   1.00
O145   O     0.75725   0.16666   0.19595   0.00000  Uiso   1.00
O146   O     0.90942   0.16667   0.13739   0.00000  Uiso   1.00
O147   O     0.75725   0.16667   0.11950   0.00000  Uiso   1.00
O148   O     0.90942   0.16666   0.21383   0.00000  Uiso   1.00
Zn149  Zn    0.83333   0.16666   0.21771   0.00000  Uiso   1.00
Zn150  Zn    0.83333   0.16667   0.11563   0.00000  Uiso   1.00
N151   N     0.98994   0.13205   0.11461   0.00000  Uiso   1.00
H152   H     0.67133   0.13565   0.08418   0.00000  Uiso   1.00
C153   C     0.98787   0.08862   0.12822   0.00000  Uiso   1.00
H154   H     0.96709   0.07009   0.09957   0.00000  Uiso   1.00
H155   H     0.96627   0.08511   0.15795   0.00000  Uiso   1.00
H156   H     0.69474   0.07610   0.13719   0.00000  Uiso   1.00
N157   N     0.67673   0.20128   0.21872   0.00000  Uiso   1.00
H158   H     0.99533   0.19768   0.24916   0.00000  Uiso   1.00
C159   C     0.67880   0.24472   0.20512   0.00000  Uiso   1.00
H160   H     0.69958   0.26324   0.23377   0.00000  Uiso   1.00
H161   H     0.97192   0.25724   0.19615   0.00000  Uiso   1.00
H162   H     0.70040   0.24822   0.17538   0.00000  Uiso   1.00
N163   N     0.90810   0.21289   0.05640   0.00000  Uiso   1.00
H164   H     0.94567   0.20390   0.05319   0.00000  Uiso   1.00
C165   C     0.90178   0.25769   0.05216   0.00000  Uiso   1.00
H166   H     0.92870   0.27330   0.07955   0.00000  Uiso   1.00
H167   H     0.86111   0.26671   0.05562   0.00000  Uiso   1.00
H168   H     0.91113   0.26868   0.01853   0.00000  Uiso   1.00
N169   N     0.75857   0.12044   0.27694   0.00000  Uiso   1.00
H170   H     0.72100   0.12943   0.28014   0.00000  Uiso   1.00
C171   C     0.76489   0.07564   0.28118   0.00000  Uiso   1.00
H172   H     0.73798   0.06004   0.25378   0.00000  Uiso   1.00
H173   H     0.75554   0.06465   0.31480   0.00000  Uiso   1.00
H174   H     0.80556   0.06662   0.27771   0.00000  Uiso   1.00
C175   C     0.16659   0.42002   0.16673   0.00000  Uiso   1.00
C176   C     0.16674   0.57998   0.16660   0.00000  Uiso   1.00
C177   C     0.06730   0.49941   0.15500   0.00000  Uiso   1.00
C178   C     0.26604   0.50059   0.17833   0.00000  Uiso   1.00
C179   C     0.01303   0.49274   0.15010   0.00000  Uiso   1.00
C180   C     0.32031   0.50726   0.18323   0.00000  Uiso   1.00
C181   C     0.14341   0.35488   0.12782   0.00000  Uiso   1.00
C182   C     0.18993   0.64512   0.20551   0.00000  Uiso   1.00
C183   C     0.14350   0.64537   0.12774   0.00000  Uiso   1.00
C184   C     0.18984   0.35463   0.20560   0.00000  Uiso   1.00
C185   C     0.16682   0.62412   0.16655   0.00000  Uiso   1.00
C186   C     0.16652   0.37588   0.16678   0.00000  Uiso   1.00
C187   C     0.20313   0.52269   0.02820   0.00000  Uiso   1.00
C188   C     0.13021   0.47731   0.30514   0.00000  Uiso   1.00
C189   C     0.20321   0.52226   0.31352   0.00000  Uiso   1.00
C190   C     0.13012   0.47774   0.01981   0.00000  Uiso   1.00
H191   H     0.12488   0.37152   0.09791   0.00000  Uiso   1.00
H192   H     0.20845   0.62848   0.23543   0.00000  Uiso   1.00
H193   H     0.12484   0.62892   0.09786   0.00000  Uiso   1.00
H194   H     0.20849   0.37108   0.23548   0.00000  Uiso   1.00
H195   H     0.23238   0.53996   0.29855   0.00000  Uiso   1.00
H196   H     0.10095   0.46004   0.03478   0.00000  Uiso   1.00
N197   N     0.16665   0.49999   0.28573   0.00000  Uiso   1.00
N198   N     0.16668   0.50001   0.04760   0.00000  Uiso   1.00
O199   O     0.16666   0.43892   0.20487   0.00000  Uiso   1.00
O200   O     0.16667   0.56108   0.12846   0.00000  Uiso   1.00
O201   O     0.16666   0.43893   0.12843   0.00000  Uiso   1.00
O202   O     0.16667   0.56107   0.20490   0.00000  Uiso   1.00
O203   O     0.09058   0.50000   0.19595   0.00000  Uiso   1.00
O204   O     0.24275   0.50000   0.13739   0.00000  Uiso   1.00
O205   O     0.09058   0.50000   0.11950   0.00000  Uiso   1.00
O206   O     0.24275   0.50000   0.21383   0.00000  Uiso   1.00
Zn207  Zn    0.16667   0.49999   0.21771   0.00000  Uiso   1.00
Zn208  Zn    0.16667   0.50001   0.11563   0.00000  Uiso   1.00
N209   N     0.32327   0.46538   0.11461   0.00000  Uiso   1.00
H210   H     0.00467   0.46899   0.08418   0.00000  Uiso   1.00
C211   C     0.32120   0.42195   0.12822   0.00000  Uiso   1.00
H212   H     0.30042   0.40343   0.09957   0.00000  Uiso   1.00
H213   H     0.29961   0.41845   0.15795   0.00000  Uiso   1.00
H214   H     0.02808   0.40943   0.13719   0.00000  Uiso   1.00
N215   N     0.01006   0.53462   0.21872   0.00000  Uiso   1.00
H216   H     0.32867   0.53101   0.24916   0.00000  Uiso   1.00
C217   C     0.01213   0.57805   0.20512   0.00000  Uiso   1.00
H218   H     0.03291   0.59657   0.23377   0.00000  Uiso   1.00
H219   H     0.30526   0.59057   0.19615   0.00000  Uiso   1.00
H220   H     0.03373   0.58155   0.17538   0.00000  Uiso   1.00
N221   N     0.24143   0.54623   0.05640   0.00000  Uiso   1.00
H222   H     0.27900   0.53724   0.05319   0.00000  Uiso   1.00
C223   C     0.23511   0.59103   0.05216   0.00000  Uiso   1.00
H224   H     0.26203   0.60663   0.07955   0.00000  Uiso   1.00
H225   H     0.19444   0.60004   0.05562   0.00000  Uiso   1.00
H226   H     0.24446   0.60202   0.01853   0.00000  Uiso   1.00
N227   N     0.09190   0.45377   0.27694   0.00000  Uiso   1.00
H228   H     0.05433   0.46276   0.28014   0.00000  Uiso   1.00
C229   C     0.09822   0.40897   0.28118   0.00000  Uiso   1.00
H230   H     0.07131   0.39337   0.25378   0.00000  Uiso   1.00
H231   H     0.08887   0.39798   0.31480   0.00000  Uiso   1.00
H232   H     0.13890   0.39996   0.27771   0.00000  Uiso   1.00
C233   C     0.49992   0.42002   0.16673   0.00000  Uiso   1.00
C234   C     0.50008   0.57998   0.16660   0.00000  Uiso   1.00
C235   C     0.40063   0.49941   0.15500   0.00000  Uiso   1.00
C236   C     0.59937   0.50059   0.17833   0.00000  Uiso   1.00
C237   C     0.34636   0.49274   0.15010   0.00000  Uiso   1.00
C238   C     0.65364   0.50726   0.18323   0.00000  Uiso   1.00
C239   C     0.47674   0.35488   0.12782   0.00000  Uiso   1.00
C240   C     0.52326   0.64512   0.20551   0.00000  Uiso   1.00
C241   C     0.47683   0.64537   0.12774   0.00000  Uiso   1.00
C242   C     0.52317   0.35463   0.20560   0.00000  Uiso   1.00
C243   C     0.50015   0.62412   0.16655   0.00000  Uiso   1.00
C244   C     0.49985   0.37588   0.16678   0.00000  Uiso   1.00
C245   C     0.53646   0.52269   0.02820   0.00000  Uiso   1.00
C246   C     0.46354   0.47731   0.30514   0.00000  Uiso   1.00
C247   C     0.53655   0.52226   0.31352   0.00000  Uiso   1.00
C248   C     0.46345   0.47774   0.01981   0.00000  Uiso   1.00
H249   H     0.45821   0.37152   0.09791   0.00000  Uiso   1.00
H250   H     0.54179   0.62848   0.23543   0.00000  Uiso   1.00
H251   H     0.45818   0.62892   0.09786   0.00000  Uiso   1.00
H252   H     0.54182   0.37108   0.23548   0.00000  Uiso   1.00
H253   H     0.56571   0.53996   0.29855   0.00000  Uiso   1.00
H254   H     0.43429   0.46004   0.03478   0.00000  Uiso   1.00
N255   N     0.49999   0.49999   0.28573   0.00000  Uiso   1.00
N256   N     0.50001   0.50001   0.04760   0.00000  Uiso   1.00
O257   O     0.50000   0.43892   0.20487   0.00000  Uiso   1.00
O258   O     0.50000   0.56108   0.12846   0.00000  Uiso   1.00
O259   O     0.50000   0.43893   0.12843   0.00000  Uiso   1.00
O260   O     0.50000   0.56107   0.20490   0.00000  Uiso   1.00
O261   O     0.42392   0.50000   0.19595   0.00000  Uiso   1.00
O262   O     0.57608   0.50000   0.13739   0.00000  Uiso   1.00
O263   O     0.42392   0.50000   0.11950   0.00000  Uiso   1.00
O264   O     0.57608   0.50000   0.21383   0.00000  Uiso   1.00
Zn265  Zn    0.50000   0.49999   0.21771   0.00000  Uiso   1.00
Zn266  Zn    0.50000   0.50001   0.11563   0.00000  Uiso   1.00
N267   N     0.65661   0.46538   0.11461   0.00000  Uiso   1.00
H268   H     0.33800   0.46899   0.08418   0.00000  Uiso   1.00
C269   C     0.65453   0.42195   0.12822   0.00000  Uiso   1.00
H270   H     0.63375   0.40343   0.09957   0.00000  Uiso   1.00
H271   H     0.63294   0.41845   0.15795   0.00000  Uiso   1.00
H272   H     0.36141   0.40943   0.13719   0.00000  Uiso   1.00
N273   N     0.34339   0.53462   0.21872   0.00000  Uiso   1.00
H274   H     0.66200   0.53101   0.24916   0.00000  Uiso   1.00
C275   C     0.34547   0.57805   0.20512   0.00000  Uiso   1.00
H276   H     0.36625   0.59657   0.23377   0.00000  Uiso   1.00
H277   H     0.63859   0.59057   0.19615   0.00000  Uiso   1.00
H278   H     0.36706   0.58155   0.17538   0.00000  Uiso   1.00
N279   N     0.57476   0.54623   0.05640   0.00000  Uiso   1.00
H280   H     0.61234   0.53724   0.05319   0.00000  Uiso   1.00
C281   C     0.56845   0.59103   0.05216   0.00000  Uiso   1.00
H282   H     0.59536   0.60663   0.07955   0.00000  Uiso   1.00
H283   H     0.52777   0.60004   0.05562   0.00000  Uiso   1.00
H284   H     0.57779   0.60202   0.01853   0.00000  Uiso   1.00
N285   N     0.42524   0.45377   0.27694   0.00000  Uiso   1.00
H286   H     0.38766   0.46276   0.28014   0.00000  Uiso   1.00
C287   C     0.43156   0.40897   0.28118   0.00000  Uiso   1.00
H288   H     0.40464   0.39337   0.25378   0.00000  Uiso   1.00
H289   H     0.42220   0.39798   0.31480   0.00000  Uiso   1.00
H290   H     0.47223   0.39996   0.27771   0.00000  Uiso   1.00
C291   C     0.83326   0.42002   0.16673   0.00000  Uiso   1.00
C292   C     0.83341   0.57998   0.16660   0.00000  Uiso   1.00
C293   C     0.73396   0.49941   0.15500   0.00000  Uiso   1.00
C294   C     0.93270   0.50059   0.17833   0.00000  Uiso   1.00
C295   C     0.67969   0.49274   0.15010   0.00000  Uiso   1.00
C296   C     0.98697   0.50726   0.18323   0.00000  Uiso   1.00
C297   C     0.81007   0.35488   0.12782   0.00000  Uiso   1.00
C298   C     0.85659   0.64512   0.20551   0.00000  Uiso   1.00
C299   C     0.81016   0.64537   0.12774   0.00000  Uiso   1.00
C300   C     0.85650   0.35463   0.20560   0.00000  Uiso   1.00
C301   C     0.83348   0.62412   0.16655   0.00000  Uiso   1.00
C302   C     0.83318   0.37588   0.16678   0.00000  Uiso   1.00
C303   C     0.86980   0.52269   0.02820   0.00000  Uiso   1.00
C304   C     0.79687   0.47731   0.30514   0.00000  Uiso   1.00
C305   C     0.86988   0.52226   0.31352   0.00000  Uiso   1.00
C306   C     0.79679   0.47774   0.01981   0.00000  Uiso   1.00
H307   H     0.79155   0.37152   0.09791   0.00000  Uiso   1.00
H308   H     0.87512   0.62848   0.23543   0.00000  Uiso   1.00
H309   H     0.79151   0.62892   0.09786   0.00000  Uiso   1.00
H310   H     0.87516   0.37108   0.23548   0.00000  Uiso   1.00
H311   H     0.89905   0.53996   0.29855   0.00000  Uiso   1.00
H312   H     0.76762   0.46004   0.03478   0.00000  Uiso   1.00
N313   N     0.83332   0.49999   0.28573   0.00000  Uiso   1.00
N314   N     0.83335   0.50001   0.04760   0.00000  Uiso   1.00
O315   O     0.83333   0.43892   0.20487   0.00000  Uiso   1.00
O316   O     0.83334   0.56108   0.12846   0.00000  Uiso   1.00
O317   O     0.83333   0.43893   0.12843   0.00000  Uiso   1.00
O318   O     0.83334   0.56107   0.20490   0.00000  Uiso   1.00
O319   O     0.75725   0.50000   0.19595   0.00000  Uiso   1.00
O320   O     0.90942   0.50000   0.13739   0.00000  Uiso   1.00
O321   O     0.75725   0.50000   0.11950   0.00000  Uiso   1.00
O322   O     0.90942   0.50000   0.21383   0.00000  Uiso   1.00
Zn323  Zn    0.83333   0.49999   0.21771   0.00000  Uiso   1.00
Zn324  Zn    0.83333   0.50001   0.11563   0.00000  Uiso   1.00
N325   N     0.98994   0.46538   0.11461   0.00000  Uiso   1.00
H326   H     0.67133   0.46899   0.08418   0.00000  Uiso   1.00
C327   C     0.98787   0.42195   0.12822   0.00000  Uiso   1.00
H328   H     0.96709   0.40343   0.09957   0.00000  Uiso   1.00
H329   H     0.96627   0.41845   0.15795   0.00000  Uiso   1.00
H330   H     0.69474   0.40943   0.13719   0.00000  Uiso   1.00
N331   N     0.67673   0.53462   0.21872   0.00000  Uiso   1.00
H332   H     0.99533   0.53101   0.24916   0.00000  Uiso   1.00
C333   C     0.67880   0.57805   0.20512   0.00000  Uiso   1.00
H334   H     0.69958   0.59657   0.23377   0.00000  Uiso   1.00
H335   H     0.97192   0.59057   0.19615   0.00000  Uiso   1.00
H336   H     0.70040   0.58155   0.17538   0.00000  Uiso   1.00
N337   N     0.90810   0.54623   0.05640   0.00000  Uiso   1.00
H338   H     0.94567   0.53724   0.05319   0.00000  Uiso   1.00
C339   C     0.90178   0.59103   0.05216   0.00000  Uiso   1.00
H340   H     0.92870   0.60663   0.07955   0.00000  Uiso   1.00
H341   H     0.86111   0.60004   0.05562   0.00000  Uiso   1.00
H342   H     0.91113   0.60202   0.01853   0.00000  Uiso   1.00
N343   N     0.75857   0.45377   0.27694   0.00000  Uiso   1.00
H344   H     0.72100   0.46276   0.28014   0.00000  Uiso   1.00
C345   C     0.76489   0.40897   0.28118   0.00000  Uiso   1.00
H346   H     0.73798   0.39337   0.25378   0.00000  Uiso   1.00
H347   H     0.75554   0.39798   0.31480   0.00000  Uiso   1.00
H348   H     0.80556   0.39996   0.27771   0.00000  Uiso   1.00
C349   C     0.16659   0.75335   0.16673   0.00000  Uiso   1.00
C350   C     0.16674   0.91331   0.16660   0.00000  Uiso   1.00
C351   C     0.06730   0.83274   0.15500   0.00000  Uiso   1.00
C352   C     0.26604   0.83392   0.17833   0.00000  Uiso   1.00
C353   C     0.01303   0.82607   0.15010   0.00000  Uiso   1.00
C354   C     0.32031   0.84059   0.18323   0.00000  Uiso   1.00
C355   C     0.14341   0.68821   0.12782   0.00000  Uiso   1.00
C356   C     0.18993   0.97846   0.20551   0.00000  Uiso   1.00
C357   C     0.14350   0.97870   0.12774   0.00000  Uiso   1.00
C358   C     0.18984   0.68797   0.20560   0.00000  Uiso   1.00
C359   C     0.16682   0.95745   0.16655   0.00000  Uiso   1.00
C360   C     0.16652   0.70921   0.16678   0.00000  Uiso   1.00
C361   C     0.20313   0.85602   0.02820   0.00000  Uiso   1.00
C362   C     0.13021   0.81065   0.30514   0.00000  Uiso   1.00
C363   C     0.20321   0.85559   0.31352   0.00000  Uiso   1.00
C364   C     0.13012   0.81108   0.01981   0.00000  Uiso   1.00
H365   H     0.12488   0.70486   0.09791   0.00000  Uiso   1.00
H366   H     0.20845   0.96181   0.23543   0.00000  Uiso   1.00
H367   H     0.12484   0.96225   0.09786   0.00000  Uiso   1.00
H368   H     0.20849   0.70442   0.23548   0.00000  Uiso   1.00
H369   H     0.23238   0.87329   0.29855   0.00000  Uiso   1.00
H370   H     0.10095   0.79338   0.03478   0.00000  Uiso   1.00
N371   N     0.16665   0.83332   0.28573   0.00000  Uiso   1.00
N372   N     0.16668   0.83334   0.04760   0.00000  Uiso   1.00
O373   O     0.16666   0.77225   0.20487   0.00000  Uiso   1.00
O374   O     0.16667   0.89442   0.12846   0.00000  Uiso   1.00
O375   O     0.16666   0.77226   0.12843   0.00000  Uiso   1.00
O376   O     0.16667   0.89441   0.20490   0.00000  Uiso   1.00
O377   O     0.09058   0.83333   0.19595   0.00000  Uiso   1.00
O378   O     0.24275   0.83334   0.13739   0.00000  Uiso   1.00
O379   O     0.09058   0.83334   0.11950   0.00000  Uiso   1.00
O380   O     0.24275   0.83333   0.21383   0.00000  Uiso   1.00
Zn381  Zn    0.16667   0.83333   0.21771   0.00000  Uiso   1.00
Zn382  Zn    0.16667   0.83334   0.11563   0.00000  Uiso   1.00
N383   N     0.32327   0.79872   0.11461   0.00000  Uiso   1.00
H384   H     0.00467   0.80232   0.08418   0.00000  Uiso   1.00
C385   C     0.32120   0.75528   0.12822   0.00000  Uiso   1.00
H386   H     0.30042   0.73676   0.09957   0.00000  Uiso   1.00
H387   H     0.29961   0.75178   0.15795   0.00000  Uiso   1.00
H388   H     0.02808   0.74276   0.13719   0.00000  Uiso   1.00
N389   N     0.01006   0.86795   0.21872   0.00000  Uiso   1.00
H390   H     0.32867   0.86435   0.24916   0.00000  Uiso   1.00
C391   C     0.01213   0.91138   0.20512   0.00000  Uiso   1.00
H392   H     0.03291   0.92991   0.23377   0.00000  Uiso   1.00
H393   H     0.30526   0.92390   0.19615   0.00000  Uiso   1.00
H394   H     0.03373   0.91489   0.17538   0.00000  Uiso   1.00
N395   N     0.24143   0.87956   0.05640   0.00000  Uiso   1.00
H396   H     0.27900   0.87057   0.05319   0.00000  Uiso   1.00
C397   C     0.23511   0.92436   0.05216   0.00000  Uiso   1.00
H398   H     0.26203   0.93996   0.07955   0.00000  Uiso   1.00
H399   H     0.19444   0.93338   0.05562   0.00000  Uiso   1.00
H400   H     0.24446   0.93535   0.01853   0.00000  Uiso   1.00
N401   N     0.09190   0.78711   0.27694   0.00000  Uiso   1.00
H402   H     0.05433   0.79610   0.28014   0.00000  Uiso   1.00
C403   C     0.09822   0.74231   0.28118   0.00000  Uiso   1.00
H404   H     0.07131   0.72670   0.25378   0.00000  Uiso   1.00
H405   H     0.08887   0.73132   0.31480   0.00000  Uiso   1.00
H406   H     0.13890   0.73329   0.27771   0.00000  Uiso   1.00
C407   C     0.49992   0.75335   0.16673   0.00000  Uiso   1.00
C408   C     0.50008   0.91331   0.16660   0.00000  Uiso   1.00
C409   C     0.40063   0.83274   0.15500   0.00000  Uiso   1.00
C410   C     0.59937   0.83392   0.17833   0.00000  Uiso   1.00
C411   C     0.34636   0.82607   0.15010   0.00000  Uiso   1.00
C412   C     0.65364   0.84059   0.18323   0.00000  Uiso   1.00
C413   C     0.47674   0.68821   0.12782   0.00000  Uiso   1.00
C414   C     0.52326   0.97846   0.20551   0.00000  Uiso   1.00
C415   C     0.47683   0.97870   0.12774   0.00000  Uiso   1.00
C416   C     0.52317   0.68797   0.20560   0.00000  Uiso   1.00
C417   C     0.50015   0.95745   0.16655   0.00000  Uiso   1.00
C418   C     0.49985   0.70921   0.16678   0.00000  Uiso   1.00
C419   C     0.53646   0.85602   0.02820   0.00000  Uiso   1.00
C420   C     0.46354   0.81065   0.30514   0.00000  Uiso   1.00
C421   C     0.53655   0.85559   0.31352   0.00000  Uiso   1.00
C422   C     0.46345   0.81108   0.01981   0.00000  Uiso   1.00
H423   H     0.45821   0.70486   0.09791   0.00000  Uiso   1.00
H424   H     0.54179   0.96181   0.23543   0.00000  Uiso   1.00
H425   H     0.45818   0.96225   0.09786   0.00000  Uiso   1.00
H426   H     0.54182   0.70442   0.23548   0.00000  Uiso   1.00
H427   H     0.56571   0.87329   0.29855   0.00000  Uiso   1.00
H428   H     0.43429   0.79338   0.03478   0.00000  Uiso   1.00
N429   N     0.49999   0.83332   0.28573   0.00000  Uiso   1.00
N430   N     0.50001   0.83334   0.04760   0.00000  Uiso   1.00
O431   O     0.50000   0.77225   0.20487   0.00000  Uiso   1.00
O432   O     0.50000   0.89442   0.12846   0.00000  Uiso   1.00
O433   O     0.50000   0.77226   0.12843   0.00000  Uiso   1.00
O434   O     0.50000   0.89441   0.20490   0.00000  Uiso   1.00
O435   O     0.42392   0.83333   0.19595   0.00000  Uiso   1.00
O436   O     0.57608   0.83334   0.13739   0.00000  Uiso   1.00
O437   O     0.42392   0.83334   0.11950   0.00000  Uiso   1.00
O438   O     0.57608   0.83333   0.21383   0.00000  Uiso   1.00
Zn439  Zn    0.50000   0.83333   0.21771   0.00000  Uiso   1.00
Zn440  Zn    0.50000   0.83334   0.11563   0.00000  Uiso   1.00
N441   N     0.65661   0.79872   0.11461   0.00000  Uiso   1.00
H442   H     0.33800   0.80232   0.08418   0.00000  Uiso   1.00
C443   C     0.65453   0.75528   0.12822   0.00000  Uiso   1.00
H444   H     0.63375   0.73676   0.09957   0.00000  Uiso   1.00
H445   H     0.63294   0.75178   0.15795   0.00000  Uiso   1.00
H446   H     0.36141   0.74276   0.13719   0.00000  Uiso   1.00
N447   N     0.34339   0.86795   0.21872   0.00000  Uiso   1.00
H448   H     0.66200   0.86435   0.24916   0.00000  Uiso   1.00
C449   C     0.34547   0.91138   0.20512   0.00000  Uiso   1.00
H450   H     0.36625   0.92991   0.23377   0.00000  Uiso   1.00
H451   H     0.63859   0.92390   0.19615   0.00000  Uiso   1.00
H452   H     0.36706   0.91489   0.17538   0.00000  Uiso   1.00
N453   N     0.57476   0.87956   0.05640   0.00000  Uiso   1.00
H454   H     0.61234   0.87057   0.05319   0.00000  Uiso   1.00
C455   C     0.56845   0.92436   0.05216   0.00000  Uiso   1.00
H456   H     0.59536   0.93996   0.07955   0.00000  Uiso   1.00
H457   H     0.52777   0.93338   0.05562   0.00000  Uiso   1.00
H458   H     0.57779   0.93535   0.01853   0.00000  Uiso   1.00
N459   N     0.42524   0.78711   0.27694   0.00000  Uiso   1.00
H460   H     0.38766   0.79610   0.28014   0.00000  Uiso   1.00
C461   C     0.43156   0.74231   0.28118   0.00000  Uiso   1.00
H462   H     0.40464   0.72670   0.25378   0.00000  Uiso   1.00
H463   H     0.42220   0.73132   0.31480   0.00000  Uiso   1.00
H464   H     0.47223   0.73329   0.27771   0.00000  Uiso   1.00
C465   C     0.83326   0.75335   0.16673   0.00000  Uiso   1.00
C466   C     0.83341   0.91331   0.16660   0.00000  Uiso   1.00
C467   C     0.73396   0.83274   0.15500   0.00000  Uiso   1.00
C468   C     0.93270   0.83392   0.17833   0.00000  Uiso   1.00
C469   C     0.67969   0.82607   0.15010   0.00000  Uiso   1.00
C470   C     0.98697   0.84059   0.18323   0.00000  Uiso   1.00
C471   C     0.81007   0.68821   0.12782   0.00000  Uiso   1.00
C472   C     0.85659   0.97846   0.20551   0.00000  Uiso   1.00
C473   C     0.81016   0.97870   0.12774   0.00000  Uiso   1.00
C474   C     0.85650   0.68797   0.20560   0.00000  Uiso   1.00
C475   C     0.83348   0.95745   0.16655   0.00000  Uiso   1.00
C476   C     0.83318   0.70921   0.16678   0.00000  Uiso   1.00
C477   C     0.86980   0.85602   0.02820   0.00000  Uiso   1.00
C478   C     0.79687   0.81065   0.30514   0.00000  Uiso   1.00
C479   C     0.86988   0.85559   0.31352   0.00000  Uiso   1.00
C480   C     0.79679   0.81108   0.01981   0.00000  Uiso   1.00
H481   H     0.79155   0.70486   0.09791   0.00000  Uiso   1.00
H482   H     0.87512   0.96181   0.23543   0.00000  Uiso   1.00
H483   H     0.79151   0.96225   0.09786   0.00000  Uiso   1.00
H484   H     0.87516   0.70442   0.23548   0.00000  Uiso   1.00
H485   H     0.89905   0.87329   0.29855   0.00000  Uiso   1.00
H486   H     0.76762   0.79338   0.03478   0.00000  Uiso   1.00
N487   N     0.83332   0.83332   0.28573   0.00000  Uiso   1.00
N488   N     0.83335   0.83334   0.04760   0.00000  Uiso   1.00
O489   O     0.83333   0.77225   0.20487   0.00000  Uiso   1.00
O490   O     0.83334   0.89442   0.12846   0.00000  Uiso   1.00
O491   O     0.83333   0.77226   0.12843   0.00000  Uiso   1.00
O492   O     0.83334   0.89441   0.20490   0.00000  Uiso   1.00
O493   O     0.75725   0.83333   0.19595   0.00000  Uiso   1.00
O494   O     0.90942   0.83334   0.13739   0.00000  Uiso   1.00
O495   O     0.75725   0.83334   0.11950   0.00000  Uiso   1.00
O496   O     0.90942   0.83333   0.21383   0.00000  Uiso   1.00
Zn497  Zn    0.83333   0.83333   0.21771   0.00000  Uiso   1.00
Zn498  Zn    0.83333   0.83334   0.11563   0.00000  Uiso   1.00
N499   N     0.98994   0.79872   0.11461   0.00000  Uiso   1.00
H500   H     0.67133   0.80232   0.08418   0.00000  Uiso   1.00
C501   C     0.98787   0.75528   0.12822   0.00000  Uiso   1.00
H502   H     0.96709   0.73676   0.09957   0.00000  Uiso   1.00
H503   H     0.96627   0.75178   0.15795   0.00000  Uiso   1.00
H504   H     0.69474   0.74276   0.13719   0.00000  Uiso   1.00
N505   N     0.67673   0.86795   0.21872   0.00000  Uiso   1.00
H506   H     0.99533   0.86435   0.24916   0.00000  Uiso   1.00
C507   C     0.67880   0.91138   0.20512   0.00000  Uiso   1.00
H508   H     0.69958   0.92991   0.23377   0.00000  Uiso   1.00
H509   H     0.97192   0.92390   0.19615   0.00000  Uiso   1.00
H510   H     0.70040   0.91489   0.17538   0.00000  Uiso   1.00
N511   N     0.90810   0.87956   0.05640   0.00000  Uiso   1.00
H512   H     0.94567   0.87057   0.05319   0.00000  Uiso   1.00
C513   C     0.90178   0.92436   0.05216   0.00000  Uiso   1.00
H514   H     0.92870   0.93996   0.07955   0.00000  Uiso   1.00
H515   H     0.86111   0.93338   0.05562   0.00000  Uiso   1.00
H516   H     0.91113   0.93535   0.01853   0.00000  Uiso   1.00
N517   N     0.75857   0.78711   0.27694   0.00000  Uiso   1.00
H518   H     0.72100   0.79610   0.28014   0.00000  Uiso   1.00
C519   C     0.76489   0.74231   0.28118   0.00000  Uiso   1.00
H520   H     0.73798   0.72670   0.25378   0.00000  Uiso   1.00
H521   H     0.75554   0.73132   0.31480   0.00000  Uiso   1.00
H522   H     0.80556   0.73329   0.27771   0.00000  Uiso   1.00
C523   C     0.16659   0.08669   0.50006   0.00000  Uiso   1.00
C524   C     0.16674   0.24665   0.49994   0.00000  Uiso   1.00
C525   C     0.06730   0.16608   0.48834   0.00000  Uiso   1.00
C526   C     0.26604   0.16725   0.51166   0.00000  Uiso   1.00
C527   C     0.01303   0.15941   0.48344   0.00000  Uiso   1.00
C528   C     0.32031   0.17393   0.51656   0.00000  Uiso   1.00
C529   C     0.14341   0.02154   0.46116   0.00000  Uiso   1.00
C530   C     0.18993   0.31179   0.53884   0.00000  Uiso   1.00
C531   C     0.14350   0.31203   0.46107   0.00000  Uiso   1.00
C532   C     0.18984   0.02130   0.53893   0.00000  Uiso   1.00
C533   C     0.16682   0.29079   0.49988   0.00000  Uiso   1.00
C534   C     0.16652   0.04255   0.50012   0.00000  Uiso   1.00
C535   C     0.20313   0.18935   0.36153   0.00000  Uiso   1.00
C536   C     0.13021   0.14398   0.63847   0.00000  Uiso   1.00
C537   C     0.20321   0.18892   0.64685   0.00000  Uiso   1.00
C538   C     0.13012   0.14441   0.35315   0.00000  Uiso   1.00
H539   H     0.12488   0.03819   0.43124   0.00000  Uiso   1.00
H540   H     0.20845   0.29514   0.56876   0.00000  Uiso   1.00
H541   H     0.12484   0.29558   0.43119   0.00000  Uiso   1.00
H542   H     0.20849   0.03775   0.56881   0.00000  Uiso   1.00
H543   H     0.23238   0.20662   0.63189   0.00000  Uiso   1.00
H544   H     0.10095   0.12671   0.36811   0.00000  Uiso   1.00
N545   N     0.16665   0.16666   0.61907   0.00000  Uiso   1.00
N546   N     0.16668   0.16668   0.38093   0.00000  Uiso   1.00
O547   O     0.16666   0.10558   0.53821   0.00000  Uiso   1.00
O548   O     0.16667   0.22775   0.46179   0.00000  Uiso   1.00
O549   O     0.16666   0.10559   0.46176   0.00000  Uiso   1.00
O550   O     0.16667   0.22774   0.53824   0.00000  Uiso   1.00
O551   O     0.09058   0.16666   0.52928   0.00000  Uiso   1.00
O552   O     0.24275   0.16667   0.47072   0.00000  Uiso   1.00
O553   O     0.09058   0.16667   0.45284   0.00000  Uiso   1.00
O554   O     0.24275   0.16666   0.54716   0.00000  Uiso   1.00
Zn555  Zn    0.16667   0.16666   0.55104   0.00000  Uiso   1.00
Zn556  Zn    0.16667   0.16667   0.44896   0.00000  Uiso   1.00
N557   N     0.32327   0.13205   0.44795   0.00000  Uiso   1.00
H558   H     0.00467   0.13565   0.41751   0.00000  Uiso   1.00
C559   C     0.32120   0.08862   0.46155   0.00000  Uiso   1.00
H560   H     0.30042   0.07009   0.43290   0.00000  Uiso   1.00
H561   H     0.29961   0.08511   0.49129   0.00000  Uiso   1.00
H562   H     0.02808   0.07610   0.47052   0.00000  Uiso   1.00
N563   N     0.01006   0.20128   0.55205   0.00000  Uiso   1.00
H564   H     0.32867   0.19768   0.58249   0.00000  Uiso   1.00
C565   C     0.01213   0.24472   0.53845   0.00000  Uiso   1.00
H566   H     0.03291   0.26324   0.56710   0.00000  Uiso   1.00
H567   H     0.30526   0.25724   0.52948   0.00000  Uiso   1.00
H568   H     0.03373   0.24822   0.50872   0.00000  Uiso   1.00
N569   N     0.24143   0.21289   0.38973   0.00000  Uiso   1.00
H570   H     0.27900   0.20390   0.38653   0.00000  Uiso   1.00
C571   C     0.23511   0.25769   0.38549   0.00000  Uiso   1.00
H572   H     0.26203   0.27330   0.41289   0.00000  Uiso   1.00
H573   H     0.19444   0.26671   0.38896   0.00000  Uiso   1.00
H574   H     0.24446   0.26868   0.35186   0.00000  Uiso   1.00
N575   N     0.09190   0.12044   0.61027   0.00000  Uiso   1.00
H576   H     0.05433   0.12943   0.61347   0.00000  Uiso   1.00
C577   C     0.09822   0.07564   0.61451   0.00000  Uiso   1.00
H578   H     0.07131   0.06004   0.58711   0.00000  Uiso   1.00
H579   H     0.08887   0.06465   0.64814   0.00000  Uiso   1.00
H580   H     0.13890   0.06662   0.61105   0.00000  Uiso   1.00
C581   C     0.49992   0.08669   0.50006   0.00000  Uiso   1.00
C582   C     0.50008   0.24665   0.49994   0.00000  Uiso   1.00
C583   C     0.40063   0.16608   0.48834   0.00000  Uiso   1.00
C584   C     0.59937   0.16725   0.51166   0.00000  Uiso   1.00
C585   C     0.34636   0.15941   0.48344   0.00000  Uiso   1.00
C586   C     0.65364   0.17393   0.51656   0.00000  Uiso   1.00
C587   C     0.47674   0.02154   0.46116   0.00000  Uiso   1.00
C588   C     0.52326   0.31179   0.53884   0.00000  Uiso   1.00
C589   C     0.47683   0.31203   0.46107   0.00000  Uiso   1.00
C590   C     0.52317   0.02130   0.53893   0.00000  Uiso   1.00
C591   C     0.50015   0.29079   0.49988   0.00000  Uiso   1.00
C592   C     0.49985   0.04255   0.50012   0.00000  Uiso   1.00
C593   C     0.53646   0.18935   0.36153   0.00000  Uiso   1.00
C594   C     0.46354   0.14398   0.63847   0.00000  Uiso   1.00
C595   C     0.53655   0.18892   0.64685   0.00000  Uiso   1.00
C596   C     0.46345   0.14441   0.35315   0.00000  Uiso   1.00
H597   H     0.45821   0.03819   0.43124   0.00000  Uiso   1.00
H598   H     0.54179   0.29514   0.56876   0.00000  Uiso   1.00
H599   H     0.45818   0.29558   0.43119   0.00000  Uiso   1.00
H600   H     0.54182   0.03775   0.56881   0.00000  Uiso   1.00
H601   H     0.56571   0.20662   0.63189   0.00000  Uiso   1.00
H602   H     0.43429   0.12671   0.36811   0.00000  Uiso   1.00
N603   N     0.49999   0.16666   0.61907   0.00000  Uiso   1.00
N604   N     0.50001   0.16668   0.38093   0.00000  Uiso   1.00
O605   O     0.50000   0.10558   0.53821   0.00000  Uiso   1.00
O606   O     0.50000   0.22775   0.46179   0.00000  Uiso   1.00
O607   O     0.50000   0.10559   0.46176   0.00000  Uiso   1.00
O608   O     0.50000   0.22774   0.53824   0.00000  Uiso   1.00
O609   O     0.42392   0.16666   0.52928   0.00000  Uiso   1.00
O610   O     0.57608   0.16667   0.47072   0.00000  Uiso   1.00
O611   O     0.42392   0.16667   0.45284   0.00000  Uiso   1.00
O612   O     0.57608   0.16666   0.54716   0.00000  Uiso   1.00
Zn613  Zn    0.50000   0.16666   0.55104   0.00000  Uiso   1.00
Zn614  Zn    0.50000   0.16667   0.44896   0.00000  Uiso   1.00
N615   N     0.65661   0.13205   0.44795   0.00000  Uiso   1.00
H616   H     0.33800   0.13565   0.41751   0.00000  Uiso   1.00
C617   C     0.65453   0.08862   0.46155   0.00000  Uiso   1.00
H618   H     0.63375   0.07009   0.43290   0.00000  Uiso   1.00
H619   H     0.63294   0.08511   0.49129   0.00000  Uiso   1.00
H620   H     0.36141   0.07610   0.47052   0.00000  Uiso   1.00
N621   N     0.34339   0.20128   0.55205   0.00000  Uiso   1.00
H622   H     0.66200   0.19768   0.58249   0.00000  Uiso   1.00
C623   C     0.34547   0.24472   0.53845   0.00000  Uiso   1.00
H624   H     0.36625   0.26324   0.56710   0.00000  Uiso   1.00
H625   H     0.63859   0.25724   0.52948   0.00000  Uiso   1.00
H626   H     0.36706   0.24822   0.50872   0.00000  Uiso   1.00
N627   N     0.57476   0.21289   0.38973   0.00000  Uiso   1.00
H628   H     0.61234   0.20390   0.38653   0.00000  Uiso   1.00
C629   C     0.56845   0.25769   0.38549   0.00000  Uiso   1.00
H630   H     0.59536   0.27330   0.41289   0.00000  Uiso   1.00
H631   H     0.52777   0.26671   0.38896   0.00000  Uiso   1.00
H632   H     0.57779   0.26868   0.35186   0.00000  Uiso   1.00
N633   N     0.42524   0.12044   0.61027   0.00000  Uiso   1.00
H634   H     0.38766   0.12943   0.61347   0.00000  Uiso   1.00
C635   C     0.43156   0.07564   0.61451   0.00000  Uiso   1.00
H636   H     0.40464   0.06004   0.58711   0.00000  Uiso   1.00
H637   H     0.42220   0.06465   0.64814   0.00000  Uiso   1.00
H638   H     0.47223   0.06662   0.61105   0.00000  Uiso   1.00
C639   C     0.83326   0.08669   0.50006   0.00000  Uiso   1.00
C640   C     0.83341   0.24665   0.49994   0.00000  Uiso   1.00
C641   C     0.73396   0.16608   0.48834   0.00000  Uiso   1.00
C642   C     0.93270   0.16725   0.51166   0.00000  Uiso   1.00
C643   C     0.67969   0.15941   0.48344   0.00000  Uiso   1.00
C644   C     0.98697   0.17393   0.51656   0.00000  Uiso   1.00
C645   C     0.81007   0.02154   0.46116   0.00000  Uiso   1.00
C646   C     0.85659   0.31179   0.53884   0.00000  Uiso   1.00
C647   C     0.81016   0.31203   0.46107   0.00000  Uiso   1.00
C648   C     0.85650   0.02130   0.53893   0.00000  Uiso   1.00
C649   C     0.83348   0.29079   0.49988   0.00000  Uiso   1.00
C650   C     0.83318   0.04255   0.50012   0.00000  Uiso   1.00
C651   C     0.86980   0.18935   0.36153   0.00000  Uiso   1.00
C652   C     0.79687   0.14398   0.63847   0.00000  Uiso   1.00
C653   C     0.86988   0.18892   0.64685   0.00000  Uiso   1.00
C654   C     0.79679   0.14441   0.35315   0.00000  Uiso   1.00
H655   H     0.79155   0.03819   0.43124   0.00000  Uiso   1.00
H656   H     0.87512   0.29514   0.56876   0.00000  Uiso   1.00
H657   H     0.79151   0.29558   0.43119   0.00000  Uiso   1.00
H658   H     0.87516   0.03775   0.56881   0.00000  Uiso   1.00
H659   H     0.89905   0.20662   0.63189   0.00000  Uiso   1.00
H660   H     0.76762   0.12671   0.36811   0.00000  Uiso   1.00
N661   N     0.83332   0.16666   0.61907   0.00000  Uiso   1.00
N662   N     0.83335   0.16668   0.38093   0.00000  Uiso   1.00
O663   O     0.83333   0.10558   0.53821   0.00000  Uiso   1.00
O664   O     0.83334   0.22775   0.46179   0.00000  Uiso   1.00
O665   O     0.83333   0.10559   0.46176   0.00000  Uiso   1.00
O666   O     0.83334   0.22774   0.53824   0.00000  Uiso   1.00
O667   O     0.75725   0.16666   0.52928   0.00000  Uiso   1.00
O668   O     0.90942   0.16667   0.47072   0.00000  Uiso   1.00
O669   O     0.75725   0.16667   0.45284   0.00000  Uiso   1.00
O670   O     0.90942   0.16666   0.54716   0.00000  Uiso   1.00
Zn671  Zn    0.83333   0.16666   0.55104   0.00000  Uiso   1.00
Zn672  Zn    0.83333   0.16667   0.44896   0.00000  Uiso   1.00
N673   N     0.98994   0.13205   0.44795   0.00000  Uiso   1.00
H674   H     0.67133   0.13565   0.41751   0.00000  Uiso   1.00
C675   C     0.98787   0.08862   0.46155   0.00000  Uiso   1.00
H676   H     0.96709   0.07009   0.43290   0.00000  Uiso   1.00
H677   H     0.96627   0.08511   0.49129   0.00000  Uiso   1.00
H678   H     0.69474   0.07610   0.47052   0.00000  Uiso   1.00
N679   N     0.67673   0.20128   0.55205   0.00000  Uiso   1.00
H680   H     0.99533   0.19768   0.58249   0.00000  Uiso   1.00
C681   C     0.67880   0.24472   0.53845   0.00000  Uiso   1.00
H682   H     0.69958   0.26324   0.56710   0.00000  Uiso   1.00
H683   H     0.97192   0.25724   0.52948   0.00000  Uiso   1.00
H684   H     0.70040   0.24822   0.50872   0.00000  Uiso   1.00
N685   N     0.90810   0.21289   0.38973   0.00000  Uiso   1.00
H686   H     0.94567   0.20390   0.38653   0.00000  Uiso   1.00
C687   C     0.90178   0.25769   0.38549   0.00000  Uiso   1.00
H688   H     0.92870   0.27330   0.41289   0.00000  Uiso   1.00
H689   H     0.86111   0.26671   0.38896   0.00000  Uiso   1.00
H690   H     0.91113   0.26868   0.35186   0.00000  Uiso   1.00
N691   N     0.75857   0.12044   0.61027   0.00000  Uiso   1.00
H692   H     0.72100   0.12943   0.61347   0.00000  Uiso   1.00
C693   C     0.76489   0.07564   0.61451   0.00000  Uiso   1.00
H694   H     0.73798   0.06004   0.58711   0.00000  Uiso   1.00
H695   H     0.75554   0.06465   0.64814   0.00000  Uiso   1.00
H696   H     0.80556   0.06662   0.61105   0.00000  Uiso   1.00
C697   C     0.16659   0.42002   0.50006   0.00000  Uiso   1.00
C698   C     0.16674   0.57998   0.49994   0.00000  Uiso   1.00
C699   C     0.06730   0.49941   0.48834   0.00000  Uiso   1.00
C700   C     0.26604   0.50059   0.51166   0.00000  Uiso   1.00
C701   C     0.01303   0.49274   0.48344   0.00000  Uiso   1.00
C702   C     0.32031   0.50726   0.51656   0.00000  Uiso   1.00
C703   C     0.14341   0.35488   0.46116   0.00000  Uiso   1.00
C704   C     0.18993   0.64512   0.53884   0.00000  Uiso   1.00
C705   C     0.14350   0.64537   0.46107   0.00000  Uiso   1.00
C706   C     0.18984   0.35463   0.53893   0.00000  Uiso   1.00
C707   C     0.16682   0.62412   0.49988   0.00000  Uiso   1.00
C708   C     0.16652   0.37588   0.50012   0.00000  Uiso   1.00
C709   C     0.20313   0.52269   0.36153   0.00000  Uiso   1.00
C710   C     0.13021   0.47731   0.63847   0.00000  Uiso   1.00
C711   C     0.20321   0.52226   0.64685   0.00000  Uiso   1.00
C712   C     0.13012   0.47774   0.35315   0.00000  Uiso   1.00
H713   H     0.12488   0.37152   0.43124   0.00000  Uiso   1.00
H714   H     0.20845   0.62848   0.56876   0.00000  Uiso   1.00
H715   H     0.12484   0.62892   0.43119   0.00000  Uiso   1.00
H716   H     0.20849   0.37108   0.56881   0.00000  Uiso   1.00
H717   H     0.23238   0.53996   0.63189   0.00000  Uiso   1.00
H718   H     0.10095   0.46004   0.36811   0.00000  Uiso   1.00
N719   N     0.16665   0.49999   0.61907   0.00000  Uiso   1.00
N720   N     0.16668   0.50001   0.38093   0.00000  Uiso   1.00
O721   O     0.16666   0.43892   0.53821   0.00000  Uiso   1.00
O722   O     0.16667   0.56108   0.46179   0.00000  Uiso   1.00
O723   O     0.16666   0.43893   0.46176   0.00000  Uiso   1.00
O724   O     0.16667   0.56107   0.53824   0.00000  Uiso   1.00
O725   O     0.09058   0.50000   0.52928   0.00000  Uiso   1.00
O726   O     0.24275   0.50000   0.47072   0.00000  Uiso   1.00
O727   O     0.09058   0.50000   0.45284   0.00000  Uiso   1.00
O728   O     0.24275   0.50000   0.54716   0.00000  Uiso   1.00
Zn729  Zn    0.16667   0.49999   0.55104   0.00000  Uiso   1.00
Zn730  Zn    0.16667   0.50001   0.44896   0.00000  Uiso   1.00
N731   N     0.32327   0.46538   0.44795   0.00000  Uiso   1.00
H732   H     0.00467   0.46899   0.41751   0.00000  Uiso   1.00
C733   C     0.32120   0.42195   0.46155   0.00000  Uiso   1.00
H734   H     0.30042   0.40343   0.43290   0.00000  Uiso   1.00
H735   H     0.29961   0.41845   0.49129   0.00000  Uiso   1.00
H736   H     0.02808   0.40943   0.47052   0.00000  Uiso   1.00
N737   N     0.01006   0.53462   0.55205   0.00000  Uiso   1.00
H738   H     0.32867   0.53101   0.58249   0.00000  Uiso   1.00
C739   C     0.01213   0.57805   0.53845   0.00000  Uiso   1.00
H740   H     0.03291   0.59657   0.56710   0.00000  Uiso   1.00
H741   H     0.30526   0.59057   0.52948   0.00000  Uiso   1.00
H742   H     0.03373   0.58155   0.50872   0.00000  Uiso   1.00
N743   N     0.24143   0.54623   0.38973   0.00000  Uiso   1.00
H744   H     0.27900   0.53724   0.38653   0.00000  Uiso   1.00
C745   C     0.23511   0.59103   0.38549   0.00000  Uiso   1.00
H746   H     0.26203   0.60663   0.41289   0.00000  Uiso   1.00
H747   H     0.19444   0.60004   0.38896   0.00000  Uiso   1.00
H748   H     0.24446   0.60202   0.35186   0.00000  Uiso   1.00
N749   N     0.09190   0.45377   0.61027   0.00000  Uiso   1.00
H750   H     0.05433   0.46276   0.61347   0.00000  Uiso   1.00
C751   C     0.09822   0.40897   0.61451   0.00000  Uiso   1.00
H752   H     0.07131   0.39337   0.58711   0.00000  Uiso   1.00
H753   H     0.08887   0.39798   0.64814   0.00000  Uiso   1.00
H754   H     0.13890   0.39996   0.61105   0.00000  Uiso   1.00
C755   C     0.49992   0.42002   0.50006   0.00000  Uiso   1.00
C756   C     0.50008   0.57998   0.49994   0.00000  Uiso   1.00
C757   C     0.40063   0.49941   0.48834   0.00000  Uiso   1.00
C758   C     0.59937   0.50059   0.51166   0.00000  Uiso   1.00
C759   C     0.34636   0.49274   0.48344   0.00000  Uiso   1.00
C760   C     0.65364   0.50726   0.51656   0.00000  Uiso   1.00
C761   C     0.47674   0.35488   0.46116   0.00000  Uiso   1.00
C762   C     0.52326   0.64512   0.53884   0.00000  Uiso   1.00
C763   C     0.47683   0.64537   0.46107   0.00000  Uiso   1.00
C764   C     0.52317   0.35463   0.53893   0.00000  Uiso   1.00
C765   C     0.50015   0.62412   0.49988   0.00000  Uiso   1.00
C766   C     0.49985   0.37588   0.50012   0.00000  Uiso   1.00
C767   C     0.53646   0.52269   0.36153   0.00000  Uiso   1.00
C768   C     0.46354   0.47731   0.63847   0.00000  Uiso   1.00
C769   C     0.53655   0.52226   0.64685   0.00000  Uiso   1.00
C770   C     0.46345   0.47774   0.35315   0.00000  Uiso   1.00
H771   H     0.45821   0.37152   0.43124   0.00000  Uiso   1.00
H772   H     0.54179   0.62848   0.56876   0.00000  Uiso   1.00
H773   H     0.45818   0.62892   0.43119   0.00000  Uiso   1.00
H774   H     0.54182   0.37108   0.56881   0.00000  Uiso   1.00
H775   H     0.56571   0.53996   0.63189   0.00000  Uiso   1.00
H776   H     0.43429   0.46004   0.36811   0.00000  Uiso   1.00
N777   N     0.49999   0.49999   0.61907   0.00000  Uiso   1.00
N778   N     0.50001   0.50001   0.38093   0.00000  Uiso   1.00
O779   O     0.50000   0.43892   0.53821   0.00000  Uiso   1.00
O780   O     0.50000   0.56108   0.46179   0.00000  Uiso   1.00
O781   O     0.50000   0.43893   0.46176   0.00000  Uiso   1.00
O782   O     0.50000   0.56107   0.53824   0.00000  Uiso   1.00
O783   O     0.42392   0.50000   0.52928   0.00000  Uiso   1.00
O784   O     0.57608   0.50000   0.47072   0.00000  Uiso   1.00
O785   O     0.42392   0.50000   0.45284   0.00000  Uiso   1.00
O786   O     0.57608   0.50000   0.54716   0.00000  Uiso   1.00
Zn787  Zn    0.50000   0.49999   0.55104   0.00000  Uiso   1.00
Zn788  Zn    0.50000   0.50001   0.44896   0.00000  Uiso   1.00
N789   N     0.65661   0.46538   0.44795   0.00000  Uiso   1.00
H790   H     0.33800   0.46899   0.41751   0.00000  Uiso   1.00
C791   C     0.65453   0.42195   0.46155   0.00000  Uiso   1.00
H792   H     0.63375   0.40343   0.43290   0.00000  Uiso   1.00
H793   H     0.63294   0.41845   0.49129   0.00000  Uiso   1.00
H794   H     0.36141   0.40943   0.47052   0.00000  Uiso   1.00
N795   N     0.34339   0.53462   0.55205   0.00000  Uiso   1.00
H796   H     0.66200   0.53101   0.58249   0.00000  Uiso   1.00
C797   C     0.34547   0.57805   0.53845   0.00000  Uiso   1.00
H798   H     0.36625   0.59657   0.56710   0.00000  Uiso   1.00
H799   H     0.63859   0.59057   0.52948   0.00000  Uiso   1.00
H800   H     0.36706   0.58155   0.50872   0.00000  Uiso   1.00
N801   N     0.57476   0.54623   0.38973   0.00000  Uiso   1.00
H802   H     0.61234   0.53724   0.38653   0.00000  Uiso   1.00
C803   C     0.56845   0.59103   0.38549   0.00000  Uiso   1.00
H804   H     0.59536   0.60663   0.41289   0.00000  Uiso   1.00
H805   H     0.52777   0.60004   0.38896   0.00000  Uiso   1.00
H806   H     0.57779   0.60202   0.35186   0.00000  Uiso   1.00
N807   N     0.42524   0.45377   0.61027   0.00000  Uiso   1.00
H808   H     0.38766   0.46276   0.61347   0.00000  Uiso   1.00
C809   C     0.43156   0.40897   0.61451   0.00000  Uiso   1.00
H810   H     0.40464   0.39337   0.58711   0.00000  Uiso   1.00
H811   H     0.42220   0.39798   0.64814   0.00000  Uiso   1.00
H812   H     0.47223   0.39996   0.61105   0.00000  Uiso   1.00
C813   C     0.83326   0.42002   0.50006   0.00000  Uiso   1.00
C814   C     0.83341   0.57998   0.49994   0.00000  Uiso   1.00
C815   C     0.73396   0.49941   0.48834   0.00000  Uiso   1.00
C816   C     0.93270   0.50059   0.51166   0.00000  Uiso   1.00
C817   C     0.67969   0.49274   0.48344   0.00000  Uiso   1.00
C818   C     0.98697   0.50726   0.51656   0.00000  Uiso   1.00
C819   C     0.81007   0.35488   0.46116   0.00000  Uiso   1.00
C820   C     0.85659   0.64512   0.53884   0.00000  Uiso   1.00
C821   C     0.81016   0.64537   0.46107   0.00000  Uiso   1.00
C822   C     0.85650   0.35463   0.53893   0.00000  Uiso   1.00
C823   C     0.83348   0.62412   0.49988   0.00000  Uiso   1.00
C824   C     0.83318   0.37588   0.50012   0.00000  Uiso   1.00
C825   C     0.86980   0.52269   0.36153   0.00000  Uiso   1.00
C826   C     0.79687   0.47731   0.63847   0.00000  Uiso   1.00
C827   C     0.86988   0.52226   0.64685   0.00000  Uiso   1.00
C828   C     0.79679   0.47774   0.35315   0.00000  Uiso   1.00
H829   H     0.79155   0.37152   0.43124   0.00000  Uiso   1.00
H830   H     0.87512   0.62848   0.56876   0.00000  Uiso   1.00
H831   H     0.79151   0.62892   0.43119   0.00000  Uiso   1.00
H832   H     0.87516   0.37108   0.56881   0.00000  Uiso   1.00
H833   H     0.89905   0.53996   0.63189   0.00000  Uiso   1.00
H834   H     0.76762   0.46004   0.36811   0.00000  Uiso   1.00
N835   N     0.83332   0.49999   0.61907   0.00000  Uiso   1.00
N836   N     0.83335   0.50001   0.38093   0.00000  Uiso   1.00
O837   O     0.83333   0.43892   0.53821   0.00000  Uiso   1.00
O838   O     0.83334   0.56108   0.46179   0.00000  Uiso   1.00
O839   O     0.83333   0.43893   0.46176   0.00000  Uiso   1.00
O840   O     0.83334   0.56107   0.53824   0.00000  Uiso   1.00
O841   O     0.75725   0.50000   0.52928   0.00000  Uiso   1.00
O842   O     0.90942   0.50000   0.47072   0.00000  Uiso   1.00
O843   O     0.75725   0.50000   0.45284   0.00000  Uiso   1.00
O844   O     0.90942   0.50000   0.54716   0.00000  Uiso   1.00
Zn845  Zn    0.83333   0.49999   0.55104   0.00000  Uiso   1.00
Zn846  Zn    0.83333   0.50001   0.44896   0.00000  Uiso   1.00
N847   N     0.98994   0.46538   0.44795   0.00000  Uiso   1.00
H848   H     0.67133   0.46899   0.41751   0.00000  Uiso   1.00
C849   C     0.98787   0.42195   0.46155   0.00000  Uiso   1.00
H850   H     0.96709   0.40343   0.43290   0.00000  Uiso   1.00
H851   H     0.96627   0.41845   0.49129   0.00000  Uiso   1.00
H852   H     0.69474   0.40943   0.47052   0.00000  Uiso   1.00
N853   N     0.67673   0.53462   0.55205   0.00000  Uiso   1.00
H854   H     0.99533   0.53101   0.58249   0.00000  Uiso   1.00
C855   C     0.67880   0.57805   0.53845   0.00000  Uiso   1.00
H856   H     0.69958   0.59657   0.56710   0.00000  Uiso   1.00
H857   H     0.97192   0.59057   0.52948   0.00000  Uiso   1.00
H858   H     0.70040   0.58155   0.50872   0.00000  Uiso   1.00
N859   N     0.90810   0.54623   0.38973   0.00000  Uiso   1.00
H860   H     0.94567   0.53724   0.38653   0.00000  Uiso   1.00
C861   C     0.90178   0.59103   0.38549   0.00000  Uiso   1.00
H862   H     0.92870   0.60663   0.41289   0.00000  Uiso   1.00
H863   H     0.86111   0.60004   0.38896   0.00000  Uiso   1.00
H864   H     0.91113   0.60202   0.35186   0.00000  Uiso   1.00
N865   N     0.75857   0.45377   0.61027   0.00000  Uiso   1.00
H866   H     0.72100   0.46276   0.61347   0.00000  Uiso   1.00
C867   C     0.76489   0.40897   0.61451   0.00000  Uiso   1.00
H868   H     0.73798   0.39337   0.58711   0.00000  Uiso   1.00
H869   H     0.75554   0.39798   0.64814   0.00000  Uiso   1.00
H870   H     0.80556   0.39996   0.61105   0.00000  Uiso   1.00
C871   C     0.16659   0.75335   0.50006   0.00000  Uiso   1.00
C872   C     0.16674   0.91331   0.49994   0.00000  Uiso   1.00
C873   C     0.06730   0.83274   0.48834   0.00000  Uiso   1.00
C874   C     0.26604   0.83392   0.51166   0.00000  Uiso   1.00
C875   C     0.01303   0.82607   0.48344   0.00000  Uiso   1.00
C876   C     0.32031   0.84059   0.51656   0.00000  Uiso   1.00
C877   C     0.14341   0.68821   0.46116   0.00000  Uiso   1.00
C878   C     0.18993   0.97846   0.53884   0.00000  Uiso   1.00
C879   C     0.14350   0.97870   0.46107   0.00000  Uiso   1.00
C880   C     0.18984   0.68797   0.53893   0.00000  Uiso   1.00
C881   C     0.16682   0.95745   0.49988   0.00000  Uiso   1.00
C882   C     0.16652   0.70921   0.50012   0.00000  Uiso   1.00
C883   C     0.20313   0.85602   0.36153   0.00000  Uiso   1.00
C884   C     0.13021   0.81065   0.63847   0.00000  Uiso   1.00
C885   C     0.20321   0.85559   0.64685   0.00000  Uiso   1.00
C886   C     0.13012   0.81108   0.35315   0.00000  Uiso   1.00
H887   H     0.12488   0.70486   0.43124   0.00000  Uiso   1.00
H888   H     0.20845   0.96181   0.56876   0.00000  Uiso   1.00
H889   H     0.12484   0.96225   0.43119   0.00000  Uiso   1.00
H890   H     0.20849   0.70442   0.56881   0.00000  Uiso   1.00
H891   H     0.23238   0.87329   0.63189   0.00000  Uiso   1.00
H892   H     0.10095   0.79338   0.36811   0.00000  Uiso   1.00
N893   N     0.16665   0.83332   0.61907   0.00000  Uiso   1.00
N894   N     0.16668   0.83334   0.38093   0.00000  Uiso   1.00
O895   O     0.16666   0.77225   0.53821   0.00000  Uiso   1.00
O896   O     0.16667   0.89442   0.46179   0.00000  Uiso   1.00
O897   O     0.16666   0.77226   0.46176   0.00000  Uiso   1.00
O898   O     0.16667   0.89441   0.53824   0.00000  Uiso   1.00
O899   O     0.09058   0.83333   0.52928   0.00000  Uiso   1.00
O900   O     0.24275   0.83334   0.47072   0.00000  Uiso   1.00
O901   O     0.09058   0.83334   0.45284   0.00000  Uiso   1.00
O902   O     0.24275   0.83333   0.54716   0.00000  Uiso   1.00
Zn903  Zn    0.16667   0.83333   0.55104   0.00000  Uiso   1.00
Zn904  Zn    0.16667   0.83334   0.44896   0.00000  Uiso   1.00
N905   N     0.32327   0.79872   0.44795   0.00000  Uiso   1.00
H906   H     0.00467   0.80232   0.41751   0.00000  Uiso   1.00
C907   C     0.32120   0.75528   0.46155   0.00000  Uiso   1.00
H908   H     0.30042   0.73676   0.43290   0.00000  Uiso   1.00
H909   H     0.29961   0.75178   0.49129   0.00000  Uiso   1.00
H910   H     0.02808   0.74276   0.47052   0.00000  Uiso   1.00
N911   N     0.01006   0.86795   0.55205   0.00000  Uiso   1.00
H912   H     0.32867   0.86435   0.58249   0.00000  Uiso   1.00
C913   C     0.01213   0.91138   0.53845   0.00000  Uiso   1.00
H914   H     0.03291   0.92991   0.56710   0.00000  Uiso   1.00
H915   H     0.30526   0.92390   0.52948   0.00000  Uiso   1.00
H916   H     0.03373   0.91489   0.50872   0.00000  Uiso   1.00
N917   N     0.24143   0.87956   0.38973   0.00000  Uiso   1.00
H918   H     0.27900   0.87057   0.38653   0.00000  Uiso   1.00
C919   C     0.23511   0.92436   0.38549   0.00000  Uiso   1.00
H920   H     0.26203   0.93996   0.41289   0.00000  Uiso   1.00
H921   H     0.19444   0.93338   0.38896   0.00000  Uiso   1.00
H922   H     0.24446   0.93535   0.35186   0.00000  Uiso   1.00
N923   N     0.09190   0.78711   0.61027   0.00000  Uiso   1.00
H924   H     0.05433   0.79610   0.61347   0.00000  Uiso   1.00
C925   C     0.09822   0.74231   0.61451   0.00000  Uiso   1.00
H926   H     0.07131   0.72670   0.58711   0.00000  Uiso   1.00
H927   H     0.08887   0.73132   0.64814   0.00000  Uiso   1.00
H928   H     0.13890   0.73329   0.61105   0.00000  Uiso   1.00
C929   C     0.49992   0.75335   0.50006   0.00000  Uiso   1.00
C930   C     0.50008   0.91331   0.49994   0.00000  Uiso   1.00
C931   C     0.40063   0.83274   0.48834   0.00000  Uiso   1.00
C932   C     0.59937   0.83392   0.51166   0.00000  Uiso   1.00
C933   C     0.34636   0.82607   0.48344   0.00000  Uiso   1.00
C934   C     0.65364   0.84059   0.51656   0.00000  Uiso   1.00
C935   C     0.47674   0.68821   0.46116   0.00000  Uiso   1.00
C936   C     0.52326   0.97846   0.53884   0.00000  Uiso   1.00
C937   C     0.47683   0.97870   0.46107   0.00000  Uiso   1.00
C938   C     0.52317   0.68797   0.53893   0.00000  Uiso   1.00
C939   C     0.50015   0.95745   0.49988   0.00000  Uiso   1.00
C940   C     0.49985   0.70921   0.50012   0.00000  Uiso   1.00
C941   C     0.53646   0.85602   0.36153   0.00000  Uiso   1.00
C942   C     0.46354   0.81065   0.63847   0.00000  Uiso   1.00
C943   C     0.53655   0.85559   0.64685   0.00000  Uiso   1.00
C944   C     0.46345   0.81108   0.35315   0.00000  Uiso   1.00
H945   H     0.45821   0.70486   0.43124   0.00000  Uiso   1.00
H946   H     0.54179   0.96181   0.56876   0.00000  Uiso   1.00
H947   H     0.45818   0.96225   0.43119   0.00000  Uiso   1.00
H948   H     0.54182   0.70442   0.56881   0.00000  Uiso   1.00
H949   H     0.56571   0.87329   0.63189   0.00000  Uiso   1.00
H950   H     0.43429   0.79338   0.36811   0.00000  Uiso   1.00
N951   N     0.49999   0.83332   0.61907   0.00000  Uiso   1.00
N952   N     0.50001   0.83334   0.38093   0.00000  Uiso   1.00
O953   O     0.50000   0.77225   0.53821   0.00000  Uiso   1.00
O954   O     0.50000   0.89442   0.46179   0.00000  Uiso   1.00
O955   O     0.50000   0.77226   0.46176   0.00000  Uiso   1.00
O956   O     0.50000   0.89441   0.53824   0.00000  Uiso   1.00
O957   O     0.42392   0.83333   0.52928   0.00000  Uiso   1.00
O958   O     0.57608   0.83334   0.47072   0.00000  Uiso   1.00
O959   O     0.42392   0.83334   0.45284   0.00000  Uiso   1.00
O960   O     0.57608   0.83333   0.54716   0.00000  Uiso   1.00
Zn961  Zn    0.50000   0.83333   0.55104   0.00000  Uiso   1.00
Zn962  Zn    0.50000   0.83334   0.44896   0.00000  Uiso   1.00
N963   N     0.65661   0.79872   0.44795   0.00000  Uiso   1.00
H964   H     0.33800   0.80232   0.41751   0.00000  Uiso   1.00
C965   C     0.65453   0.75528   0.46155   0.00000  Uiso   1.00
H966   H     0.63375   0.73676   0.43290   0.00000  Uiso   1.00
H967   H     0.63294   0.75178   0.49129   0.00000  Uiso   1.00
H968   H     0.36141   0.74276   0.47052   0.00000  Uiso   1.00
N969   N     0.34339   0.86795   0.55205   0.00000  Uiso   1.00
H970   H     0.66200   0.86435   0.58249   0.00000  Uiso   1.00
C971   C     0.34547   0.91138   0.53845   0.00000  Uiso   1.00
H972   H     0.36625   0.92991   0.56710   0.00000  Uiso   1.00
H973   H     0.63859   0.92390   0.52948   0.00000  Uiso   1.00
H974   H     0.36706   0.91489   0.50872   0.00000  Uiso   1.00
N975   N     0.57476   0.87956   0.38973   0.00000  Uiso   1.00
H976   H     0.61234   0.87057   0.38653   0.00000  Uiso   1.00
C977   C     0.56845   0.92436   0.38549   0.00000  Uiso   1.00
H978   H     0.59536   0.93996   0.41289   0.00000  Uiso   1.00
H979   H     0.52777   0.93338   0.38896   0.00000  Uiso   1.00
H980   H     0.57779   0.93535   0.35186   0.00000  Uiso   1.00
N981   N     0.42524   0.78711   0.61027   0.00000  Uiso   1.00
H982   H     0.38766   0.79610   0.61347   0.00000  Uiso   1.00
C983   C     0.43156   0.74231   0.61451   0.00000  Uiso   1.00
H984   H     0.40464   0.72670   0.58711   0.00000  Uiso   1.00
H985   H     0.42220   0.73132   0.64814   0.00000  Uiso   1.00
H986   H     0.47223   0.73329   0.61105   0.00000  Uiso   1.00
C987   C     0.83326   0.75335   0.50006   0.00000  Uiso   1.00
C988   C     0.83341   0.91331   0.49994   0.00000  Uiso   1.00
C989   C     0.73396   0.83274   0.48834   0.00000  Uiso   1.00
C990   C     0.93270   0.83392   0.51166   0.00000  Uiso   1.00
C991   C     0.67969   0.82607   0.48344   0.00000  Uiso   1.00
C992   C     0.98697   0.84059   0.51656   0.00000  Uiso   1.00
C993   C     0.81007   0.68821   0.46116   0.00000  Uiso   1.00
C994   C     0.85659   0.97846   0.53884   0.00000  Uiso   1.00
C995   C     0.81016   0.97870   0.46107   0.00000  Uiso   1.00
C996   C     0.85650   0.68797   0.53893   0.00000  Uiso   1.00
C997   C     0.83348   0.95745   0.49988   0.00000  Uiso   1.00
C998   C     0.83318   0.70921   0.50012   0.00000  Uiso   1.00
C999   C     0.86980   0.85602   0.36153   0.00000  Uiso   1.00
C1000  C     0.79687   0.81065   0.63847   0.00000  Uiso   1.00
C1001  C     0.86988   0.85559   0.64685   0.00000  Uiso   1.00
C1002  C     0.79679   0.81108   0.35315   0.00000  Uiso   1.00
H1003  H     0.79155   0.70486   0.43124   0.00000  Uiso   1.00
H1004  H     0.87512   0.96181   0.56876   0.00000  Uiso   1.00
H1005  H     0.79151   0.96225   0.43119   0.00000  Uiso   1.00
H1006  H     0.87516   0.70442   0.56881   0.00000  Uiso   1.00
H1007  H     0.89905   0.87329   0.63189   0.00000  Uiso   1.00
H1008  H     0.76762   0.79338   0.36811   0.00000  Uiso   1.00
N1009  N     0.83332   0.83332   0.61907   0.00000  Uiso   1.00
N1010  N     0.83335   0.83334   0.38093   0.00000  Uiso   1.00
O1011  O     0.83333   0.77225   0.53821   0.00000  Uiso   1.00
O1012  O     0.83334   0.89442   0.46179   0.00000  Uiso   1.00
O1013  O     0.83333   0.77226   0.46176   0.00000  Uiso   1.00
O1014  O     0.83334   0.89441   0.53824   0.00000  Uiso   1.00
O1015  O     0.75725   0.83333   0.52928   0.00000  Uiso   1.00
O1016  O     0.90942   0.83334   0.47072   0.00000  Uiso   1.00
O1017  O     0.75725   0.83334   0.45284   0.00000  Uiso   1.00
O1018  O     0.90942   0.83333   0.54716   0.00000  Uiso   1.00
Zn1019 Zn    0.83333   0.83333   0.55104   0.00000  Uiso   1.00
Zn1020 Zn    0.83333   0.83334   0.44896   0.00000  Uiso   1.00
N1021  N     0.98994   0.79872   0.44795   0.00000  Uiso   1.00
H1022  H     0.67133   0.80232   0.41751   0.00000  Uiso   1.00
C1023  C     0.98787   0.75528   0.46155   0.00000  Uiso   1.00
H1024  H     0.96709   0.73676   0.43290   0.00000  Uiso   1.00
H1025  H     0.96627   0.75178   0.49129   0.00000  Uiso   1.00
H1026  H     0.69474   0.74276   0.47052   0.00000  Uiso   1.00
N1027  N     0.67673   0.86795   0.55205   0.00000  Uiso   1.00
H1028  H     0.99533   0.86435   0.58249   0.00000  Uiso   1.00
C1029  C     0.67880   0.91138   0.53845   0.00000  Uiso   1.00
H1030  H     0.69958   0.92991   0.56710   0.00000  Uiso   1.00
H1031  H     0.97192   0.92390   0.52948   0.00000  Uiso   1.00
H1032  H     0.70040   0.91489   0.50872   0.00000  Uiso   1.00
N1033  N     0.90810   0.87956   0.38973   0.00000  Uiso   1.00
H1034  H     0.94567   0.87057   0.38653   0.00000  Uiso   1.00
C1035  C     0.90178   0.92436   0.38549   0.00000  Uiso   1.00
H1036  H     0.92870   0.93996   0.41289   0.00000  Uiso   1.00
H1037  H     0.86111   0.93338   0.38896   0.00000  Uiso   1.00
H1038  H     0.91113   0.93535   0.35186   0.00000  Uiso   1.00
N1039  N     0.75857   0.78711   0.61027   0.00000  Uiso   1.00
H1040  H     0.72100   0.79610   0.61347   0.00000  Uiso   1.00
C1041  C     0.76489   0.74231   0.61451   0.00000  Uiso   1.00
H1042  H     0.73798   0.72670   0.58711   0.00000  Uiso   1.00
H1043  H     0.75554   0.73132   0.64814   0.00000  Uiso   1.00
H1044  H     0.80556   0.73329   0.61105   0.00000  Uiso   1.00
C1045  C     0.16659   0.08669   0.83339   0.00000  Uiso   1.00
C1046  C     0.16674   0.24665   0.83327   0.00000  Uiso   1.00
C1047  C     0.06730   0.16608   0.82167   0.00000  Uiso   1.00
C1048  C     0.26604   0.16725   0.84500   0.00000  Uiso   1.00
C1049  C     0.01303   0.15941   0.81677   0.00000  Uiso   1.00
C1050  C     0.32031   0.17393   0.84990   0.00000  Uiso   1.00
C1051  C     0.14341   0.02154   0.79449   0.00000  Uiso   1.00
C1052  C     0.18993   0.31179   0.87218   0.00000  Uiso   1.00
C1053  C     0.14350   0.31203   0.79440   0.00000  Uiso   1.00
C1054  C     0.18984   0.02130   0.87226   0.00000  Uiso   1.00
C1055  C     0.16682   0.29079   0.83322   0.00000  Uiso   1.00
C1056  C     0.16652   0.04255   0.83345   0.00000  Uiso   1.00
C1057  C     0.20313   0.18935   0.69486   0.00000  Uiso   1.00
C1058  C     0.13021   0.14398   0.97180   0.00000  Uiso   1.00
C1059  C     0.20321   0.18892   0.98019   0.00000  Uiso   1.00
C1060  C     0.13012   0.14441   0.68648   0.00000  Uiso   1.00
H1061  H     0.12488   0.03819   0.76457   0.00000  Uiso   1.00
H1062  H     0.20845   0.29514   0.90209   0.00000  Uiso   1.00
H1063  H     0.12484   0.29558   0.76452   0.00000  Uiso   1.00
H1064  H     0.20849   0.03775   0.90214   0.00000  Uiso   1.00
H1065  H     0.23238   0.20662   0.96522   0.00000  Uiso   1.00
H1066  H     0.10095   0.12671   0.70145   0.00000  Uiso   1.00
N1067  N     0.16665   0.16666   0.95240   0.00000  Uiso   1.00
N1068  N     0.16668   0.16668   0.71427   0.00000  Uiso   1.00
O1069  O     0.16666   0.10558   0.87154   0.00000  Uiso   1.00
O1070  O     0.16667   0.22775   0.79513   0.00000  Uiso   1.00
O1071  O     0.16666   0.10559   0.79510   0.00000  Uiso   1.00
O1072  O     0.16667   0.22774   0.87157   0.00000  Uiso   1.00
O1073  O     0.09058   0.16666   0.86261   0.00000  Uiso   1.00
O1074  O     0.24275   0.16667   0.80405   0.00000  Uiso   1.00
O1075  O     0.09058   0.16667   0.78617   0.00000  Uiso   1.00
O1076  O     0.24275   0.16666   0.88050   0.00000  Uiso   1.00
Zn1077 Zn    0.16667   0.16666   0.88437   0.00000  Uiso   1.00
Zn1078 Zn    0.16667   0.16667   0.78229   0.00000  Uiso   1.00
N1079  N     0.32327   0.13205   0.78128   0.00000  Uiso   1.00
H1080  H     0.00467   0.13565   0.75084   0.00000  Uiso   1.00
C1081  C     0.32120   0.08862   0.79488   0.00000  Uiso   1.00
H1082  H     0.30042   0.07009   0.76624   0.00000  Uiso   1.00
H1083  H     0.29961   0.08511   0.82462   0.00000  Uiso   1.00
H1084  H     0.02808   0.07610   0.80386   0.00000  Uiso   1.00
N1085  N     0.01006   0.20128   0.88539   0.00000  Uiso   1.00
H1086  H     0.32867   0.19768   0.91582   0.00000  Uiso   1.00
C1087  C     0.01213   0.24472   0.87178   0.00000  Uiso   1.00
H1088  H     0.03291   0.26324   0.90043   0.00000  Uiso   1.00
H1089  H     0.30526   0.25724   0.86281   0.00000  Uiso   1.00
H1090  H     0.03373   0.24822   0.84205   0.00000  Uiso   1.00
N1091  N     0.24143   0.21289   0.72306   0.00000  Uiso   1.00
H1092  H     0.27900   0.20390   0.71986   0.00000  Uiso   1.00
C1093  C     0.23511   0.25769   0.71882   0.00000  Uiso   1.00
H1094  H     0.26203   0.27330   0.74622   0.00000  Uiso   1.00
H1095  H     0.19444   0.26671   0.72229   0.00000  Uiso   1.00
H1096  H     0.24446   0.26868   0.68519   0.00000  Uiso   1.00
N1097  N     0.09190   0.12044   0.94360   0.00000  Uiso   1.00
H1098  H     0.05433   0.12943   0.94681   0.00000  Uiso   1.00
C1099  C     0.09822   0.07564   0.94784   0.00000  Uiso   1.00
H1100  H     0.07131   0.06004   0.92044   0.00000  Uiso   1.00
H1101  H     0.08887   0.06465   0.98147   0.00000  Uiso   1.00
H1102  H     0.13890   0.06662   0.94438   0.00000  Uiso   1.00
C1103  C     0.49992   0.08669   0.83339   0.00000  Uiso   1.00
C1104  C     0.50008   0.24665   0.83327   0.00000  Uiso   1.00
C1105  C     0.40063   0.16608   0.82167   0.00000  Uiso   1.00
C1106  C     0.59937   0.16725   0.84500   0.00000  Uiso   1.00
C1107  C     0.34636   0.15941   0.81677   0.00000  Uiso   1.00
C1108  C     0.65364   0.17393   0.84990   0.00000  Uiso   1.00
C1109  C     0.47674   0.02154   0.79449   0.00000  Uiso   1.00
C1110  C     0.52326   0.31179   0.87218   0.00000  Uiso   1.00
C1111  C     0.47683   0.31203   0.79440   0.00000  Uiso   1.00
C1112  C     0.52317   0.02130   0.87226   0.00000  Uiso   1.00
C1113  C     0.50015   0.29079   0.83322   0.00000  Uiso   1.00
C1114  C     0.49985   0.04255   0.83345   0.00000  Uiso   1.00
C1115  C     0.53646   0.18935   0.69486   0.00000  Uiso   1.00
C1116  C     0.46354   0.14398   0.97180   0.00000  Uiso   1.00
C1117  C     0.53655   0.18892   0.98019   0.00000  Uiso   1.00
C1118  C     0.46345   0.14441   0.68648   0.00000  Uiso   1.00
H1119  H     0.45821   0.03819   0.76457   0.00000  Uiso   1.00
H1120  H     0.54179   0.29514   0.90209   0.00000  Uiso   1.00
H1121  H     0.45818   0.29558   0.76452   0.00000  Uiso   1.00
H1122  H     0.54182   0.03775   0.90214   0.00000  Uiso   1.00
H1123  H     0.56571   0.20662   0.96522   0.00000  Uiso   1.00
H1124  H     0.43429   0.12671   0.70145   0.00000  Uiso   1.00
N1125  N     0.49999   0.16666   0.95240   0.00000  Uiso   1.00
N1126  N     0.50001   0.16668   0.71427   0.00000  Uiso   1.00
O1127  O     0.50000   0.10558   0.87154   0.00000  Uiso   1.00
O1128  O     0.50000   0.22775   0.79513   0.00000  Uiso   1.00
O1129  O     0.50000   0.10559   0.79510   0.00000  Uiso   1.00
O1130  O     0.50000   0.22774   0.87157   0.00000  Uiso   1.00
O1131  O     0.42392   0.16666   0.86261   0.00000  Uiso   1.00
O1132  O     0.57608   0.16667   0.80405   0.00000  Uiso   1.00
O1133  O     0.42392   0.16667   0.78617   0.00000  Uiso   1.00
O1134  O     0.57608   0.16666   0.88050   0.00000  Uiso   1.00
Zn1135 Zn    0.50000   0.16666   0.88437   0.00000  Uiso   1.00
Zn1136 Zn    0.50000   0.16667   0.78229   0.00000  Uiso   1.00
N1137  N     0.65661   0.13205   0.78128   0.00000  Uiso   1.00
H1138  H     0.33800   0.13565   0.75084   0.00000  Uiso   1.00
C1139  C     0.65453   0.08862   0.79488   0.00000  Uiso   1.00
H1140  H     0.63375   0.07009   0.76624   0.00000  Uiso   1.00
H1141  H     0.63294   0.08511   0.82462   0.00000  Uiso   1.00
H1142  H     0.36141   0.07610   0.80386   0.00000  Uiso   1.00
N1143  N     0.34339   0.20128   0.88539   0.00000  Uiso   1.00
H1144  H     0.66200   0.19768   0.91582   0.00000  Uiso   1.00
C1145  C     0.34547   0.24472   0.87178   0.00000  Uiso   1.00
H1146  H     0.36625   0.26324   0.90043   0.00000  Uiso   1.00
H1147  H     0.63859   0.25724   0.86281   0.00000  Uiso   1.00
H1148  H     0.36706   0.24822   0.84205   0.00000  Uiso   1.00
N1149  N     0.57476   0.21289   0.72306   0.00000  Uiso   1.00
H1150  H     0.61234   0.20390   0.71986   0.00000  Uiso   1.00
C1151  C     0.56845   0.25769   0.71882   0.00000  Uiso   1.00
H1152  H     0.59536   0.27330   0.74622   0.00000  Uiso   1.00
H1153  H     0.52777   0.26671   0.72229   0.00000  Uiso   1.00
H1154  H     0.57779   0.26868   0.68519   0.00000  Uiso   1.00
N1155  N     0.42524   0.12044   0.94360   0.00000  Uiso   1.00
H1156  H     0.38766   0.12943   0.94681   0.00000  Uiso   1.00
C1157  C     0.43156   0.07564   0.94784   0.00000  Uiso   1.00
H1158  H     0.40464   0.06004   0.92044   0.00000  Uiso   1.00
H1159  H     0.42220   0.06465   0.98147   0.00000  Uiso   1.00
H1160  H     0.47223   0.06662   0.94438   0.00000  Uiso   1.00
C1161  C     0.83326   0.08669   0.83339   0.00000  Uiso   1.00
C1162  C     0.83341   0.24665   0.83327   0.00000  Uiso   1.00
C1163  C     0.73396   0.16608   0.82167   0.00000  Uiso   1.00
C1164  C     0.93270   0.16725   0.84500   0.00000  Uiso   1.00
C1165  C     0.67969   0.15941   0.81677   0.00000  Uiso   1.00
C1166  C     0.98697   0.17393   0.84990   0.00000  Uiso   1.00
C1167  C     0.81007   0.02154   0.79449   0.00000  Uiso   1.00
C1168  C     0.85659   0.31179   0.87218   0.00000  Uiso   1.00
C1169  C     0.81016   0.31203   0.79440   0.00000  Uiso   1.00
C1170  C     0.85650   0.02130   0.87226   0.00000  Uiso   1.00
C1171  C     0.83348   0.29079   0.83322   0.00000  Uiso   1.00
C1172  C     0.83318   0.04255   0.83345   0.00000  Uiso   1.00
C1173  C     0.86980   0.18935   0.69486   0.00000  Uiso   1.00
C1174  C     0.79687   0.14398   0.97180   0.00000  Uiso   1.00
C1175  C     0.86988   0.18892   0.98019   0.00000  Uiso   1.00
C1176  C     0.79679   0.14441   0.68648   0.00000  Uiso   1.00
H1177  H     0.79155   0.03819   0.76457   0.00000  Uiso   1.00
H1178  H     0.87512   0.29514   0.90209   0.00000  Uiso   1.00
H1179  H     0.79151   0.29558   0.76452   0.00000  Uiso   1.00
H1180  H     0.87516   0.03775   0.90214   0.00000  Uiso   1.00
H1181  H     0.89905   0.20662   0.96522   0.00000  Uiso   1.00
H1182  H     0.76762   0.12671   0.70145   0.00000  Uiso   1.00
N1183  N     0.83332   0.16666   0.95240   0.00000  Uiso   1.00
N1184  N     0.83335   0.16668   0.71427   0.00000  Uiso   1.00
O1185  O     0.83333   0.10558   0.87154   0.00000  Uiso   1.00
O1186  O     0.83334   0.22775   0.79513   0.00000  Uiso   1.00
O1187  O     0.83333   0.10559   0.79510   0.00000  Uiso   1.00
O1188  O     0.83334   0.22774   0.87157   0.00000  Uiso   1.00
O1189  O     0.75725   0.16666   0.86261   0.00000  Uiso   1.00
O1190  O     0.90942   0.16667   0.80405   0.00000  Uiso   1.00
O1191  O     0.75725   0.16667   0.78617   0.00000  Uiso   1.00
O1192  O     0.90942   0.16666   0.88050   0.00000  Uiso   1.00
Zn1193 Zn    0.83333   0.16666   0.88437   0.00000  Uiso   1.00
Zn1194 Zn    0.83333   0.16667   0.78229   0.00000  Uiso   1.00
N1195  N     0.98994   0.13205   0.78128   0.00000  Uiso   1.00
H1196  H     0.67133   0.13565   0.75084   0.00000  Uiso   1.00
C1197  C     0.98787   0.08862   0.79488   0.00000  Uiso   1.00
H1198  H     0.96709   0.07009   0.76624   0.00000  Uiso   1.00
H1199  H     0.96627   0.08511   0.82462   0.00000  Uiso   1.00
H1200  H     0.69474   0.07610   0.80386   0.00000  Uiso   1.00
N1201  N     0.67673   0.20128   0.88539   0.00000  Uiso   1.00
H1202  H     0.99533   0.19768   0.91582   0.00000  Uiso   1.00
C1203  C     0.67880   0.24472   0.87178   0.00000  Uiso   1.00
H1204  H     0.69958   0.26324   0.90043   0.00000  Uiso   1.00
H1205  H     0.97192   0.25724   0.86281   0.00000  Uiso   1.00
H1206  H     0.70040   0.24822   0.84205   0.00000  Uiso   1.00
N1207  N     0.90810   0.21289   0.72306   0.00000  Uiso   1.00
H1208  H     0.94567   0.20390   0.71986   0.00000  Uiso   1.00
C1209  C     0.90178   0.25769   0.71882   0.00000  Uiso   1.00
H1210  H     0.92870   0.27330   0.74622   0.00000  Uiso   1.00
H1211  H     0.86111   0.26671   0.72229   0.00000  Uiso   1.00
H1212  H     0.91113   0.26868   0.68519   0.00000  Uiso   1.00
N1213  N     0.75857   0.12044   0.94360   0.00000  Uiso   1.00
H1214  H     0.72100   0.12943   0.94681   0.00000  Uiso   1.00
C1215  C     0.76489   0.07564   0.94784   0.00000  Uiso   1.00
H1216  H     0.73798   0.06004   0.92044   0.00000  Uiso   1.00
H1217  H     0.75554   0.06465   0.98147   0.00000  Uiso   1.00
H1218  H     0.80556   0.06662   0.94438   0.00000  Uiso   1.00
C1219  C     0.16659   0.42002   0.83339   0.00000  Uiso   1.00
C1220  C     0.16674   0.57998   0.83327   0.00000  Uiso   1.00
C1221  C     0.06730   0.49941   0.82167   0.00000  Uiso   1.00
C1222  C     0.26604   0.50059   0.84500   0.00000  Uiso   1.00
C1223  C     0.01303   0.49274   0.81677   0.00000  Uiso   1.00
C1224  C     0.32031   0.50726   0.84990   0.00000  Uiso   1.00
C1225  C     0.14341   0.35488   0.79449   0.00000  Uiso   1.00
C1226  C     0.18993   0.64512   0.87218   0.00000  Uiso   1.00
C1227  C     0.14350   0.64537   0.79440   0.00000  Uiso   1.00
C1228  C     0.18984   0.35463   0.87226   0.00000  Uiso   1.00
C1229  C     0.16682   0.62412   0.83322   0.00000  Uiso   1.00
C1230  C     0.16652   0.37588   0.83345   0.00000  Uiso   1.00
C1231  C     0.20313   0.52269   0.69486   0.00000  Uiso   1.00
C1232  C     0.13021   0.47731   0.97180   0.00000  Uiso   1.00
C1233  C     0.20321   0.52226   0.98019   0.00000  Uiso   1.00
C1234  C     0.13012   0.47774   0.68648   0.00000  Uiso   1.00
H1235  H     0.12488   0.37152   0.76457   0.00000  Uiso   1.00
H1236  H     0.20845   0.62848   0.90209   0.00000  Uiso   1.00
H1237  H     0.12484   0.62892   0.76452   0.00000  Uiso   1.00
H1238  H     0.20849   0.37108   0.90214   0.00000  Uiso   1.00
H1239  H     0.23238   0.53996   0.96522   0.00000  Uiso   1.00
H1240  H     0.10095   0.46004   0.70145   0.00000  Uiso   1.00
N1241  N     0.16665   0.49999   0.95240   0.00000  Uiso   1.00
N1242  N     0.16668   0.50001   0.71427   0.00000  Uiso   1.00
O1243  O     0.16666   0.43892   0.87154   0.00000  Uiso   1.00
O1244  O     0.16667   0.56108   0.79513   0.00000  Uiso   1.00
O1245  O     0.16666   0.43893   0.79510   0.00000  Uiso   1.00
O1246  O     0.16667   0.56107   0.87157   0.00000  Uiso   1.00
O1247  O     0.09058   0.50000   0.86261   0.00000  Uiso   1.00
O1248  O     0.24275   0.50000   0.80405   0.00000  Uiso   1.00
O1249  O     0.09058   0.50000   0.78617   0.00000  Uiso   1.00
O1250  O     0.24275   0.50000   0.88050   0.00000  Uiso   1.00
Zn1251 Zn    0.16667   0.49999   0.88437   0.00000  Uiso   1.00
Zn1252 Zn    0.16667   0.50001   0.78229   0.00000  Uiso   1.00
N1253  N     0.32327   0.46538   0.78128   0.00000  Uiso   1.00
H1254  H     0.00467   0.46899   0.75084   0.00000  Uiso   1.00
C1255  C     0.32120   0.42195   0.79488   0.00000  Uiso   1.00
H1256  H     0.30042   0.40343   0.76624   0.00000  Uiso   1.00
H1257  H     0.29961   0.41845   0.82462   0.00000  Uiso   1.00
H1258  H     0.02808   0.40943   0.80386   0.00000  Uiso   1.00
N1259  N     0.01006   0.53462   0.88539   0.00000  Uiso   1.00
H1260  H     0.32867   0.53101   0.91582   0.00000  Uiso   1.00
C1261  C     0.01213   0.57805   0.87178   0.00000  Uiso   1.00
H1262  H     0.03291   0.59657   0.90043   0.00000  Uiso   1.00
H1263  H     0.30526   0.59057   0.86281   0.00000  Uiso   1.00
H1264  H     0.03373   0.58155   0.84205   0.00000  Uiso   1.00
N1265  N     0.24143   0.54623   0.72306   0.00000  Uiso   1.00
H1266  H     0.27900   0.53724   0.71986   0.00000  Uiso   1.00
C1267  C     0.23511   0.59103   0.71882   0.00000  Uiso   1.00
H1268  H     0.26203   0.60663   0.74622   0.00000  Uiso   1.00
H1269  H     0.19444   0.60004   0.72229   0.00000  Uiso   1.00
H1270  H     0.24446   0.60202   0.68519   0.00000  Uiso   1.00
N1271  N     0.09190   0.45377   0.94360   0.00000  Uiso   1.00
H1272  H     0.05433   0.46276   0.94681   0.00000  Uiso   1.00
C1273  C     0.09822   0.40897   0.94784   0.00000  Uiso   1.00
H1274  H     0.07131   0.39337   0.92044   0.00000  Uiso   1.00
H1275  H     0.08887   0.39798   0.98147   0.00000  Uiso   1.00
H1276  H     0.13890   0.39996   0.94438   0.00000  Uiso   1.00
C1277  C     0.49992   0.42002   0.83339   0.00000  Uiso   1.00
C1278  C     0.50008   0.57998   0.83327   0.00000  Uiso   1.00
C1279  C     0.40063   0.49941   0.82167   0.00000  Uiso   1.00
C1280  C     0.59937   0.50059   0.84500   0.00000  Uiso   1.00
C1281  C     0.34636   0.49274   0.81677   0.00000  Uiso   1.00
C1282  C     0.65364   0.50726   0.84990   0.00000  Uiso   1.00
C1283  C     0.47674   0.35488   0.79449   0.00000  Uiso   1.00
C1284  C     0.52326   0.64512   0.87218   0.00000  Uiso   1.00
C1285  C     0.47683   0.64537   0.79440   0.00000  Uiso   1.00
C1286  C     0.52317   0.35463   0.87226   0.00000  Uiso   1.00
C1287  C     0.50015   0.62412   0.83322   0.00000  Uiso   1.00
C1288  C     0.49985   0.37588   0.83345   0.00000  Uiso   1.00
C1289  C     0.53646   0.52269   0.69486   0.00000  Uiso   1.00
C1290  C     0.46354   0.47731   0.97180   0.00000  Uiso   1.00
C1291  C     0.53655   0.52226   0.98019   0.00000  Uiso   1.00
C1292  C     0.46345   0.47774   0.68648   0.00000  Uiso   1.00
H1293  H     0.45821   0.37152   0.76457   0.00000  Uiso   1.00
H1294  H     0.54179   0.62848   0.90209   0.00000  Uiso   1.00
H1295  H     0.45818   0.62892   0.76452   0.00000  Uiso   1.00
H1296  H     0.54182   0.37108   0.90214   0.00000  Uiso   1.00
H1297  H     0.56571   0.53996   0.96522   0.00000  Uiso   1.00
H1298  H     0.43429   0.46004   0.70145   0.00000  Uiso   1.00
N1299  N     0.49999   0.49999   0.95240   0.00000  Uiso   1.00
N1300  N     0.50001   0.50001   0.71427   0.00000  Uiso   1.00
O1301  O     0.50000   0.43892   0.87154   0.00000  Uiso   1.00
O1302  O     0.50000   0.56108   0.79513   0.00000  Uiso   1.00
O1303  O     0.50000   0.43893   0.79510   0.00000  Uiso   1.00
O1304  O     0.50000   0.56107   0.87157   0.00000  Uiso   1.00
O1305  O     0.42392   0.50000   0.86261   0.00000  Uiso   1.00
O1306  O     0.57608   0.50000   0.80405   0.00000  Uiso   1.00
O1307  O     0.42392   0.50000   0.78617   0.00000  Uiso   1.00
O1308  O     0.57608   0.50000   0.88050   0.00000  Uiso   1.00
Zn1309 Zn    0.50000   0.49999   0.88437   0.00000  Uiso   1.00
Zn1310 Zn    0.50000   0.50001   0.78229   0.00000  Uiso   1.00
N1311  N     0.65661   0.46538   0.78128   0.00000  Uiso   1.00
H1312  H     0.33800   0.46899   0.75084   0.00000  Uiso   1.00
C1313  C     0.65453   0.42195   0.79488   0.00000  Uiso   1.00
H1314  H     0.63375   0.40343   0.76624   0.00000  Uiso   1.00
H1315  H     0.63294   0.41845   0.82462   0.00000  Uiso   1.00
H1316  H     0.36141   0.40943   0.80386   0.00000  Uiso   1.00
N1317  N     0.34339   0.53462   0.88539   0.00000  Uiso   1.00
H1318  H     0.66200   0.53101   0.91582   0.00000  Uiso   1.00
C1319  C     0.34547   0.57805   0.87178   0.00000  Uiso   1.00
H1320  H     0.36625   0.59657   0.90043   0.00000  Uiso   1.00
H1321  H     0.63859   0.59057   0.86281   0.00000  Uiso   1.00
H1322  H     0.36706   0.58155   0.84205   0.00000  Uiso   1.00
N1323  N     0.57476   0.54623   0.72306   0.00000  Uiso   1.00
H1324  H     0.61234   0.53724   0.71986   0.00000  Uiso   1.00
C1325  C     0.56845   0.59103   0.71882   0.00000  Uiso   1.00
H1326  H     0.59536   0.60663   0.74622   0.00000  Uiso   1.00
H1327  H     0.52777   0.60004   0.72229   0.00000  Uiso   1.00
H1328  H     0.57779   0.60202   0.68519   0.00000  Uiso   1.00
N1329  N     0.42524   0.45377   0.94360   0.00000  Uiso   1.00
H1330  H     0.38766   0.46276   0.94681   0.00000  Uiso   1.00
C1331  C     0.43156   0.40897   0.94784   0.00000  Uiso   1.00
H1332  H     0.40464   0.39337   0.92044   0.00000  Uiso   1.00
H1333  H     0.42220   0.39798   0.98147   0.00000  Uiso   1.00
H1334  H     0.47223   0.39996   0.94438   0.00000  Uiso   1.00
C1335  C     0.83326   0.42002   0.83339   0.00000  Uiso   1.00
C1336  C     0.83341   0.57998   0.83327   0.00000  Uiso   1.00
C1337  C     0.73396   0.49941   0.82167   0.00000  Uiso   1.00
C1338  C     0.93270   0.50059   0.84500   0.00000  Uiso   1.00
C1339  C     0.67969   0.49274   0.81677   0.00000  Uiso   1.00
C1340  C     0.98697   0.50726   0.84990   0.00000  Uiso   1.00
C1341  C     0.81007   0.35488   0.79449   0.00000  Uiso   1.00
C1342  C     0.85659   0.64512   0.87218   0.00000  Uiso   1.00
C1343  C     0.81016   0.64537   0.79440   0.00000  Uiso   1.00
C1344  C     0.85650   0.35463   0.87226   0.00000  Uiso   1.00
C1345  C     0.83348   0.62412   0.83322   0.00000  Uiso   1.00
C1346  C     0.83318   0.37588   0.83345   0.00000  Uiso   1.00
C1347  C     0.86980   0.52269   0.69486   0.00000  Uiso   1.00
C1348  C     0.79687   0.47731   0.97180   0.00000  Uiso   1.00
C1349  C     0.86988   0.52226   0.98019   0.00000  Uiso   1.00
C1350  C     0.79679   0.47774   0.68648   0.00000  Uiso   1.00
H1351  H     0.79155   0.37152   0.76457   0.00000  Uiso   1.00
H1352  H     0.87512   0.62848   0.90209   0.00000  Uiso   1.00
H1353  H     0.79151   0.62892   0.76452   0.00000  Uiso   1.00
H1354  H     0.87516   0.37108   0.90214   0.00000  Uiso   1.00
H1355  H     0.89905   0.53996   0.96522   0.00000  Uiso   1.00
H1356  H     0.76762   0.46004   0.70145   0.00000  Uiso   1.00
N1357  N     0.83332   0.49999   0.95240   0.00000  Uiso   1.00
N1358  N     0.83335   0.50001   0.71427   0.00000  Uiso   1.00
O1359  O     0.83333   0.43892   0.87154   0.00000  Uiso   1.00
O1360  O     0.83334   0.56108   0.79513   0.00000  Uiso   1.00
O1361  O     0.83333   0.43893   0.79510   0.00000  Uiso   1.00
O1362  O     0.83334   0.56107   0.87157   0.00000  Uiso   1.00
O1363  O     0.75725   0.50000   0.86261   0.00000  Uiso   1.00
O1364  O     0.90942   0.50000   0.80405   0.00000  Uiso   1.00
O1365  O     0.75725   0.50000   0.78617   0.00000  Uiso   1.00
O1366  O     0.90942   0.50000   0.88050   0.00000  Uiso   1.00
Zn1367 Zn    0.83333   0.49999   0.88437   0.00000  Uiso   1.00
Zn1368 Zn    0.83333   0.50001   0.78229   0.00000  Uiso   1.00
N1369  N     0.98994   0.46538   0.78128   0.00000  Uiso   1.00
H1370  H     0.67133   0.46899   0.75084   0.00000  Uiso   1.00
C1371  C     0.98787   0.42195   0.79488   0.00000  Uiso   1.00
H1372  H     0.96709   0.40343   0.76624   0.00000  Uiso   1.00
H1373  H     0.96627   0.41845   0.82462   0.00000  Uiso   1.00
H1374  H     0.69474   0.40943   0.80386   0.00000  Uiso   1.00
N1375  N     0.67673   0.53462   0.88539   0.00000  Uiso   1.00
H1376  H     0.99533   0.53101   0.91582   0.00000  Uiso   1.00
C1377  C     0.67880   0.57805   0.87178   0.00000  Uiso   1.00
H1378  H     0.69958   0.59657   0.90043   0.00000  Uiso   1.00
H1379  H     0.97192   0.59057   0.86281   0.00000  Uiso   1.00
H1380  H     0.70040   0.58155   0.84205   0.00000  Uiso   1.00
N1381  N     0.90810   0.54623   0.72306   0.00000  Uiso   1.00
H1382  H     0.94567   0.53724   0.71986   0.00000  Uiso   1.00
C1383  C     0.90178   0.59103   0.71882   0.00000  Uiso   1.00
H1384  H     0.92870   0.60663   0.74622   0.00000  Uiso   1.00
H1385  H     0.86111   0.60004   0.72229   0.00000  Uiso   1.00
H1386  H     0.91113   0.60202   0.68519   0.00000  Uiso   1.00
N1387  N     0.75857   0.45377   0.94360   0.00000  Uiso   1.00
H1388  H     0.72100   0.46276   0.94681   0.00000  Uiso   1.00
C1389  C     0.76489   0.40897   0.94784   0.00000  Uiso   1.00
H1390  H     0.73798   0.39337   0.92044   0.00000  Uiso   1.00
H1391  H     0.75554   0.39798   0.98147   0.00000  Uiso   1.00
H1392  H     0.80556   0.39996   0.94438   0.00000  Uiso   1.00
C1393  C     0.16659   0.75335   0.83339   0.00000  Uiso   1.00
C1394  C     0.16674   0.91331   0.83327   0.00000  Uiso   1.00
C1395  C     0.06730   0.83274   0.82167   0.00000  Uiso   1.00
C1396  C     0.26604   0.83392   0.84500   0.00000  Uiso   1.00
C1397  C     0.01303   0.82607   0.81677   0.00000  Uiso   1.00
C1398  C     0.32031   0.84059   0.84990   0.00000  Uiso   1.00
C1399  C     0.14341   0.68821   0.79449   0.00000  Uiso   1.00
C1400  C     0.18993   0.97846   0.87218   0.00000  Uiso   1.00
C1401  C     0.14350   0.97870   0.79440   0.00000  Uiso   1.00
C1402  C     0.18984   0.68797   0.87226   0.00000  Uiso   1.00
C1403  C     0.16682   0.95745   0.83322   0.00000  Uiso   1.00
C1404  C     0.16652   0.70921   0.83345   0.00000  Uiso   1.00
C1405  C     0.20313   0.85602   0.69486   0.00000  Uiso   1.00
C1406  C     0.13021   0.81065   0.97180   0.00000  Uiso   1.00
C1407  C     0.20321   0.85559   0.98019   0.00000  Uiso   1.00
C1408  C     0.13012   0.81108   0.68648   0.00000  Uiso   1.00
H1409  H     0.12488   0.70486   0.76457   0.00000  Uiso   1.00
H1410  H     0.20845   0.96181   0.90209   0.00000  Uiso   1.00
H1411  H     0.12484   0.96225   0.76452   0.00000  Uiso   1.00
H1412  H     0.20849   0.70442   0.90214   0.00000  Uiso   1.00
H1413  H     0.23238   0.87329   0.96522   0.00000  Uiso   1.00
H1414  H     0.10095   0.79338   0.70145   0.00000  Uiso   1.00
N1415  N     0.16665   0.83332   0.95240   0.00000  Uiso   1.00
N1416  N     0.16668   0.83334   0.71427   0.00000  Uiso   1.00
O1417  O     0.16666   0.77225   0.87154   0.00000  Uiso   1.00
O1418  O     0.16667   0.89442   0.79513   0.00000  Uiso   1.00
O1419  O     0.16666   0.77226   0.79510   0.00000  Uiso   1.00
O1420  O     0.16667   0.89441   0.87157   0.00000  Uiso   1.00
O1421  O     0.09058   0.83333   0.86261   0.00000  Uiso   1.00
O1422  O     0.24275   0.83334   0.80405   0.00000  Uiso   1.00
O1423  O     0.09058   0.83334   0.78617   0.00000  Uiso   1.00
O1424  O     0.24275   0.83333   0.88050   0.00000  Uiso   1.00
Zn1425 Zn    0.16667   0.83333   0.88437   0.00000  Uiso   1.00
Zn1426 Zn    0.16667   0.83334   0.78229   0.00000  Uiso   1.00
N1427  N     0.32327   0.79872   0.78128   0.00000  Uiso   1.00
H1428  H     0.00467   0.80232   0.75084   0.00000  Uiso   1.00
C1429  C     0.32120   0.75528   0.79488   0.00000  Uiso   1.00
H1430  H     0.30042   0.73676   0.76624   0.00000  Uiso   1.00
H1431  H     0.29961   0.75178   0.82462   0.00000  Uiso   1.00
H1432  H     0.02808   0.74276   0.80386   0.00000  Uiso   1.00
N1433  N     0.01006   0.86795   0.88539   0.00000  Uiso   1.00
H1434  H     0.32867   0.86435   0.91582   0.00000  Uiso   1.00
C1435  C     0.01213   0.91138   0.87178   0.00000  Uiso   1.00
H1436  H     0.03291   0.92991   0.90043   0.00000  Uiso   1.00
H1437  H     0.30526   0.92390   0.86281   0.00000  Uiso   1.00
H1438  H     0.03373   0.91489   0.84205   0.00000  Uiso   1.00
N1439  N     0.24143   0.87956   0.72306   0.00000  Uiso   1.00
H1440  H     0.27900   0.87057   0.71986   0.00000  Uiso   1.00
C1441  C     0.23511   0.92436   0.71882   0.00000  Uiso   1.00
H1442  H     0.26203   0.93996   0.74622   0.00000  Uiso   1.00
H1443  H     0.19444   0.93338   0.72229   0.00000  Uiso   1.00
H1444  H     0.24446   0.93535   0.68519   0.00000  Uiso   1.00
N1445  N     0.09190   0.78711   0.94360   0.00000  Uiso   1.00
H1446  H     0.05433   0.79610   0.94681   0.00000  Uiso   1.00
C1447  C     0.09822   0.74231   0.94784   0.00000  Uiso   1.00
H1448  H     0.07131   0.72670   0.92044   0.00000  Uiso   1.00
H1449  H     0.08887   0.73132   0.98147   0.00000  Uiso   1.00
H1450  H     0.13890   0.73329   0.94438   0.00000  Uiso   1.00
C1451  C     0.49992   0.75335   0.83339   0.00000  Uiso   1.00
C1452  C     0.50008   0.91331   0.83327   0.00000  Uiso   1.00
C1453  C     0.40063   0.83274   0.82167   0.00000  Uiso   1.00
C1454  C     0.59937   0.83392   0.84500   0.00000  Uiso   1.00
C1455  C     0.34636   0.82607   0.81677   0.00000  Uiso   1.00
C1456  C     0.65364   0.84059   0.84990   0.00000  Uiso   1.00
C1457  C     0.47674   0.68821   0.79449   0.00000  Uiso   1.00
C1458  C     0.52326   0.97846   0.87218   0.00000  Uiso   1.00
C1459  C     0.47683   0.97870   0.79440   0.00000  Uiso   1.00
C1460  C     0.52317   0.68797   0.87226   0.00000  Uiso   1.00
C1461  C     0.50015   0.95745   0.83322   0.00000  Uiso   1.00
C1462  C     0.49985   0.70921   0.83345   0.00000  Uiso   1.00
C1463  C     0.53646   0.85602   0.69486   0.00000  Uiso   1.00
C1464  C     0.46354   0.81065   0.97180   0.00000  Uiso   1.00
C1465  C     0.53655   0.85559   0.98019   0.00000  Uiso   1.00
C1466  C     0.46345   0.81108   0.68648   0.00000  Uiso   1.00
H1467  H     0.45821   0.70486   0.76457   0.00000  Uiso   1.00
H1468  H     0.54179   0.96181   0.90209   0.00000  Uiso   1.00
H1469  H     0.45818   0.96225   0.76452   0.00000  Uiso   1.00
H1470  H     0.54182   0.70442   0.90214   0.00000  Uiso   1.00
H1471  H     0.56571   0.87329   0.96522   0.00000  Uiso   1.00
H1472  H     0.43429   0.79338   0.70145   0.00000  Uiso   1.00
N1473  N     0.49999   0.83332   0.95240   0.00000  Uiso   1.00
N1474  N     0.50001   0.83334   0.71427   0.00000  Uiso   1.00
O1475  O     0.50000   0.77225   0.87154   0.00000  Uiso   1.00
O1476  O     0.50000   0.89442   0.79513   0.00000  Uiso   1.00
O1477  O     0.50000   0.77226   0.79510   0.00000  Uiso   1.00
O1478  O     0.50000   0.89441   0.87157   0.00000  Uiso   1.00
O1479  O     0.42392   0.83333   0.86261   0.00000  Uiso   1.00
O1480  O     0.57608   0.83334   0.80405   0.00000  Uiso   1.00
O1481  O     0.42392   0.83334   0.78617   0.00000  Uiso   1.00
O1482  O     0.57608   0.83333   0.88050   0.00000  Uiso   1.00
Zn1483 Zn    0.50000   0.83333   0.88437   0.00000  Uiso   1.00
Zn1484 Zn    0.50000   0.83334   0.78229   0.00000  Uiso   1.00
N1485  N     0.65661   0.79872   0.78128   0.00000  Uiso   1.00
H1486  H     0.33800   0.80232   0.75084   0.00000  Uiso   1.00
C1487  C     0.65453   0.75528   0.79488   0.00000  Uiso   1.00
H1488  H     0.63375   0.73676   0.76624   0.00000  Uiso   1.00
H1489  H     0.63294   0.75178   0.82462   0.00000  Uiso   1.00
H1490  H     0.36141   0.74276   0.80386   0.00000  Uiso   1.00
N1491  N     0.34339   0.86795   0.88539   0.00000  Uiso   1.00
H1492  H     0.66200   0.86435   0.91582   0.00000  Uiso   1.00
C1493  C     0.34547   0.91138   0.87178   0.00000  Uiso   1.00
H1494  H     0.36625   0.92991   0.90043   0.00000  Uiso   1.00
H1495  H     0.63859   0.92390   0.86281   0.00000  Uiso   1.00
H1496  H     0.36706   0.91489   0.84205   0.00000  Uiso   1.00
N1497  N     0.57476   0.87956   0.72306   0.00000  Uiso   1.00
H1498  H     0.61234   0.87057   0.71986   0.00000  Uiso   1.00
C1499  C     0.56845   0.92436   0.71882   0.00000  Uiso   1.00
H1500  H     0.59536   0.93996   0.74622   0.00000  Uiso   1.00
H1501  H     0.52777   0.93338   0.72229   0.00000  Uiso   1.00
H1502  H     0.57779   0.93535   0.68519   0.00000  Uiso   1.00
N1503  N     0.42524   0.78711   0.94360   0.00000  Uiso   1.00
H1504  H     0.38766   0.79610   0.94681   0.00000  Uiso   1.00
C1505  C     0.43156   0.74231   0.94784   0.00000  Uiso   1.00
H1506  H     0.40464   0.72670   0.92044   0.00000  Uiso   1.00
H1507  H     0.42220   0.73132   0.98147   0.00000  Uiso   1.00
H1508  H     0.47223   0.73329   0.94438   0.00000  Uiso   1.00
C1509  C     0.83326   0.75335   0.83339   0.00000  Uiso   1.00
C1510  C     0.83341   0.91331   0.83327   0.00000  Uiso   1.00
C1511  C     0.73396   0.83274   0.82167   0.00000  Uiso   1.00
C1512  C     0.93270   0.83392   0.84500   0.00000  Uiso   1.00
C1513  C     0.67969   0.82607   0.81677   0.00000  Uiso   1.00
C1514  C     0.98697   0.84059   0.84990   0.00000  Uiso   1.00
C1515  C     0.81007   0.68821   0.79449   0.00000  Uiso   1.00
C1516  C     0.85659   0.97846   0.87218   0.00000  Uiso   1.00
C1517  C     0.81016   0.97870   0.79440   0.00000  Uiso   1.00
C1518  C     0.85650   0.68797   0.87226   0.00000  Uiso   1.00
C1519  C     0.83348   0.95745   0.83322   0.00000  Uiso   1.00
C1520  C     0.83318   0.70921   0.83345   0.00000  Uiso   1.00
C1521  C     0.86980   0.85602   0.69486   0.00000  Uiso   1.00
C1522  C     0.79687   0.81065   0.97180   0.00000  Uiso   1.00
C1523  C     0.86988   0.85559   0.98019   0.00000  Uiso   1.00
C1524  C     0.79679   0.81108   0.68648   0.00000  Uiso   1.00
H1525  H     0.79155   0.70486   0.76457   0.00000  Uiso   1.00
H1526  H     0.87512   0.96181   0.90209   0.00000  Uiso   1.00
H1527  H     0.79151   0.96225   0.76452   0.00000  Uiso   1.00
H1528  H     0.87516   0.70442   0.90214   0.00000  Uiso   1.00
H1529  H     0.89905   0.87329   0.96522   0.00000  Uiso   1.00
H1530  H     0.76762   0.79338   0.70145   0.00000  Uiso   1.00
N1531  N     0.83332   0.83332   0.95240   0.00000  Uiso   1.00
N1532  N     0.83335   0.83334   0.71427   0.00000  Uiso   1.00
O1533  O     0.83333   0.77225   0.87154   0.00000  Uiso   1.00
O1534  O     0.83334   0.89442   0.79513   0.00000  Uiso   1.00
O1535  O     0.83333   0.77226   0.79510   0.00000  Uiso   1.00
O1536  O     0.83334   0.89441   0.87157   0.00000  Uiso   1.00
O1537  O     0.75725   0.83333   0.86261   0.00000  Uiso   1.00
O1538  O     0.90942   0.83334   0.80405   0.00000  Uiso   1.00
O1539  O     0.75725   0.83334   0.78617   0.00000  Uiso   1.00
O1540  O     0.90942   0.83333   0.88050   0.00000  Uiso   1.00
Zn1541 Zn    0.83333   0.83333   0.88437   0.00000  Uiso   1.00
Zn1542 Zn    0.83333   0.83334   0.78229   0.00000  Uiso   1.00
N1543  N     0.98994   0.79872   0.78128   0.00000  Uiso   1.00
H1544  H     0.67133   0.80232   0.75084   0.00000  Uiso   1.00
C1545  C     0.98787   0.75528   0.79488   0.00000  Uiso   1.00
H1546  H     0.96709   0.73676   0.76624   0.00000  Uiso   1.00
H1547  H     0.96627   0.75178   0.82462   0.00000  Uiso   1.00
H1548  H     0.69474   0.74276   0.80386   0.00000  Uiso   1.00
N1549  N     0.67673   0.86795   0.88539   0.00000  Uiso   1.00
H1550  H     0.99533   0.86435   0.91582   0.00000  Uiso   1.00
C1551  C     0.67880   0.91138   0.87178   0.00000  Uiso   1.00
H1552  H     0.69958   0.92991   0.90043   0.00000  Uiso   1.00
H1553  H     0.97192   0.92390   0.86281   0.00000  Uiso   1.00
H1554  H     0.70040   0.91489   0.84205   0.00000  Uiso   1.00
N1555  N     0.90810   0.87956   0.72306   0.00000  Uiso   1.00
H1556  H     0.94567   0.87057   0.71986   0.00000  Uiso   1.00
C1557  C     0.90178   0.92436   0.71882   0.00000  Uiso   1.00
H1558  H     0.92870   0.93996   0.74622   0.00000  Uiso   1.00
H1559  H     0.86111   0.93338   0.72229   0.00000  Uiso   1.00
H1560  H     0.91113   0.93535   0.68519   0.00000  Uiso   1.00
N1561  N     0.75857   0.78711   0.94360   0.00000  Uiso   1.00
H1562  H     0.72100   0.79610   0.94681   0.00000  Uiso   1.00
C1563  C     0.76489   0.74231   0.94784   0.00000  Uiso   1.00
H1564  H     0.73798   0.72670   0.92044   0.00000  Uiso   1.00
H1565  H     0.75554   0.73132   0.98147   0.00000  Uiso   1.00
H1566  H     0.80556   0.73329   0.94438   0.00000  Uiso   1.00
loop_
_geom_bond_atom_site_label_1
_geom_bond_atom_site_label_2
_geom_bond_distance
_geom_bond_site_symmetry_2
_ccdc_geom_bond_type
C1     O25     1.284   .     A
C1     C12     1.412   .     S
C1     O27     1.282   .     A
C2     O26     1.284   .     A
C2     C11     1.412   .     S
C2     O28     1.282   .     A
C3     O31     1.282   .     A
C3     C5      1.405   .     S
C3     O29     1.275   .     A
C4     O32     1.282   .     A
C4     C6      1.405   .     S
C4     O30     1.275   .     A
C5     C122    1.351   1_455 S
C5     N151    1.433   1_455 S
C6     C63     1.351   .     S
C6     N99     1.433   .     S
C7     C12     1.396   .     A
C7     H17     1.084   .     S
C7     C357    1.371   1_545 S
C8     H18     1.084   .     S
C8     C11     1.396   .     A
C8     C184    1.371   .     S
C9     C11     1.395   .     A
C9     H19     1.084   .     S
C9     C181    1.371   .     S
C10    C12     1.395   .     A
C10    H20     1.084   .     S
C10    C356    1.371   1_545 S
C13    N47     1.418   .     S
C13    N24     1.372   .     A
C13    C1059   1.421   1_554 S
C14    N23     1.372   .     A
C14    N53     1.418   .     S
C14    C538    1.421   .     S
C15    N23     1.363   .     A
C15    H21     1.082   .     S
C15    C535    1.421   .     S
C16    N24     1.363   .     A
C16    H22     1.082   .     S
C16    C1058   1.421   1_554 S
N23    Zn33    2.013   .     S
N24    Zn34    2.013   .     S
O25    Zn33    1.993   .     S
O26    Zn34    1.993   .     S
O27    Zn34    1.989   .     S
O28    Zn33    1.989   .     S
O29    Zn33    1.981   .     S
O30    Zn34    1.981   .     S
O31    Zn34    1.985   .     S
O32    Zn33    1.985   .     S
N35    C37     1.447   .     S
N35    C63     1.433   .     S
N35    H94     1.032   .     S
H36    N151    1.032   1_455 S
C37    H38     1.110   .     S
C37    H39     1.111   .     S
C37    H98     1.112   .     S
H40    C153    1.112   1_455 S
N41    C43     1.447   .     S
N41    C122    1.433   1_455 S
N41    H158    1.032   1_455 S
H42    N99     1.032   .     S
C43    H44     1.110   .     S
C43    H46     1.111   .     S
C43    H161    1.112   1_455 S
H45    C101    1.112   .     S
N47    H48     1.031   .     S
N47    C49     1.446   .     S
C49    H52     1.111   .     S
C49    H50     1.110   .     S
C49    H51     1.110   .     S
N53    C55     1.446   .     S
N53    H54     1.031   .     S
C55    H56     1.110   .     S
C55    H57     1.111   .     S
C55    H58     1.110   .     S
C59    O83     1.284   .     A
C59    C70     1.412   .     S
C59    O85     1.282   .     A
C60    O84     1.284   .     A
C60    C69     1.412   .     S
C60    O86     1.282   .     A
C61    O89     1.282   .     A
C61    C63     1.405   .     S
C61    O87     1.275   .     A
C62    O90     1.282   .     A
C62    C64     1.405   .     S
C62    O88     1.275   .     A
C64    C121    1.351   .     S
C64    N157    1.433   .     S
C65    C70     1.396   .     A
C65    H75     1.084   .     S
C65    C415    1.371   1_545 S
C66    H76     1.084   .     S
C66    C69     1.396   .     A
C66    C242    1.371   .     S
C67    C69     1.395   .     A
C67    H77     1.084   .     S
C67    C239    1.371   .     S
C68    C70     1.395   .     A
C68    H78     1.084   .     S
C68    C414    1.371   1_545 S
C71    N105    1.418   .     S
C71    N82     1.372   .     A
C71    C1117   1.421   1_554 S
C72    N81     1.372   .     A
C72    N111    1.418   .     S
C72    C596    1.421   .     S
C73    N81     1.363   .     A
C73    H79     1.082   .     S
C73    C593    1.421   .     S
C74    N82     1.363   .     A
C74    H80     1.082   .     S
C74    C1116   1.421   1_554 S
N81    Zn91    2.013   .     S
N82    Zn92    2.013   .     S
O83    Zn91    1.993   .     S
O84    Zn92    1.993   .     S
O85    Zn92    1.989   .     S
O86    Zn91    1.989   .     S
O87    Zn91    1.981   .     S
O88    Zn92    1.981   .     S
O89    Zn92    1.985   .     S
O90    Zn91    1.985   .     S
N93    C95     1.447   .     S
N93    C121    1.433   .     S
N93    H152    1.032   .     S
C95    H96     1.110   .     S
C95    H97     1.111   .     S
C95    H156    1.112   .     S
N99    C101    1.447   .     S
H100   N157    1.032   .     S
C101   H102    1.110   .     S
C101   H104    1.111   .     S
H103   C159    1.112   .     S
N105   H106    1.031   .     S
N105   C107    1.446   .     S
C107   H110    1.111   .     S
C107   H108    1.110   .     S
C107   H109    1.110   .     S
N111   C113    1.446   .     S
N111   H112    1.031   .     S
C113   H114    1.110   .     S
C113   H115    1.111   .     S
C113   H116    1.110   .     S
C117   O141    1.284   .     A
C117   C128    1.412   .     S
C117   O143    1.282   .     A
C118   O142    1.284   .     A
C118   C127    1.412   .     S
C118   O144    1.282   .     A
C119   O147    1.282   .     A
C119   C121    1.405   .     S
C119   O145    1.275   .     A
C120   O148    1.282   .     A
C120   C122    1.405   .     S
C120   O146    1.275   .     A
C122   C5      1.351   1_655 S
C122   N41     1.433   1_655 S
C123   C128    1.396   .     A
C123   H133    1.084   .     S
C123   C473    1.371   1_545 S
C124   H134    1.084   .     S
C124   C127    1.396   .     A
C124   C300    1.371   .     S
C125   C127    1.395   .     A
C125   H135    1.084   .     S
C125   C297    1.371   .     S
C126   C128    1.395   .     A
C126   H136    1.084   .     S
C126   C472    1.371   1_545 S
C129   N163    1.418   .     S
C129   N140    1.372   .     A
C129   C1175   1.421   1_554 S
C130   N139    1.372   .     A
C130   N169    1.418   .     S
C130   C654    1.421   .     S
C131   N139    1.363   .     A
C131   H137    1.082   .     S
C131   C651    1.421   .     S
C132   N140    1.363   .     A
C132   H138    1.082   .     S
C132   C1174   1.421   1_554 S
N139   Zn149   2.013   .     S
N140   Zn150   2.013   .     S
O141   Zn149   1.993   .     S
O142   Zn150   1.993   .     S
O143   Zn150   1.989   .     S
O144   Zn149   1.989   .     S
O145   Zn149   1.981   .     S
O146   Zn150   1.981   .     S
O147   Zn150   1.985   .     S
O148   Zn149   1.985   .     S
N151   C153    1.447   .     S
N151   C5      1.433   1_655 S
N151   H36     1.032   1_655 S
C153   H154    1.110   .     S
C153   H155    1.111   .     S
C153   H40     1.112   1_655 S
N157   C159    1.447   .     S
H158   N41     1.032   1_655 S
C159   H160    1.110   .     S
C159   H162    1.111   .     S
H161   C43     1.112   1_655 S
N163   H164    1.031   .     S
N163   C165    1.446   .     S
C165   H168    1.111   .     S
C165   H166    1.110   .     S
C165   H167    1.110   .     S
N169   C171    1.446   .     S
N169   H170    1.031   .     S
C171   H172    1.110   .     S
C171   H173    1.111   .     S
C171   H174    1.110   .     S
C175   O199    1.284   .     A
C175   C186    1.412   .     S
C175   O201    1.282   .     A
C176   O200    1.284   .     A
C176   C185    1.412   .     S
C176   O202    1.282   .     A
C177   O205    1.282   .     A
C177   C179    1.405   .     S
C177   O203    1.275   .     A
C178   O206    1.282   .     A
C178   C180    1.405   .     S
C178   O204    1.275   .     A
C179   C296    1.351   1_455 S
C179   N325    1.433   1_455 S
C180   C237    1.351   .     S
C180   N273    1.433   .     S
C181   C186    1.396   .     A
C181   H191    1.084   .     S
C182   H192    1.084   .     S
C182   C185    1.396   .     A
C182   C358    1.371   .     S
C183   C185    1.395   .     A
C183   H193    1.084   .     S
C183   C355    1.371   .     S
C184   C186    1.395   .     A
C184   H194    1.084   .     S
C187   N221    1.418   .     S
C187   N198    1.372   .     A
C187   C1233   1.421   1_554 S
C188   N197    1.372   .     A
C188   N227    1.418   .     S
C188   C712    1.421   .     S
C189   N197    1.363   .     A
C189   H195    1.082   .     S
C189   C709    1.421   .     S
C190   N198    1.363   .     A
C190   H196    1.082   .     S
C190   C1232   1.421   1_554 S
N197   Zn207   2.013   .     S
N198   Zn208   2.013   .     S
O199   Zn207   1.993   .     S
O200   Zn208   1.993   .     S
O201   Zn208   1.989   .     S
O202   Zn207   1.989   .     S
O203   Zn207   1.981   .     S
O204   Zn208   1.981   .     S
O205   Zn208   1.985   .     S
O206   Zn207   1.985   .     S
N209   C211    1.447   .     S
N209   C237    1.433   .     S
N209   H268    1.032   .     S
H210   N325    1.032   1_455 S
C211   H212    1.110   .     S
C211   H213    1.111   .     S
C211   H272    1.112   .     S
H214   C327    1.112   1_455 S
N215   C217    1.447   .     S
N215   C296    1.433   1_455 S
N215   H332    1.032   1_455 S
H216   N273    1.032   .     S
C217   H218    1.110   .     S
C217   H220    1.111   .     S
C217   H335    1.112   1_455 S
H219   C275    1.112   .     S
N221   H222    1.031   .     S
N221   C223    1.446   .     S
C223   H226    1.111   .     S
C223   H224    1.110   .     S
C223   H225    1.110   .     S
N227   C229    1.446   .     S
N227   H228    1.031   .     S
C229   H230    1.110   .     S
C229   H231    1.111   .     S
C229   H232    1.110   .     S
C233   O257    1.284   .     A
C233   C244    1.412   .     S
C233   O259    1.282   .     A
C234   O258    1.284   .     A
C234   C243    1.412   .     S
C234   O260    1.282   .     A
C235   O263    1.282   .     A
C235   C237    1.405   .     S
C235   O261    1.275   .     A
C236   O264    1.282   .     A
C236   C238    1.405   .     S
C236   O262    1.275   .     A
C238   C295    1.351   .     S
C238   N331    1.433   .     S
C239   C244    1.396   .     A
C239   H249    1.084   .     S
C240   H250    1.084   .     S
C240   C243    1.396   .     A
C240   C416    1.371   .     S
C241   C243    1.395   .     A
C241   H251    1.084   .     S
C241   C413    1.371   .     S
C242   C244    1.395   .     A
C242   H252    1.084   .     S
C245   N279    1.418   .     S
C245   N256    1.372   .     A
C245   C1291   1.421   1_554 S
C246   N255    1.372   .     A
C246   N285    1.418   .     S
C246   C770    1.421   .     S
C247   N255    1.363   .     A
C247   H253    1.082   .     S
C247   C767    1.421   .     S
C248   N256    1.363   .     A
C248   H254    1.082   .     S
C248   C1290   1.421   1_554 S
N255   Zn265   2.013   .     S
N256   Zn266   2.013   .     S
O257   Zn265   1.993   .     S
O258   Zn266   1.993   .     S
O259   Zn266   1.989   .     S
O260   Zn265   1.989   .     S
O261   Zn265   1.981   .     S
O262   Zn266   1.981   .     S
O263   Zn266   1.985   .     S
O264   Zn265   1.985   .     S
N267   C269    1.447   .     S
N267   C295    1.433   .     S
N267   H326    1.032   .     S
C269   H270    1.110   .     S
C269   H271    1.111   .     S
C269   H330    1.112   .     S
N273   C275    1.447   .     S
H274   N331    1.032   .     S
C275   H276    1.110   .     S
C275   H278    1.111   .     S
H277   C333    1.112   .     S
N279   H280    1.031   .     S
N279   C281    1.446   .     S
C281   H284    1.111   .     S
C281   H282    1.110   .     S
C281   H283    1.110   .     S
N285   C287    1.446   .     S
N285   H286    1.031   .     S
C287   H288    1.110   .     S
C287   H289    1.111   .     S
C287   H290    1.110   .     S
C291   O315    1.284   .     A
C291   C302    1.412   .     S
C291   O317    1.282   .     A
C292   O316    1.284   .     A
C292   C301    1.412   .     S
C292   O318    1.282   .     A
C293   O321    1.282   .     A
C293   C295    1.405   .     S
C293   O319    1.275   .     A
C294   O322    1.282   .     A
C294   C296    1.405   .     S
C294   O320    1.275   .     A
C296   C179    1.351   1_655 S
C296   N215    1.433   1_655 S
C297   C302    1.396   .     A
C297   H307    1.084   .     S
C298   H308    1.084   .     S
C298   C301    1.396   .     A
C298   C474    1.371   .     S
C299   C301    1.395   .     A
C299   H309    1.084   .     S
C299   C471    1.371   .     S
C300   C302    1.395   .     A
C300   H310    1.084   .     S
C303   N337    1.418   .     S
C303   N314    1.372   .     A
C303   C1349   1.421   1_554 S
C304   N313    1.372   .     A
C304   N343    1.418   .     S
C304   C828    1.421   .     S
C305   N313    1.363   .     A
C305   H311    1.082   .     S
C305   C825    1.421   .     S
C306   N314    1.363   .     A
C306   H312    1.082   .     S
C306   C1348   1.421   1_554 S
N313   Zn323   2.013   .     S
N314   Zn324   2.013   .     S
O315   Zn323   1.993   .     S
O316   Zn324   1.993   .     S
O317   Zn324   1.989   .     S
O318   Zn323   1.989   .     S
O319   Zn323   1.981   .     S
O320   Zn324   1.981   .     S
O321   Zn324   1.985   .     S
O322   Zn323   1.985   .     S
N325   C327    1.447   .     S
N325   C179    1.433   1_655 S
N325   H210    1.032   1_655 S
C327   H328    1.110   .     S
C327   H329    1.111   .     S
C327   H214    1.112   1_655 S
N331   C333    1.447   .     S
H332   N215    1.032   1_655 S
C333   H334    1.110   .     S
C333   H336    1.111   .     S
H335   C217    1.112   1_655 S
N337   H338    1.031   .     S
N337   C339    1.446   .     S
C339   H342    1.111   .     S
C339   H340    1.110   .     S
C339   H341    1.110   .     S
N343   C345    1.446   .     S
N343   H344    1.031   .     S
C345   H346    1.110   .     S
C345   H347    1.111   .     S
C345   H348    1.110   .     S
C349   O373    1.284   .     A
C349   C360    1.412   .     S
C349   O375    1.282   .     A
C350   O374    1.284   .     A
C350   C359    1.412   .     S
C350   O376    1.282   .     A
C351   O379    1.282   .     A
C351   C353    1.405   .     S
C351   O377    1.275   .     A
C352   O380    1.282   .     A
C352   C354    1.405   .     S
C352   O378    1.275   .     A
C353   C470    1.351   1_455 S
C353   N499    1.433   1_455 S
C354   C411    1.351   .     S
C354   N447    1.433   .     S
C355   C360    1.396   .     A
C355   H365    1.084   .     S
C356   H366    1.084   .     S
C356   C359    1.396   .     A
C356   C10     1.371   1_565 S
C357   C359    1.395   .     A
C357   H367    1.084   .     S
C357   C7      1.371   1_565 S
C358   C360    1.395   .     A
C358   H368    1.084   .     S
C361   N395    1.418   .     S
C361   N372    1.372   .     A
C361   C1407   1.421   1_554 S
C362   N371    1.372   .     A
C362   N401    1.418   .     S
C362   C886    1.421   .     S
C363   N371    1.363   .     A
C363   H369    1.082   .     S
C363   C883    1.421   .     S
C364   N372    1.363   .     A
C364   H370    1.082   .     S
C364   C1406   1.421   1_554 S
N371   Zn381   2.013   .     S
N372   Zn382   2.013   .     S
O373   Zn381   1.993   .     S
O374   Zn382   1.993   .     S
O375   Zn382   1.989   .     S
O376   Zn381   1.989   .     S
O377   Zn381   1.981   .     S
O378   Zn382   1.981   .     S
O379   Zn382   1.985   .     S
O380   Zn381   1.985   .     S
N383   C385    1.447   .     S
N383   C411    1.433   .     S
N383   H442    1.032   .     S
H384   N499    1.032   1_455 S
C385   H386    1.110   .     S
C385   H387    1.111   .     S
C385   H446    1.112   .     S
H388   C501    1.112   1_455 S
N389   C391    1.447   .     S
N389   C470    1.433   1_455 S
N389   H506    1.032   1_455 S
H390   N447    1.032   .     S
C391   H392    1.110   .     S
C391   H394    1.111   .     S
C391   H509    1.112   1_455 S
H393   C449    1.112   .     S
N395   H396    1.031   .     S
N395   C397    1.446   .     S
C397   H400    1.111   .     S
C397   H398    1.110   .     S
C397   H399    1.110   .     S
N401   C403    1.446   .     S
N401   H402    1.031   .     S
C403   H404    1.110   .     S
C403   H405    1.111   .     S
C403   H406    1.110   .     S
C407   O431    1.284   .     A
C407   C418    1.412   .     S
C407   O433    1.282   .     A
C408   O432    1.284   .     A
C408   C417    1.412   .     S
C408   O434    1.282   .     A
C409   O437    1.282   .     A
C409   C411    1.405   .     S
C409   O435    1.275   .     A
C410   O438    1.282   .     A
C410   C412    1.405   .     S
C410   O436    1.275   .     A
C412   C469    1.351   .     S
C412   N505    1.433   .     S
C413   C418    1.396   .     A
C413   H423    1.084   .     S
C414   H424    1.084   .     S
C414   C417    1.396   .     A
C414   C68     1.371   1_565 S
C415   C417    1.395   .     A
C415   H425    1.084   .     S
C415   C65     1.371   1_565 S
C416   C418    1.395   .     A
C416   H426    1.084   .     S
C419   N453    1.418   .     S
C419   N430    1.372   .     A
C419   C1465   1.421   1_554 S
C420   N429    1.372   .     A
C420   N459    1.418   .     S
C420   C944    1.421   .     S
C421   N429    1.363   .     A
C421   H427    1.082   .     S
C421   C941    1.421   .     S
C422   N430    1.363   .     A
C422   H428    1.082   .     S
C422   C1464   1.421   1_554 S
N429   Zn439   2.013   .     S
N430   Zn440   2.013   .     S
O431   Zn439   1.993   .     S
O432   Zn440   1.993   .     S
O433   Zn440   1.989   .     S
O434   Zn439   1.989   .     S
O435   Zn439   1.981   .     S
O436   Zn440   1.981   .     S
O437   Zn440   1.985   .     S
O438   Zn439   1.985   .     S
N441   C443    1.447   .     S
N441   C469    1.433   .     S
N441   H500    1.032   .     S
C443   H444    1.110   .     S
C443   H445    1.111   .     S
C443   H504    1.112   .     S
N447   C449    1.447   .     S
H448   N505    1.032   .     S
C449   H450    1.110   .     S
C449   H452    1.111   .     S
H451   C507    1.112   .     S
N453   H454    1.031   .     S
N453   C455    1.446   .     S
C455   H458    1.111   .     S
C455   H456    1.110   .     S
C455   H457    1.110   .     S
N459   C461    1.446   .     S
N459   H460    1.031   .     S
C461   H462    1.110   .     S
C461   H463    1.111   .     S
C461   H464    1.110   .     S
C465   O489    1.284   .     A
C465   C476    1.412   .     S
C465   O491    1.282   .     A
C466   O490    1.284   .     A
C466   C475    1.412   .     S
C466   O492    1.282   .     A
C467   O495    1.282   .     A
C467   C469    1.405   .     S
C467   O493    1.275   .     A
C468   O496    1.282   .     A
C468   C470    1.405   .     S
C468   O494    1.275   .     A
C470   C353    1.351   1_655 S
C470   N389    1.433   1_655 S
C471   C476    1.396   .     A
C471   H481    1.084   .     S
C472   H482    1.084   .     S
C472   C475    1.396   .     A
C472   C126    1.371   1_565 S
C473   C475    1.395   .     A
C473   H483    1.084   .     S
C473   C123    1.371   1_565 S
C474   C476    1.395   .     A
C474   H484    1.084   .     S
C477   N511    1.418   .     S
C477   N488    1.372   .     A
C477   C1523   1.421   1_554 S
C478   N487    1.372   .     A
C478   N517    1.418   .     S
C478   C1002   1.421   .     S
C479   N487    1.363   .     A
C479   H485    1.082   .     S
C479   C999    1.421   .     S
C480   N488    1.363   .     A
C480   H486    1.082   .     S
C480   C1522   1.421   1_554 S
N487   Zn497   2.013   .     S
N488   Zn498   2.013   .     S
O489   Zn497   1.993   .     S
O490   Zn498   1.993   .     S
O491   Zn498   1.989   .     S
O492   Zn497   1.989   .     S
O493   Zn497   1.981   .     S
O494   Zn498   1.981   .     S
O495   Zn498   1.985   .     S
O496   Zn497   1.985   .     S
N499   C501    1.447   .     S
N499   C353    1.433   1_655 S
N499   H384    1.032   1_655 S
C501   H502    1.110   .     S
C501   H503    1.111   .     S
C501   H388    1.112   1_655 S
N505   C507    1.447   .     S
H506   N389    1.032   1_655 S
C507   H508    1.110   .     S
C507   H510    1.111   .     S
H509   C391    1.112   1_655 S
N511   H512    1.031   .     S
N511   C513    1.446   .     S
C513   H516    1.111   .     S
C513   H514    1.110   .     S
C513   H515    1.110   .     S
N517   C519    1.446   .     S
N517   H518    1.031   .     S
C519   H520    1.110   .     S
C519   H521    1.111   .     S
C519   H522    1.110   .     S
C523   O547    1.284   .     A
C523   C534    1.412   .     S
C523   O549    1.282   .     A
C524   O548    1.284   .     A
C524   C533    1.412   .     S
C524   O550    1.282   .     A
C525   O553    1.282   .     A
C525   C527    1.405   .     S
C525   O551    1.275   .     A
C526   O554    1.282   .     A
C526   C528    1.405   .     S
C526   O552    1.275   .     A
C527   C644    1.351   1_455 S
C527   N673    1.433   1_455 S
C528   C585    1.351   .     S
C528   N621    1.433   .     S
C529   C534    1.396   .     A
C529   H539    1.084   .     S
C529   C879    1.371   1_545 S
C530   H540    1.084   .     S
C530   C533    1.396   .     A
C530   C706    1.371   .     S
C531   C533    1.395   .     A
C531   H541    1.084   .     S
C531   C703    1.371   .     S
C532   C534    1.395   .     A
C532   H542    1.084   .     S
C532   C878    1.371   1_545 S
C535   N569    1.418   .     S
C535   N546    1.372   .     A
C536   N545    1.372   .     A
C536   N575    1.418   .     S
C536   C1060   1.421   .     S
C537   N545    1.363   .     A
C537   H543    1.082   .     S
C537   C1057   1.421   .     S
C538   N546    1.363   .     A
C538   H544    1.082   .     S
N545   Zn555   2.013   .     S
N546   Zn556   2.013   .     S
O547   Zn555   1.993   .     S
O548   Zn556   1.993   .     S
O549   Zn556   1.989   .     S
O550   Zn555   1.989   .     S
O551   Zn555   1.981   .     S
O552   Zn556   1.981   .     S
O553   Zn556   1.985   .     S
O554   Zn555   1.985   .     S
N557   C559    1.447   .     S
N557   C585    1.433   .     S
N557   H616    1.032   .     S
H558   N673    1.032   1_455 S
C559   H560    1.110   .     S
C559   H561    1.111   .     S
C559   H620    1.112   .     S
H562   C675    1.112   1_455 S
N563   C565    1.447   .     S
N563   C644    1.433   1_455 S
N563   H680    1.032   1_455 S
H564   N621    1.032   .     S
C565   H566    1.110   .     S
C565   H568    1.111   .     S
C565   H683    1.112   1_455 S
H567   C623    1.112   .     S
N569   H570    1.031   .     S
N569   C571    1.446   .     S
C571   H574    1.111   .     S
C571   H572    1.110   .     S
C571   H573    1.110   .     S
N575   C577    1.446   .     S
N575   H576    1.031   .     S
C577   H578    1.110   .     S
C577   H579    1.111   .     S
C577   H580    1.110   .     S
C581   O605    1.284   .     A
C581   C592    1.412   .     S
C581   O607    1.282   .     A
C582   O606    1.284   .     A
C582   C591    1.412   .     S
C582   O608    1.282   .     A
C583   O611    1.282   .     A
C583   C585    1.405   .     S
C583   O609    1.275   .     A
C584   O612    1.282   .     A
C584   C586    1.405   .     S
C584   O610    1.275   .     A
C586   C643    1.351   .     S
C586   N679    1.433   .     S
C587   C592    1.396   .     A
C587   H597    1.084   .     S
C587   C937    1.371   1_545 S
C588   H598    1.084   .     S
C588   C591    1.396   .     A
C588   C764    1.371   .     S
C589   C591    1.395   .     A
C589   H599    1.084   .     S
C589   C761    1.371   .     S
C590   C592    1.395   .     A
C590   H600    1.084   .     S
C590   C936    1.371   1_545 S
C593   N627    1.418   .     S
C593   N604    1.372   .     A
C594   N603    1.372   .     A
C594   N633    1.418   .     S
C594   C1118   1.421   .     S
C595   N603    1.363   .     A
C595   H601    1.082   .     S
C595   C1115   1.421   .     S
C596   N604    1.363   .     A
C596   H602    1.082   .     S
N603   Zn613   2.013   .     S
N604   Zn614   2.013   .     S
O605   Zn613   1.993   .     S
O606   Zn614   1.993   .     S
O607   Zn614   1.989   .     S
O608   Zn613   1.989   .     S
O609   Zn613   1.981   .     S
O610   Zn614   1.981   .     S
O611   Zn614   1.985   .     S
O612   Zn613   1.985   .     S
N615   C617    1.447   .     S
N615   C643    1.433   .     S
N615   H674    1.032   .     S
C617   H618    1.110   .     S
C617   H619    1.111   .     S
C617   H678    1.112   .     S
N621   C623    1.447   .     S
H622   N679    1.032   .     S
C623   H624    1.110   .     S
C623   H626    1.111   .     S
H625   C681    1.112   .     S
N627   H628    1.031   .     S
N627   C629    1.446   .     S
C629   H632    1.111   .     S
C629   H630    1.110   .     S
C629   H631    1.110   .     S
N633   C635    1.446   .     S
N633   H634    1.031   .     S
C635   H636    1.110   .     S
C635   H637    1.111   .     S
C635   H638    1.110   .     S
C639   O663    1.284   .     A
C639   C650    1.412   .     S
C639   O665    1.282   .     A
C640   O664    1.284   .     A
C640   C649    1.412   .     S
C640   O666    1.282   .     A
C641   O669    1.282   .     A
C641   C643    1.405   .     S
C641   O667    1.275   .     A
C642   O670    1.282   .     A
C642   C644    1.405   .     S
C642   O668    1.275   .     A
C644   C527    1.351   1_655 S
C644   N563    1.433   1_655 S
C645   C650    1.396   .     A
C645   H655    1.084   .     S
C645   C995    1.371   1_545 S
C646   H656    1.084   .     S
C646   C649    1.396   .     A
C646   C822    1.371   .     S
C647   C649    1.395   .     A
C647   H657    1.084   .     S
C647   C819    1.371   .     S
C648   C650    1.395   .     A
C648   H658    1.084   .     S
C648   C994    1.371   1_545 S
C651   N685    1.418   .     S
C651   N662    1.372   .     A
C652   N661    1.372   .     A
C652   N691    1.418   .     S
C652   C1176   1.421   .     S
C653   N661    1.363   .     A
C653   H659    1.082   .     S
C653   C1173   1.421   .     S
C654   N662    1.363   .     A
C654   H660    1.082   .     S
N661   Zn671   2.013   .     S
N662   Zn672   2.013   .     S
O663   Zn671   1.993   .     S
O664   Zn672   1.993   .     S
O665   Zn672   1.989   .     S
O666   Zn671   1.989   .     S
O667   Zn671   1.981   .     S
O668   Zn672   1.981   .     S
O669   Zn672   1.985   .     S
O670   Zn671   1.985   .     S
N673   C675    1.447   .     S
N673   C527    1.433   1_655 S
N673   H558    1.032   1_655 S
C675   H676    1.110   .     S
C675   H677    1.111   .     S
C675   H562    1.112   1_655 S
N679   C681    1.447   .     S
H680   N563    1.032   1_655 S
C681   H682    1.110   .     S
C681   H684    1.111   .     S
H683   C565    1.112   1_655 S
N685   H686    1.031   .     S
N685   C687    1.446   .     S
C687   H690    1.111   .     S
C687   H688    1.110   .     S
C687   H689    1.110   .     S
N691   C693    1.446   .     S
N691   H692    1.031   .     S
C693   H694    1.110   .     S
C693   H695    1.111   .     S
C693   H696    1.110   .     S
C697   O721    1.284   .     A
C697   C708    1.412   .     S
C697   O723    1.282   .     A
C698   O722    1.284   .     A
C698   C707    1.412   .     S
C698   O724    1.282   .     A
C699   O727    1.282   .     A
C699   C701    1.405   .     S
C699   O725    1.275   .     A
C700   O728    1.282   .     A
C700   C702    1.405   .     S
C700   O726    1.275   .     A
C701   C818    1.351   1_455 S
C701   N847    1.433   1_455 S
C702   C759    1.351   .     S
C702   N795    1.433   .     S
C703   C708    1.396   .     A
C703   H713    1.084   .     S
C704   H714    1.084   .     S
C704   C707    1.396   .     A
C704   C880    1.371   .     S
C705   C707    1.395   .     A
C705   H715    1.084   .     S
C705   C877    1.371   .     S
C706   C708    1.395   .     A
C706   H716    1.084   .     S
C709   N743    1.418   .     S
C709   N720    1.372   .     A
C710   N719    1.372   .     A
C710   N749    1.418   .     S
C710   C1234   1.421   .     S
C711   N719    1.363   .     A
C711   H717    1.082   .     S
C711   C1231   1.421   .     S
C712   N720    1.363   .     A
C712   H718    1.082   .     S
N719   Zn729   2.013   .     S
N720   Zn730   2.013   .     S
O721   Zn729   1.993   .     S
O722   Zn730   1.993   .     S
O723   Zn730   1.989   .     S
O724   Zn729   1.989   .     S
O725   Zn729   1.981   .     S
O726   Zn730   1.981   .     S
O727   Zn730   1.985   .     S
O728   Zn729   1.985   .     S
N731   C733    1.447   .     S
N731   C759    1.433   .     S
N731   H790    1.032   .     S
H732   N847    1.032   1_455 S
C733   H734    1.110   .     S
C733   H735    1.111   .     S
C733   H794    1.112   .     S
H736   C849    1.112   1_455 S
N737   C739    1.447   .     S
N737   C818    1.433   1_455 S
N737   H854    1.032   1_455 S
H738   N795    1.032   .     S
C739   H740    1.110   .     S
C739   H742    1.111   .     S
C739   H857    1.112   1_455 S
H741   C797    1.112   .     S
N743   H744    1.031   .     S
N743   C745    1.446   .     S
C745   H748    1.111   .     S
C745   H746    1.110   .     S
C745   H747    1.110   .     S
N749   C751    1.446   .     S
N749   H750    1.031   .     S
C751   H752    1.110   .     S
C751   H753    1.111   .     S
C751   H754    1.110   .     S
C755   O779    1.284   .     A
C755   C766    1.412   .     S
C755   O781    1.282   .     A
C756   O780    1.284   .     A
C756   C765    1.412   .     S
C756   O782    1.282   .     A
C757   O785    1.282   .     A
C757   C759    1.405   .     S
C757   O783    1.275   .     A
C758   O786    1.282   .     A
C758   C760    1.405   .     S
C758   O784    1.275   .     A
C760   C817    1.351   .     S
C760   N853    1.433   .     S
C761   C766    1.396   .     A
C761   H771    1.084   .     S
C762   H772    1.084   .     S
C762   C765    1.396   .     A
C762   C938    1.371   .     S
C763   C765    1.395   .     A
C763   H773    1.084   .     S
C763   C935    1.371   .     S
C764   C766    1.395   .     A
C764   H774    1.084   .     S
C767   N801    1.418   .     S
C767   N778    1.372   .     A
C768   N777    1.372   .     A
C768   N807    1.418   .     S
C768   C1292   1.421   .     S
C769   N777    1.363   .     A
C769   H775    1.082   .     S
C769   C1289   1.421   .     S
C770   N778    1.363   .     A
C770   H776    1.082   .     S
N777   Zn787   2.013   .     S
N778   Zn788   2.013   .     S
O779   Zn787   1.993   .     S
O780   Zn788   1.993   .     S
O781   Zn788   1.989   .     S
O782   Zn787   1.989   .     S
O783   Zn787   1.981   .     S
O784   Zn788   1.981   .     S
O785   Zn788   1.985   .     S
O786   Zn787   1.985   .     S
N789   C791    1.447   .     S
N789   C817    1.433   .     S
N789   H848    1.032   .     S
C791   H792    1.110   .     S
C791   H793    1.111   .     S
C791   H852    1.112   .     S
N795   C797    1.447   .     S
H796   N853    1.032   .     S
C797   H798    1.110   .     S
C797   H800    1.111   .     S
H799   C855    1.112   .     S
N801   H802    1.031   .     S
N801   C803    1.446   .     S
C803   H806    1.111   .     S
C803   H804    1.110   .     S
C803   H805    1.110   .     S
N807   C809    1.446   .     S
N807   H808    1.031   .     S
C809   H810    1.110   .     S
C809   H811    1.111   .     S
C809   H812    1.110   .     S
C813   O837    1.284   .     A
C813   C824    1.412   .     S
C813   O839    1.282   .     A
C814   O838    1.284   .     A
C814   C823    1.412   .     S
C814   O840    1.282   .     A
C815   O843    1.282   .     A
C815   C817    1.405   .     S
C815   O841    1.275   .     A
C816   O844    1.282   .     A
C816   C818    1.405   .     S
C816   O842    1.275   .     A
C818   C701    1.351   1_655 S
C818   N737    1.433   1_655 S
C819   C824    1.396   .     A
C819   H829    1.084   .     S
C820   H830    1.084   .     S
C820   C823    1.396   .     A
C820   C996    1.371   .     S
C821   C823    1.395   .     A
C821   H831    1.084   .     S
C821   C993    1.371   .     S
C822   C824    1.395   .     A
C822   H832    1.084   .     S
C825   N859    1.418   .     S
C825   N836    1.372   .     A
C826   N835    1.372   .     A
C826   N865    1.418   .     S
C826   C1350   1.421   .     S
C827   N835    1.363   .     A
C827   H833    1.082   .     S
C827   C1347   1.421   .     S
C828   N836    1.363   .     A
C828   H834    1.082   .     S
N835   Zn845   2.013   .     S
N836   Zn846   2.013   .     S
O837   Zn845   1.993   .     S
O838   Zn846   1.993   .     S
O839   Zn846   1.989   .     S
O840   Zn845   1.989   .     S
O841   Zn845   1.981   .     S
O842   Zn846   1.981   .     S
O843   Zn846   1.985   .     S
O844   Zn845   1.985   .     S
N847   C849    1.447   .     S
N847   C701    1.433   1_655 S
N847   H732    1.032   1_655 S
C849   H850    1.110   .     S
C849   H851    1.111   .     S
C849   H736    1.112   1_655 S
N853   C855    1.447   .     S
H854   N737    1.032   1_655 S
C855   H856    1.110   .     S
C855   H858    1.111   .     S
H857   C739    1.112   1_655 S
N859   H860    1.031   .     S
N859   C861    1.446   .     S
C861   H864    1.111   .     S
C861   H862    1.110   .     S
C861   H863    1.110   .     S
N865   C867    1.446   .     S
N865   H866    1.031   .     S
C867   H868    1.110   .     S
C867   H869    1.111   .     S
C867   H870    1.110   .     S
C871   O895    1.284   .     A
C871   C882    1.412   .     S
C871   O897    1.282   .     A
C872   O896    1.284   .     A
C872   C881    1.412   .     S
C872   O898    1.282   .     A
C873   O901    1.282   .     A
C873   C875    1.405   .     S
C873   O899    1.275   .     A
C874   O902    1.282   .     A
C874   C876    1.405   .     S
C874   O900    1.275   .     A
C875   C992    1.351   1_455 S
C875   N1021   1.433   1_455 S
C876   C933    1.351   .     S
C876   N969    1.433   .     S
C877   C882    1.396   .     A
C877   H887    1.084   .     S
C878   H888    1.084   .     S
C878   C881    1.396   .     A
C878   C532    1.371   1_565 S
C879   C881    1.395   .     A
C879   H889    1.084   .     S
C879   C529    1.371   1_565 S
C880   C882    1.395   .     A
C880   H890    1.084   .     S
C883   N917    1.418   .     S
C883   N894    1.372   .     A
C884   N893    1.372   .     A
C884   N923    1.418   .     S
C884   C1408   1.421   .     S
C885   N893    1.363   .     A
C885   H891    1.082   .     S
C885   C1405   1.421   .     S
C886   N894    1.363   .     A
C886   H892    1.082   .     S
N893   Zn903   2.013   .     S
N894   Zn904   2.013   .     S
O895   Zn903   1.993   .     S
O896   Zn904   1.993   .     S
O897   Zn904   1.989   .     S
O898   Zn903   1.989   .     S
O899   Zn903   1.981   .     S
O900   Zn904   1.981   .     S
O901   Zn904   1.985   .     S
O902   Zn903   1.985   .     S
N905   C907    1.447   .     S
N905   C933    1.433   .     S
N905   H964    1.032   .     S
H906   N1021   1.032   1_455 S
C907   H908    1.110   .     S
C907   H909    1.111   .     S
C907   H968    1.112   .     S
H910   C1023   1.112   1_455 S
N911   C913    1.447   .     S
N911   C992    1.433   1_455 S
N911   H1028   1.032   1_455 S
H912   N969    1.032   .     S
C913   H914    1.110   .     S
C913   H916    1.111   .     S
C913   H1031   1.112   1_455 S
H915   C971    1.112   .     S
N917   H918    1.031   .     S
N917   C919    1.446   .     S
C919   H922    1.111   .     S
C919   H920    1.110   .     S
C919   H921    1.110   .     S
N923   C925    1.446   .     S
N923   H924    1.031   .     S
C925   H926    1.110   .     S
C925   H927    1.111   .     S
C925   H928    1.110   .     S
C929   O953    1.284   .     A
C929   C940    1.412   .     S
C929   O955    1.282   .     A
C930   O954    1.284   .     A
C930   C939    1.412   .     S
C930   O956    1.282   .     A
C931   O959    1.282   .     A
C931   C933    1.405   .     S
C931   O957    1.275   .     A
C932   O960    1.282   .     A
C932   C934    1.405   .     S
C932   O958    1.275   .     A
C934   C991    1.351   .     S
C934   N1027   1.433   .     S
C935   C940    1.396   .     A
C935   H945    1.084   .     S
C936   H946    1.084   .     S
C936   C939    1.396   .     A
C936   C590    1.371   1_565 S
C937   C939    1.395   .     A
C937   H947    1.084   .     S
C937   C587    1.371   1_565 S
C938   C940    1.395   .     A
C938   H948    1.084   .     S
C941   N975    1.418   .     S
C941   N952    1.372   .     A
C942   N951    1.372   .     A
C942   N981    1.418   .     S
C942   C1466   1.421   .     S
C943   N951    1.363   .     A
C943   H949    1.082   .     S
C943   C1463   1.421   .     S
C944   N952    1.363   .     A
C944   H950    1.082   .     S
N951   Zn961   2.013   .     S
N952   Zn962   2.013   .     S
O953   Zn961   1.993   .     S
O954   Zn962   1.993   .     S
O955   Zn962   1.989   .     S
O956   Zn961   1.989   .     S
O957   Zn961   1.981   .     S
O958   Zn962   1.981   .     S
O959   Zn962   1.985   .     S
O960   Zn961   1.985   .     S
N963   C965    1.447   .     S
N963   C991    1.433   .     S
N963   H1022   1.032   .     S
C965   H966    1.110   .     S
C965   H967    1.111   .     S
C965   H1026   1.112   .     S
N969   C971    1.447   .     S
H970   N1027   1.032   .     S
C971   H972    1.110   .     S
C971   H974    1.111   .     S
H973   C1029   1.112   .     S
N975   H976    1.031   .     S
N975   C977    1.446   .     S
C977   H980    1.111   .     S
C977   H978    1.110   .     S
C977   H979    1.110   .     S
N981   C983    1.446   .     S
N981   H982    1.031   .     S
C983   H984    1.110   .     S
C983   H985    1.111   .     S
C983   H986    1.110   .     S
C987   O1011   1.284   .     A
C987   C998    1.412   .     S
C987   O1013   1.282   .     A
C988   O1012   1.284   .     A
C988   C997    1.412   .     S
C988   O1014   1.282   .     A
C989   O1017   1.282   .     A
C989   C991    1.405   .     S
C989   O1015   1.275   .     A
C990   O1018   1.282   .     A
C990   C992    1.405   .     S
C990   O1016   1.275   .     A
C992   C875    1.351   1_655 S
C992   N911    1.433   1_655 S
C993   C998    1.396   .     A
C993   H1003   1.084   .     S
C994   H1004   1.084   .     S
C994   C997    1.396   .     A
C994   C648    1.371   1_565 S
C995   C997    1.395   .     A
C995   H1005   1.084   .     S
C995   C645    1.371   1_565 S
C996   C998    1.395   .     A
C996   H1006   1.084   .     S
C999   N1033   1.418   .     S
C999   N1010   1.372   .     A
C1000  N1009   1.372   .     A
C1000  N1039   1.418   .     S
C1000  C1524   1.421   .     S
C1001  N1009   1.363   .     A
C1001  H1007   1.082   .     S
C1001  C1521   1.421   .     S
C1002  N1010   1.363   .     A
C1002  H1008   1.082   .     S
N1009  Zn1019  2.013   .     S
N1010  Zn1020  2.013   .     S
O1011  Zn1019  1.993   .     S
O1012  Zn1020  1.993   .     S
O1013  Zn1020  1.989   .     S
O1014  Zn1019  1.989   .     S
O1015  Zn1019  1.981   .     S
O1016  Zn1020  1.981   .     S
O1017  Zn1020  1.985   .     S
O1018  Zn1019  1.985   .     S
N1021  C1023   1.447   .     S
N1021  C875    1.433   1_655 S
N1021  H906    1.032   1_655 S
C1023  H1024   1.110   .     S
C1023  H1025   1.111   .     S
C1023  H910    1.112   1_655 S
N1027  C1029   1.447   .     S
H1028  N911    1.032   1_655 S
C1029  H1030   1.110   .     S
C1029  H1032   1.111   .     S
H1031  C913    1.112   1_655 S
N1033  H1034   1.031   .     S
N1033  C1035   1.446   .     S
C1035  H1038   1.111   .     S
C1035  H1036   1.110   .     S
C1035  H1037   1.110   .     S
N1039  C1041   1.446   .     S
N1039  H1040   1.031   .     S
C1041  H1042   1.110   .     S
C1041  H1043   1.111   .     S
C1041  H1044   1.110   .     S
C1045  O1069   1.284   .     A
C1045  C1056   1.412   .     S
C1045  O1071   1.282   .     A
C1046  O1070   1.284   .     A
C1046  C1055   1.412   .     S
C1046  O1072   1.282   .     A
C1047  O1075   1.282   .     A
C1047  C1049   1.405   .     S
C1047  O1073   1.275   .     A
C1048  O1076   1.282   .     A
C1048  C1050   1.405   .     S
C1048  O1074   1.275   .     A
C1049  C1166   1.351   1_455 S
C1049  N1195   1.433   1_455 S
C1050  C1107   1.351   .     S
C1050  N1143   1.433   .     S
C1051  C1056   1.396   .     A
C1051  H1061   1.084   .     S
C1051  C1401   1.371   1_545 S
C1052  H1062   1.084   .     S
C1052  C1055   1.396   .     A
C1052  C1228   1.371   .     S
C1053  C1055   1.395   .     A
C1053  H1063   1.084   .     S
C1053  C1225   1.371   .     S
C1054  C1056   1.395   .     A
C1054  H1064   1.084   .     S
C1054  C1400   1.371   1_545 S
C1057  N1091   1.418   .     S
C1057  N1068   1.372   .     A
C1058  N1067   1.372   .     A
C1058  N1097   1.418   .     S
C1058  C16     1.421   1_556 S
C1059  N1067   1.363   .     A
C1059  H1065   1.082   .     S
C1059  C13     1.421   1_556 S
C1060  N1068   1.363   .     A
C1060  H1066   1.082   .     S
N1067  Zn1077  2.013   .     S
N1068  Zn1078  2.013   .     S
O1069  Zn1077  1.993   .     S
O1070  Zn1078  1.993   .     S
O1071  Zn1078  1.989   .     S
O1072  Zn1077  1.989   .     S
O1073  Zn1077  1.981   .     S
O1074  Zn1078  1.981   .     S
O1075  Zn1078  1.985   .     S
O1076  Zn1077  1.985   .     S
N1079  C1081   1.447   .     S
N1079  C1107   1.433   .     S
N1079  H1138   1.032   .     S
H1080  N1195   1.032   1_455 S
C1081  H1082   1.110   .     S
C1081  H1083   1.111   .     S
C1081  H1142   1.112   .     S
H1084  C1197   1.112   1_455 S
N1085  C1087   1.447   .     S
N1085  C1166   1.433   1_455 S
N1085  H1202   1.032   1_455 S
H1086  N1143   1.032   .     S
C1087  H1088   1.110   .     S
C1087  H1090   1.111   .     S
C1087  H1205   1.112   1_455 S
H1089  C1145   1.112   .     S
N1091  H1092   1.031   .     S
N1091  C1093   1.446   .     S
C1093  H1096   1.111   .     S
C1093  H1094   1.110   .     S
C1093  H1095   1.110   .     S
N1097  C1099   1.446   .     S
N1097  H1098   1.031   .     S
C1099  H1100   1.110   .     S
C1099  H1101   1.111   .     S
C1099  H1102   1.110   .     S
C1103  O1127   1.284   .     A
C1103  C1114   1.412   .     S
C1103  O1129   1.282   .     A
C1104  O1128   1.284   .     A
C1104  C1113   1.412   .     S
C1104  O1130   1.282   .     A
C1105  O1133   1.282   .     A
C1105  C1107   1.405   .     S
C1105  O1131   1.275   .     A
C1106  O1134   1.282   .     A
C1106  C1108   1.405   .     S
C1106  O1132   1.275   .     A
C1108  C1165   1.351   .     S
C1108  N1201   1.433   .     S
C1109  C1114   1.396   .     A
C1109  H1119   1.084   .     S
C1109  C1459   1.371   1_545 S
C1110  H1120   1.084   .     S
C1110  C1113   1.396   .     A
C1110  C1286   1.371   .     S
C1111  C1113   1.395   .     A
C1111  H1121   1.084   .     S
C1111  C1283   1.371   .     S
C1112  C1114   1.395   .     A
C1112  H1122   1.084   .     S
C1112  C1458   1.371   1_545 S
C1115  N1149   1.418   .     S
C1115  N1126   1.372   .     A
C1116  N1125   1.372   .     A
C1116  N1155   1.418   .     S
C1116  C74     1.421   1_556 S
C1117  N1125   1.363   .     A
C1117  H1123   1.082   .     S
C1117  C71     1.421   1_556 S
C1118  N1126   1.363   .     A
C1118  H1124   1.082   .     S
N1125  Zn1135  2.013   .     S
N1126  Zn1136  2.013   .     S
O1127  Zn1135  1.993   .     S
O1128  Zn1136  1.993   .     S
O1129  Zn1136  1.989   .     S
O1130  Zn1135  1.989   .     S
O1131  Zn1135  1.981   .     S
O1132  Zn1136  1.981   .     S
O1133  Zn1136  1.985   .     S
O1134  Zn1135  1.985   .     S
N1137  C1139   1.447   .     S
N1137  C1165   1.433   .     S
N1137  H1196   1.032   .     S
C1139  H1140   1.110   .     S
C1139  H1141   1.111   .     S
C1139  H1200   1.112   .     S
N1143  C1145   1.447   .     S
H1144  N1201   1.032   .     S
C1145  H1146   1.110   .     S
C1145  H1148   1.111   .     S
H1147  C1203   1.112   .     S
N1149  H1150   1.031   .     S
N1149  C1151   1.446   .     S
C1151  H1154   1.111   .     S
C1151  H1152   1.110   .     S
C1151  H1153   1.110   .     S
N1155  C1157   1.446   .     S
N1155  H1156   1.031   .     S
C1157  H1158   1.110   .     S
C1157  H1159   1.111   .     S
C1157  H1160   1.110   .     S
C1161  O1185   1.284   .     A
C1161  C1172   1.412   .     S
C1161  O1187   1.282   .     A
C1162  O1186   1.284   .     A
C1162  C1171   1.412   .     S
C1162  O1188   1.282   .     A
C1163  O1191   1.282   .     A
C1163  C1165   1.405   .     S
C1163  O1189   1.275   .     A
C1164  O1192   1.282   .     A
C1164  C1166   1.405   .     S
C1164  O1190   1.275   .     A
C1166  C1049   1.351   1_655 S
C1166  N1085   1.433   1_655 S
C1167  C1172   1.396   .     A
C1167  H1177   1.084   .     S
C1167  C1517   1.371   1_545 S
C1168  H1178   1.084   .     S
C1168  C1171   1.396   .     A
C1168  C1344   1.371   .     S
C1169  C1171   1.395   .     A
C1169  H1179   1.084   .     S
C1169  C1341   1.371   .     S
C1170  C1172   1.395   .     A
C1170  H1180   1.084   .     S
C1170  C1516   1.371   1_545 S
C1173  N1207   1.418   .     S
C1173  N1184   1.372   .     A
C1174  N1183   1.372   .     A
C1174  N1213   1.418   .     S
C1174  C132    1.421   1_556 S
C1175  N1183   1.363   .     A
C1175  H1181   1.082   .     S
C1175  C129    1.421   1_556 S
C1176  N1184   1.363   .     A
C1176  H1182   1.082   .     S
N1183  Zn1193  2.013   .     S
N1184  Zn1194  2.013   .     S
O1185  Zn1193  1.993   .     S
O1186  Zn1194  1.993   .     S
O1187  Zn1194  1.989   .     S
O1188  Zn1193  1.989   .     S
O1189  Zn1193  1.981   .     S
O1190  Zn1194  1.981   .     S
O1191  Zn1194  1.985   .     S
O1192  Zn1193  1.985   .     S
N1195  C1197   1.447   .     S
N1195  C1049   1.433   1_655 S
N1195  H1080   1.032   1_655 S
C1197  H1198   1.110   .     S
C1197  H1199   1.111   .     S
C1197  H1084   1.112   1_655 S
N1201  C1203   1.447   .     S
H1202  N1085   1.032   1_655 S
C1203  H1204   1.110   .     S
C1203  H1206   1.111   .     S
H1205  C1087   1.112   1_655 S
N1207  H1208   1.031   .     S
N1207  C1209   1.446   .     S
C1209  H1212   1.111   .     S
C1209  H1210   1.110   .     S
C1209  H1211   1.110   .     S
N1213  C1215   1.446   .     S
N1213  H1214   1.031   .     S
C1215  H1216   1.110   .     S
C1215  H1217   1.111   .     S
C1215  H1218   1.110   .     S
C1219  O1243   1.284   .     A
C1219  C1230   1.412   .     S
C1219  O1245   1.282   .     A
C1220  O1244   1.284   .     A
C1220  C1229   1.412   .     S
C1220  O1246   1.282   .     A
C1221  O1249   1.282   .     A
C1221  C1223   1.405   .     S
C1221  O1247   1.275   .     A
C1222  O1250   1.282   .     A
C1222  C1224   1.405   .     S
C1222  O1248   1.275   .     A
C1223  C1340   1.351   1_455 S
C1223  N1369   1.433   1_455 S
C1224  C1281   1.351   .     S
C1224  N1317   1.433   .     S
C1225  C1230   1.396   .     A
C1225  H1235   1.084   .     S
C1226  H1236   1.084   .     S
C1226  C1229   1.396   .     A
C1226  C1402   1.371   .     S
C1227  C1229   1.395   .     A
C1227  H1237   1.084   .     S
C1227  C1399   1.371   .     S
C1228  C1230   1.395   .     A
C1228  H1238   1.084   .     S
C1231  N1265   1.418   .     S
C1231  N1242   1.372   .     A
C1232  N1241   1.372   .     A
C1232  N1271   1.418   .     S
C1232  C190    1.421   1_556 S
C1233  N1241   1.363   .     A
C1233  H1239   1.082   .     S
C1233  C187    1.421   1_556 S
C1234  N1242   1.363   .     A
C1234  H1240   1.082   .     S
N1241  Zn1251  2.013   .     S
N1242  Zn1252  2.013   .     S
O1243  Zn1251  1.993   .     S
O1244  Zn1252  1.993   .     S
O1245  Zn1252  1.989   .     S
O1246  Zn1251  1.989   .     S
O1247  Zn1251  1.981   .     S
O1248  Zn1252  1.981   .     S
O1249  Zn1252  1.985   .     S
O1250  Zn1251  1.985   .     S
N1253  C1255   1.447   .     S
N1253  C1281   1.433   .     S
N1253  H1312   1.032   .     S
H1254  N1369   1.032   1_455 S
C1255  H1256   1.110   .     S
C1255  H1257   1.111   .     S
C1255  H1316   1.112   .     S
H1258  C1371   1.112   1_455 S
N1259  C1261   1.447   .     S
N1259  C1340   1.433   1_455 S
N1259  H1376   1.032   1_455 S
H1260  N1317   1.032   .     S
C1261  H1262   1.110   .     S
C1261  H1264   1.111   .     S
C1261  H1379   1.112   1_455 S
H1263  C1319   1.112   .     S
N1265  H1266   1.031   .     S
N1265  C1267   1.446   .     S
C1267  H1270   1.111   .     S
C1267  H1268   1.110   .     S
C1267  H1269   1.110   .     S
N1271  C1273   1.446   .     S
N1271  H1272   1.031   .     S
C1273  H1274   1.110   .     S
C1273  H1275   1.111   .     S
C1273  H1276   1.110   .     S
C1277  O1301   1.284   .     A
C1277  C1288   1.412   .     S
C1277  O1303   1.282   .     A
C1278  O1302   1.284   .     A
C1278  C1287   1.412   .     S
C1278  O1304   1.282   .     A
C1279  O1307   1.282   .     A
C1279  C1281   1.405   .     S
C1279  O1305   1.275   .     A
C1280  O1308   1.282   .     A
C1280  C1282   1.405   .     S
C1280  O1306   1.275   .     A
C1282  C1339   1.351   .     S
C1282  N1375   1.433   .     S
C1283  C1288   1.396   .     A
C1283  H1293   1.084   .     S
C1284  H1294   1.084   .     S
C1284  C1287   1.396   .     A
C1284  C1460   1.371   .     S
C1285  C1287   1.395   .     A
C1285  H1295   1.084   .     S
C1285  C1457   1.371   .     S
C1286  C1288   1.395   .     A
C1286  H1296   1.084   .     S
C1289  N1323   1.418   .     S
C1289  N1300   1.372   .     A
C1290  N1299   1.372   .     A
C1290  N1329   1.418   .     S
C1290  C248    1.421   1_556 S
C1291  N1299   1.363   .     A
C1291  H1297   1.082   .     S
C1291  C245    1.421   1_556 S
C1292  N1300   1.363   .     A
C1292  H1298   1.082   .     S
N1299  Zn1309  2.013   .     S
N1300  Zn1310  2.013   .     S
O1301  Zn1309  1.993   .     S
O1302  Zn1310  1.993   .     S
O1303  Zn1310  1.989   .     S
O1304  Zn1309  1.989   .     S
O1305  Zn1309  1.981   .     S
O1306  Zn1310  1.981   .     S
O1307  Zn1310  1.985   .     S
O1308  Zn1309  1.985   .     S
N1311  C1313   1.447   .     S
N1311  C1339   1.433   .     S
N1311  H1370   1.032   .     S
C1313  H1314   1.110   .     S
C1313  H1315   1.111   .     S
C1313  H1374   1.112   .     S
N1317  C1319   1.447   .     S
H1318  N1375   1.032   .     S
C1319  H1320   1.110   .     S
C1319  H1322   1.111   .     S
H1321  C1377   1.112   .     S
N1323  H1324   1.031   .     S
N1323  C1325   1.446   .     S
C1325  H1328   1.111   .     S
C1325  H1326   1.110   .     S
C1325  H1327   1.110   .     S
N1329  C1331   1.446   .     S
N1329  H1330   1.031   .     S
C1331  H1332   1.110   .     S
C1331  H1333   1.111   .     S
C1331  H1334   1.110   .     S
C1335  O1359   1.284   .     A
C1335  C1346   1.412   .     S
C1335  O1361   1.282   .     A
C1336  O1360   1.284   .     A
C1336  C1345   1.412   .     S
C1336  O1362   1.282   .     A
C1337  O1365   1.282   .     A
C1337  C1339   1.405   .     S
C1337  O1363   1.275   .     A
C1338  O1366   1.282   .     A
C1338  C1340   1.405   .     S
C1338  O1364   1.275   .     A
C1340  C1223   1.351   1_655 S
C1340  N1259   1.433   1_655 S
C1341  C1346   1.396   .     A
C1341  H1351   1.084   .     S
C1342  H1352   1.084   .     S
C1342  C1345   1.396   .     A
C1342  C1518   1.371   .     S
C1343  C1345   1.395   .     A
C1343  H1353   1.084   .     S
C1343  C1515   1.371   .     S
C1344  C1346   1.395   .     A
C1344  H1354   1.084   .     S
C1347  N1381   1.418   .     S
C1347  N1358   1.372   .     A
C1348  N1357   1.372   .     A
C1348  N1387   1.418   .     S
C1348  C306    1.421   1_556 S
C1349  N1357   1.363   .     A
C1349  H1355   1.082   .     S
C1349  C303    1.421   1_556 S
C1350  N1358   1.363   .     A
C1350  H1356   1.082   .     S
N1357  Zn1367  2.013   .     S
N1358  Zn1368  2.013   .     S
O1359  Zn1367  1.993   .     S
O1360  Zn1368  1.993   .     S
O1361  Zn1368  1.989   .     S
O1362  Zn1367  1.989   .     S
O1363  Zn1367  1.981   .     S
O1364  Zn1368  1.981   .     S
O1365  Zn1368  1.985   .     S
O1366  Zn1367  1.985   .     S
N1369  C1371   1.447   .     S
N1369  C1223   1.433   1_655 S
N1369  H1254   1.032   1_655 S
C1371  H1372   1.110   .     S
C1371  H1373   1.111   .     S
C1371  H1258   1.112   1_655 S
N1375  C1377   1.447   .     S
H1376  N1259   1.032   1_655 S
C1377  H1378   1.110   .     S
C1377  H1380   1.111   .     S
H1379  C1261   1.112   1_655 S
N1381  H1382   1.031   .     S
N1381  C1383   1.446   .     S
C1383  H1386   1.111   .     S
C1383  H1384   1.110   .     S
C1383  H1385   1.110   .     S
N1387  C1389   1.446   .     S
N1387  H1388   1.031   .     S
C1389  H1390   1.110   .     S
C1389  H1391   1.111   .     S
C1389  H1392   1.110   .     S
C1393  O1417   1.284   .     A
C1393  C1404   1.412   .     S
C1393  O1419   1.282   .     A
C1394  O1418   1.284   .     A
C1394  C1403   1.412   .     S
C1394  O1420   1.282   .     A
C1395  O1423   1.282   .     A
C1395  C1397   1.405   .     S
C1395  O1421   1.275   .     A
C1396  O1424   1.282   .     A
C1396  C1398   1.405   .     S
C1396  O1422   1.275   .     A
C1397  C1514   1.351   1_455 S
C1397  N1543   1.433   1_455 S
C1398  C1455   1.351   .     S
C1398  N1491   1.433   .     S
C1399  C1404   1.396   .     A
C1399  H1409   1.084   .     S
C1400  H1410   1.084   .     S
C1400  C1403   1.396   .     A
C1400  C1054   1.371   1_565 S
C1401  C1403   1.395   .     A
C1401  H1411   1.084   .     S
C1401  C1051   1.371   1_565 S
C1402  C1404   1.395   .     A
C1402  H1412   1.084   .     S
C1405  N1439   1.418   .     S
C1405  N1416   1.372   .     A
C1406  N1415   1.372   .     A
C1406  N1445   1.418   .     S
C1406  C364    1.421   1_556 S
C1407  N1415   1.363   .     A
C1407  H1413   1.082   .     S
C1407  C361    1.421   1_556 S
C1408  N1416   1.363   .     A
C1408  H1414   1.082   .     S
N1415  Zn1425  2.013   .     S
N1416  Zn1426  2.013   .     S
O1417  Zn1425  1.993   .     S
O1418  Zn1426  1.993   .     S
O1419  Zn1426  1.989   .     S
O1420  Zn1425  1.989   .     S
O1421  Zn1425  1.981   .     S
O1422  Zn1426  1.981   .     S
O1423  Zn1426  1.985   .     S
O1424  Zn1425  1.985   .     S
N1427  C1429   1.447   .     S
N1427  C1455   1.433   .     S
N1427  H1486   1.032   .     S
H1428  N1543   1.032   1_455 S
C1429  H1430   1.110   .     S
C1429  H1431   1.111   .     S
C1429  H1490   1.112   .     S
H1432  C1545   1.112   1_455 S
N1433  C1435   1.447   .     S
N1433  C1514   1.433   1_455 S
N1433  H1550   1.032   1_455 S
H1434  N1491   1.032   .     S
C1435  H1436   1.110   .     S
C1435  H1438   1.111   .     S
C1435  H1553   1.112   1_455 S
H1437  C1493   1.112   .     S
N1439  H1440   1.031   .     S
N1439  C1441   1.446   .     S
C1441  H1444   1.111   .     S
C1441  H1442   1.110   .     S
C1441  H1443   1.110   .     S
N1445  C1447   1.446   .     S
N1445  H1446   1.031   .     S
C1447  H1448   1.110   .     S
C1447  H1449   1.111   .     S
C1447  H1450   1.110   .     S
C1451  O1475   1.284   .     A
C1451  C1462   1.412   .     S
C1451  O1477   1.282   .     A
C1452  O1476   1.284   .     A
C1452  C1461   1.412   .     S
C1452  O1478   1.282   .     A
C1453  O1481   1.282   .     A
C1453  C1455   1.405   .     S
C1453  O1479   1.275   .     A
C1454  O1482   1.282   .     A
C1454  C1456   1.405   .     S
C1454  O1480   1.275   .     A
C1456  C1513   1.351   .     S
C1456  N1549   1.433   .     S
C1457  C1462   1.396   .     A
C1457  H1467   1.084   .     S
C1458  H1468   1.084   .     S
C1458  C1461   1.396   .     A
C1458  C1112   1.371   1_565 S
C1459  C1461   1.395   .     A
C1459  H1469   1.084   .     S
C1459  C1109   1.371   1_565 S
C1460  C1462   1.395   .     A
C1460  H1470   1.084   .     S
C1463  N1497   1.418   .     S
C1463  N1474   1.372   .     A
C1464  N1473   1.372   .     A
C1464  N1503   1.418   .     S
C1464  C422    1.421   1_556 S
C1465  N1473   1.363   .     A
C1465  H1471   1.082   .     S
C1465  C419    1.421   1_556 S
C1466  N1474   1.363   .     A
C1466  H1472   1.082   .     S
N1473  Zn1483  2.013   .     S
N1474  Zn1484  2.013   .     S
O1475  Zn1483  1.993   .     S
O1476  Zn1484  1.993   .     S
O1477  Zn1484  1.989   .     S
O1478  Zn1483  1.989   .     S
O1479  Zn1483  1.981   .     S
O1480  Zn1484  1.981   .     S
O1481  Zn1484  1.985   .     S
O1482  Zn1483  1.985   .     S
N1485  C1487   1.447   .     S
N1485  C1513   1.433   .     S
N1485  H1544   1.032   .     S
C1487  H1488   1.110   .     S
C1487  H1489   1.111   .     S
C1487  H1548   1.112   .     S
N1491  C1493   1.447   .     S
H1492  N1549   1.032   .     S
C1493  H1494   1.110   .     S
C1493  H1496   1.111   .     S
H1495  C1551   1.112   .     S
N1497  H1498   1.031   .     S
N1497  C1499   1.446   .     S
C1499  H1502   1.111   .     S
C1499  H1500   1.110   .     S
C1499  H1501   1.110   .     S
N1503  C1505   1.446   .     S
N1503  H1504   1.031   .     S
C1505  H1506   1.110   .     S
C1505  H1507   1.111   .     S
C1505  H1508   1.110   .     S
C1509  O1533   1.284   .     A
C1509  C1520   1.412   .     S
C1509  O1535   1.282   .     A
C1510  O1534   1.284   .     A
C1510  C1519   1.412   .     S
C1510  O1536   1.282   .     A
C1511  O1539   1.282   .     A
C1511  C1513   1.405   .     S
C1511  O1537   1.275   .     A
C1512  O1540   1.282   .     A
C1512  C1514   1.405   .     S
C1512  O1538   1.275   .     A
C1514  C1397   1.351   1_655 S
C1514  N1433   1.433   1_655 S
C1515  C1520   1.396   .     A
C1515  H1525   1.084   .     S
C1516  H1526   1.084   .     S
C1516  C1519   1.396   .     A
C1516  C1170   1.371   1_565 S
C1517  C1519   1.395   .     A
C1517  H1527   1.084   .     S
C1517  C1167   1.371   1_565 S
C1518  C1520   1.395   .     A
C1518  H1528   1.084   .     S
C1521  N1555   1.418   .     S
C1521  N1532   1.372   .     A
C1522  N1531   1.372   .     A
C1522  N1561   1.418   .     S
C1522  C480    1.421   1_556 S
C1523  N1531   1.363   .     A
C1523  H1529   1.082   .     S
C1523  C477    1.421   1_556 S
C1524  N1532   1.363   .     A
C1524  H1530   1.082   .     S
N1531  Zn1541  2.013   .     S
N1532  Zn1542  2.013   .     S
O1533  Zn1541  1.993   .     S
O1534  Zn1542  1.993   .     S
O1535  Zn1542  1.989   .     S
O1536  Zn1541  1.989   .     S
O1537  Zn1541  1.981   .     S
O1538  Zn1542  1.981   .     S
O1539  Zn1542  1.985   .     S
O1540  Zn1541  1.985   .     S
N1543  C1545   1.447   .     S
N1543  C1397   1.433   1_655 S
N1543  H1428   1.032   1_655 S
C1545  H1546   1.110   .     S
C1545  H1547   1.111   .     S
C1545  H1432   1.112   1_655 S
N1549  C1551   1.447   .     S
H1550  N1433   1.032   1_655 S
C1551  H1552   1.110   .     S
C1551  H1554   1.111   .     S
H1553  C1435   1.112   1_655 S
N1555  H1556   1.031   .     S
N1555  C1557   1.446   .     S
C1557  H1560   1.111   .     S
C1557  H1558   1.110   .     S
C1557  H1559   1.110   .     S
N1561  C1563   1.446   .     S
N1561  H1562   1.031   .     S
C1563  H1564   1.110   .     S
C1563  H1565   1.111   .     S
C1563  H1566   1.110   .     S
